@<TRIPOS>MOLECULE
3R540
247   249    1
SMALL
USER_CHARGES


@<TRIPOS>ATOM
      1 CA         -4.2747  -12.9314  -51.2770 C.3       0 UNK        -0.1800 
      2 C          -3.5002  -12.8583  -49.9692 C.2       0 UNK         0.5000 
      3 O          -2.2950  -13.1078  -49.9536 O.2       0 UNK        -0.5000 
      4 N          -4.1903  -12.5185  -48.8737 N.am      1 UNK        -0.5000 
      5 CA         -3.6045  -12.3174  -47.5473 C.3       1 UNK         0.1400 
      6 C6         -4.7075  -12.2569  -46.4599 C.3       23 UNK        -0.0398 
      7 S7         -4.0474  -12.3418  -44.7587 S.3       23 UNK        -0.2404 
      8 C8         -4.6353  -13.9759  -44.1857 C.3       23 UNK        -0.0205 
      9 C9         -4.0214  -15.1779  -44.9035 C.ar      23 UNK        -0.0193 
     10 C10        -2.7196  -15.1458  -45.4168 C.ar      23 UNK        -0.1150 
     11 C11        -2.1797  -16.2540  -46.0717 C.ar      23 UNK        -0.0193 
     12 C12        -2.9330  -17.4258  -46.1685 C.ar      23 UNK        -0.1150 
     13 C13        -4.2235  -17.4871  -45.6384 C.ar      23 UNK        -0.0193 
     14 C14        -4.7651  -16.3577  -45.0173 C.ar      23 UNK        -0.1150 
     15 C15        -5.0324  -18.7715  -45.7502 C.3       23 UNK        -0.0205 
     16 S16        -4.9707  -19.7842  -44.2312 S.3       23 UNK        -0.2404 
     17 C17        -3.1959  -20.1886  -44.0782 C.3       23 UNK        -0.0398 
     18 CA         -2.7257  -21.2526  -45.1002 C.3       11 UNK         0.1400 
     19 N          -1.3175  -21.0861  -45.4606 N.am      11 UNK        -0.5000 
     20 C          -0.7139  -21.7284  -46.4711 C.2       10 UNK         0.5000 
     21 O          -1.2862  -22.5166  -47.2246 O.2       10 UNK        -0.5000 
     22 CA          0.8004  -21.4985  -46.6224 C.3       10 UNK         0.1400 
     23 CB          1.0907  -20.1546  -47.3072 C.3       10 UNK        -0.1800 
     24 N           1.4996  -21.5594  -45.3381 N.am      10 UNK        -0.5000 
     25 C           1.5498  -22.6472  -44.5551 C.2       9 UNK         0.5000 
     26 O           1.0587  -23.7340  -44.8577 O.2       9 UNK        -0.5000 
     27 CA          2.2167  -22.4800  -43.1804 C.3       9 UNK         0.1400 
     28 CB          3.7456  -22.5586  -43.2996 C.3       9 UNK        -0.1800 
     29 N           1.8319  -21.2275  -42.5299 N.am      9 UNK        -0.5000 
     30 C           0.5987  -20.9577  -42.0780 C.2       8 UNK         0.5000 
     31 O          -0.3486  -21.7376  -42.1596 O.2       8 UNK        -0.5000 
     32 CA          0.3737  -19.5640  -41.4687 C.3       8 UNK         0.1400 
     33 CB          0.8190  -19.5340  -39.9993 C.3       8 UNK        -0.1800 
     34 N           1.0614  -18.5075  -42.2089 N.am      8 UNK        -0.5000 
     35 C           0.7741  -18.1625  -43.4707 C.2       7 UNK         0.5000 
     36 O          -0.0916  -18.7076  -44.1560 O.2       7 UNK        -0.5000 
     37 CA          1.6373  -17.0462  -44.0781 C.3       7 UNK         0.1400 
     38 CB          1.1929  -15.6709  -43.5561 C.3       7 UNK        -0.1800 
     39 N           3.0734  -17.2118  -43.8587 N.am      7 UNK        -0.5000 
     40 C           3.8007  -18.2739  -44.2303 C.2       6 UNK         0.5000 
     41 O           3.3165  -19.3158  -44.6768 O.2       6 UNK        -0.5000 
     42 CA          5.3282  -18.0942  -44.1489 C.3       6 UNK         0.1400 
     43 CB          6.1027  -19.3753  -44.5051 C.3       6 UNK        -0.1800 
     44 N           5.7301  -17.0283  -45.0659 N.am      6 UNK        -0.5000 
     45 C           5.7651  -15.7227  -44.7672 C.2       5 UNK         0.5000 
     46 O           5.5581  -15.2744  -43.6390 O.2       5 UNK        -0.5000 
     47 CA          6.0086  -14.7601  -45.9437 C.3       5 UNK         0.1400 
     48 CB          7.5091  -14.6425  -46.2517 C.3       5 UNK        -0.1800 
     49 N           5.2909  -15.1724  -47.1539 N.am      5 UNK        -0.5000 
     50 C           3.9586  -15.1267  -47.2913 C.2       4 UNK         0.5000 
     51 O           3.1904  -14.7075  -46.4231 O.2       4 UNK        -0.5000 
     52 CA          3.3827  -15.6717  -48.6078 C.3       4 UNK         0.1400 
     53 CB          2.7409  -17.0502  -48.3820 C.3       4 UNK        -0.1800 
     54 N           2.3819  -14.7496  -49.1390 N.am      4 UNK        -0.5000 
     55 C           2.6713  -13.6320  -49.8187 C.2       3 UNK         0.5000 
     56 O           3.8133  -13.3101  -50.1502 O.2       3 UNK        -0.5000 
     57 CA          1.4890  -12.7140  -50.1864 C.3       3 UNK         0.1400 
     58 CB          0.8342  -13.1844  -51.4925 C.3       3 UNK        -0.1800 
     59 N           0.4668  -12.6375  -49.1416 N.am      3 UNK        -0.5000 
     60 C           0.6554  -12.1118  -47.9251 C.2       2 UNK         0.5000 
     61 O           1.6916  -11.5446  -47.5751 O.2       2 UNK        -0.5000 
     62 CA         -0.5434  -12.1884  -46.9704 C.3       2 UNK         0.1400 
     63 CB         -0.1207  -12.1271  -45.4915 C.3       2 UNK        -0.1800 
     64 N          -1.4213  -11.0587  -47.2665 N.am      2 UNK        -0.5000 
     65 C          -2.7292  -11.0341  -47.5631 C.2       1 UNK         0.5000 
     66 O          -3.2753   -9.9721  -47.8657 O.2       1 UNK        -0.5000 
     67 C          -3.0412  -22.6932  -44.6416 C.2       11 UNK         0.5000 
     68 O          -4.0046  -23.2875  -45.1297 O.2       11 UNK        -0.5000 
     69 N          -2.1953  -23.2451  -43.7569 N.am      12 UNK        -0.5000 
     70 CA         -2.2938  -24.6111  -43.2351 C.3       12 UNK         0.1400 
     71 CB         -1.2510  -24.8205  -42.1275 C.3       12 UNK        -0.1800 
     72 C          -2.1550  -25.6995  -44.3148 C.2       12 UNK         0.5000 
     73 O          -2.8097  -26.7374  -44.2099 O.2       12 UNK        -0.5000 
     74 N          -1.3602  -25.4334  -45.3603 N.am      13 UNK        -0.5000 
     75 CA         -1.1883  -26.2733  -46.5497 C.3       13 UNK         0.1400 
     76 CB          0.1368  -25.8949  -47.2360 C.3       13 UNK        -0.1800 
     77 C          -2.3942  -26.2012  -47.5162 C.2       13 UNK         0.5000 
     78 O          -2.2084  -26.0552  -48.7259 O.2       13 UNK        -0.5000 
     79 N          -3.6117  -26.2951  -46.9619 N.am      14 UNK        -0.5000 
     80 CA         -4.9161  -26.2470  -47.6288 C.3       14 UNK         0.1400 
     81 CB         -5.1508  -27.5489  -48.4230 C.3       14 UNK        -0.1800 
     82 C          -5.1073  -24.9803  -48.4878 C.2       14 UNK         0.5000 
     83 O          -5.5953  -25.0741  -49.6135 O.2       14 UNK        -0.5000 
     84 N          -4.6826  -23.8249  -47.9545 N.am      15 UNK        -0.5000 
     85 CA         -4.6242  -22.5234  -48.6281 C.3       15 UNK         0.1400 
     86 CB         -6.0413  -21.9557  -48.8487 C.3       15 UNK        -0.1800 
     87 C          -3.7812  -22.5776  -49.9196 C.2       15 UNK         0.5000 
     88 O          -4.2764  -22.2448  -50.9996 O.2       15 UNK        -0.5000 
     89 N          -2.5269  -23.0261  -49.7676 N.am      16 UNK        -0.5000 
     90 CA         -1.5185  -23.2403  -50.8089 C.3       16 UNK         0.1400 
     91 CB         -1.0175  -21.8886  -51.3559 C.3       16 UNK        -0.1800 
     92 C          -2.0049  -24.2085  -51.9083 C.2       16 UNK         0.5000 
     93 O          -1.8860  -23.9151  -53.0987 O.2       16 UNK        -0.5000 
     94 N          -2.5705  -25.3433  -51.4699 N.am      17 UNK        -0.5000 
     95 CA         -3.2214  -26.3811  -52.2777 C.3       17 UNK         0.1400 
     96 CB         -2.1910  -27.1200  -53.1568 C.3       17 UNK        -0.1800 
     97 C          -4.4358  -25.8534  -53.0756 C.2       17 UNK         0.5000 
     98 O          -4.6773  -26.2943  -54.2010 O.2       17 UNK        -0.5000 
     99 N          -5.1786  -24.9242  -52.4578 N.am      18 UNK        -0.5000 
    100 CA        -6.3878  -24.2549  -52.9394 C.3       18 UNK         0.1400 
    101 CB        -7.5690  -25.2468  -52.9643 C.3       18 UNK        -0.1800 
    102 C         -6.1906  -23.5111  -54.2768 C.2       18 UNK         0.5000 
    103 O         -7.0624  -23.5691  -55.1473 O.2       18 UNK        -0.5000 
    104 N         -5.0503  -22.8270  -54.4252 N.am      19 UNK        -0.5000 
    105 CA        -4.6801  -22.0886  -55.6281 C.3       19 UNK         0.1400 
    106 CB        -3.9457  -23.0299  -56.5991 C.3       19 UNK        -0.1800 
    107 C         -3.8015  -20.8857  -55.2622 C.2       19 UNK         0.5000 
    108 O         -3.0623  -20.9456  -54.2787 O.2       19 UNK        -0.5000 
    109 N         -3.8805  -19.8368  -56.0948 N.am      20 UNK        -0.5000 
    110 CA        -3.1296  -18.5766  -56.0235 C.3       20 UNK         0.1400 
    111 CB        -1.6243  -18.8418  -56.2516 C.3       20 UNK        -0.1800 
    112 C         -3.3970  -17.7590  -54.7386 C.2       20 UNK         0.5000 
    113 O         -4.3153  -18.0655  -53.9720 O.2       20 UNK        -0.5000 
    114 N         -2.6005  -16.7010  -54.5352 N.am      21 UNK        -0.5000 
    115 CA        -2.5921  -15.9014  -53.3111 C.3       21 UNK         0.1400 
    116 CB        -1.7259  -14.6524  -53.5245 C.3       21 UNK        -0.1800 
    117 C         -2.0797  -16.7391  -52.1250 C.2       21 UNK         0.5000 
    118 O         -1.1191  -17.4939  -52.2910 O.2       21 UNK        -0.5000 
    119 N         -2.7544  -16.6101  -50.9769 N.am      22 UNK        -0.5000 
    120 CA        -2.5937  -17.4433  -49.7706 C.3       22 UNK         0.1400 
    121 C         -3.1192  -18.9033  -49.9062 C.2       22 UNK         0.5000 
    122 N         -3.7166  -19.3156  -51.0190 N.am      22 UNK        -0.7600 
    123 O         -3.0199  -19.6686  -48.9532 O.2       22 UNK        -0.5000 
    124 C124       -1.1628  -17.4017  -49.1593 C.3       23 UNK        -0.0398 
    125 S125       -0.7759  -15.7823  -48.4239 S.3       23 UNK        -0.2404 
    126 C126       -0.7765  -16.1888  -46.6512 C.3       23 UNK        -0.0205 
    127 H127       -5.2314  -12.4132  -51.2064 H         1 UNK         0.0600 
    128 H128       -4.4690  -13.9695  -51.5415 H         1 UNK         0.0600 
    129 H129       -3.7015  -12.4709  -52.0817 H         1 UNK         0.0600 
    130 H130       -5.1714  -12.2953  -48.9590 H         1 UNK         0.3000 
    131 H131       -3.0230  -13.2109  -47.3488 H         1 UNK         0.0600 
    132 H132       -5.4065  -13.0828  -46.6000 H         1 UNK         0.0800 
    133 H133       -5.3021  -11.3468  -46.5569 H         1 UNK         0.0800 
    134 H134       -4.4105  -14.0667  -43.1224 H         1 UNK         0.0800 
    135 H135       -5.7229  -14.0007  -44.2720 H         1 UNK         0.0800 
    136 H136       -2.1208  -14.2553  -45.3107 H         1 UNK         0.1150 
    137 H137       -2.5132  -18.2989  -46.6466 H         1 UNK         0.1150 
    138 H138       -5.7650  -16.4048  -44.6090 H         1 UNK         0.1150 
    139 H139       -6.0739  -18.5228  -45.9584 H         1 UNK         0.0800 
    140 H140       -4.6939  -19.3605  -46.6038 H         1 UNK         0.0800 
    141 H141       -2.9917  -20.5068  -43.0543 H         1 UNK         0.0800 
    142 H142       -2.6353  -19.2632  -44.1979 H         1 UNK         0.0800 
    143 H143       -3.2758  -21.0885  -46.0256 H         1 UNK         0.0600 
    144 H144       -0.7769  -20.4306  -44.9042 H         1 UNK         0.3000 
    145 H145        1.1951  -22.2954  -47.2561 H         1 UNK         0.0600 
    146 H146        2.1589  -20.0264  -47.4825 H         1 UNK         0.0600 
    147 H147        0.5908  -20.0932  -48.2747 H         1 UNK         0.0600 
    148 H148        0.7503  -19.3135  -46.7040 H         1 UNK         0.0600 
    149 H149        1.9650  -20.7117  -45.0260 H         1 UNK         0.3000 
    150 H150        1.8855  -23.3037  -42.5446 H         1 UNK         0.0600 
    151 H151        4.0526  -23.5225  -43.7073 H         1 UNK         0.0600 
    152 H152        4.2263  -22.4483  -42.3276 H         1 UNK         0.0600 
    153 H153        4.1382  -21.7868  -43.9609 H         1 UNK         0.0600 
    154 H154        2.5341  -20.5044  -42.4834 H         1 UNK         0.3000 
    155 H155       -0.6981  -19.3565  -41.5050 H         1 UNK         0.0600 
    156 H156        0.3071  -20.3045  -39.4211 H         1 UNK         0.0600 
    157 H157        0.5870  -18.5745  -39.5366 H         1 UNK         0.0600 
    158 H158        1.8914  -19.7055  -39.8980 H         1 UNK         0.0600 
    159 H159        1.8011  -18.0158  -41.7293 H         1 UNK         0.3000 
    160 H160        1.4942  -17.0677  -45.1572 H         1 UNK         0.0600 
    161 H161        1.4036  -15.5556  -42.4924 H         1 UNK         0.0600 
    162 H162        0.1210  -15.5234  -43.6944 H         1 UNK         0.0600 
    163 H163        1.7029  -14.8664  -44.0860 H         1 UNK         0.0600 
    164 H164        3.5741  -16.3938  -43.5351 H         1 UNK         0.3000 
    165 H165        5.5822  -17.8220  -43.1223 H         1 UNK         0.0600 
    166 H166        7.1791  -19.2081  -44.4631 H         1 UNK         0.0600 
    167 H167        5.8743  -20.1751  -43.8007 H         1 UNK         0.0600 
    168 H168        5.8590  -19.7341  -45.5060 H         1 UNK         0.0600 
    169 H169        5.8722  -17.2996  -46.0276 H         1 UNK         0.3000 
    170 H170        5.6434  -13.7738  -45.6489 H         1 UNK         0.0600 
    171 H171        8.0638  -14.3204  -45.3693 H         1 UNK         0.0600 
    172 H172        7.9323  -15.5940  -46.5760 H         1 UNK         0.0600 
    173 H173        7.6939  -13.9080  -47.0358 H         1 UNK         0.0600 
    174 H174        5.8540  -15.5181  -47.9176 H         1 UNK         0.3000 
    175 H175        4.1863  -15.7849  -49.3386 H         1 UNK         0.0600 
    176 H176        1.9514  -17.0104  -47.6321 H         1 UNK         0.0600 
    177 H177        2.3084  -17.4424  -49.3026 H         1 UNK         0.0600 
    178 H178        3.4807  -17.7726  -48.0350 H         1 UNK         0.0600 
    179 H179        1.4210  -14.9209  -48.8753 H         1 UNK         0.3000 
    180 H180        1.8842  -11.7085  -50.3445 H         1 UNK         0.0600 
    181 H181        0.3922  -14.1756  -51.3807 H         1 UNK         0.0600 
    182 H182        1.5633  -13.2371  -52.3020 H         1 UNK         0.0600 
    183 H183        0.0473  -12.4985  -51.8064 H         1 UNK         0.0600 
    184 H184       -0.4508  -13.0078  -49.3810 H         1 UNK         0.3000 
    185 H185       -1.0075  -13.1529  -47.1457 H         1 UNK         0.0600 
    186 H186       -0.9794  -12.2227  -44.8280 H         1 UNK         0.0600 
    187 H187        0.3779  -11.1877  -45.2500 H         1 UNK         0.0600 
    188 H188        0.5696  -12.9368  -45.2520 H         1 UNK         0.0600 
    189 H189       -0.9275  -10.1799  -47.3294 H         1 UNK         0.3000 
    190 H190       -1.4389  -22.6802  -43.3783 H         1 UNK         0.3000 
    191 H191       -3.2851  -24.7196  -42.7906 H         1 UNK         0.0600 
    192 H192       -0.2365  -24.6766  -42.4998 H         1 UNK         0.0600 
    193 H193       -1.4079  -24.1265  -41.3017 H         1 UNK         0.0600 
    194 H194       -1.3110  -25.8295  -41.7177 H         1 UNK         0.0600 
    195 H195       -0.8293  -24.5696  -45.3478 H         1 UNK         0.3000 
    196 H196       -1.1066  -27.3128  -46.2266 H         1 UNK         0.0600 
    197 H197        0.9786  -25.9991  -46.5513 H         1 UNK         0.0600 
    198 H198        0.1231  -24.8650  -47.5940 H         1 UNK         0.0600 
    199 H199        0.3364  -26.5399  -48.0925 H         1 UNK         0.0600 
    200 H200       -3.6377  -26.4204  -45.9548 H         1 UNK         0.3000 
    201 H201       -5.6673  -26.1974  -46.8395 H         1 UNK         0.0600 
    202 H202       -6.1562  -27.5761  -48.8449 H         1 UNK         0.0600 
    203 H203       -5.0454  -28.4248  -47.7830 H         1 UNK         0.0600 
    204 H204       -4.4458  -27.6510  -49.2484 H         1 UNK         0.0600 
    205 H205       -4.3106  -23.8409  -47.0090 H         1 UNK         0.3000 
    206 H206       -4.1046  -21.8495  -47.9501 H         1 UNK         0.0600 
    207 H207       -6.6231  -22.5665  -49.5396 H         1 UNK         0.0600 
    208 H208       -5.9924  -20.9481  -49.2633 H         1 UNK         0.0600 
    209 H209       -6.5901  -21.8937  -47.9092 H         1 UNK         0.0600 
    210 H210       -2.2068  -23.2049  -48.8201 H         1 UNK         0.3000 
    211 H211       -0.6761  -23.7303  -50.3188 H         1 UNK         0.0600 
    212 H212       -0.6643  -21.2440  -50.5507 H         1 UNK         0.0600 
    213 H213       -0.1893  -22.0293  -52.0508 H         1 UNK         0.0600 
    214 H214       -1.8033  -21.3533  -51.8890 H         1 UNK         0.0600 
    215 H215       -2.5798  -25.5051  -50.4638 H         1 UNK         0.3000 
    216 H216       -3.6225  -27.1042  -51.5667 H         1 UNK         0.0600 
    217 H217       -2.6427  -27.9840  -53.6454 H         1 UNK         0.0600 
    218 H218       -1.7892  -26.4760  -53.9394 H         1 UNK         0.0600 
    219 H219       -1.3552  -27.4862  -52.5605 H         1 UNK         0.0600 
    220 H220       -4.9120  -24.6674  -51.5130 H         1 UNK         0.3000 
    221 H221       -6.6194  -23.4879  -52.1989 H         1 UNK         0.0600 
    222 H222       -8.5043  -24.7378  -53.1999 H         1 UNK         0.0600 
    223 H223       -7.4235  -26.0296  -53.7093 H         1 UNK         0.0600 
    224 H224       -7.6982  -25.7265  -51.9938 H         1 UNK         0.0600 
    225 H225       -4.3812  -22.7792  -53.6641 H         1 UNK         0.3000 
    226 H226       -5.5819  -21.7075  -56.1126 H         1 UNK         0.0600 
    227 H227       -4.5830  -23.8605  -56.9031 H         1 UNK         0.0600 
    228 H228       -3.6425  -22.5034  -57.5048 H         1 UNK         0.0600 
    229 H229       -3.0471  -23.4484  -56.1432 H         1 UNK         0.0600 
    230 H230       -4.5420  -19.8907  -56.8564 H         1 UNK         0.3000 
    231 H231       -3.4904  -17.9671  -56.8532 H         1 UNK         0.0600 
    232 H232       -1.0769  -17.9169  -56.4345 H         1 UNK         0.0600 
    233 H233       -1.4641  -19.4806  -57.1203 H         1 UNK         0.0600 
    234 H234       -1.1656  -19.3295  -55.3904 H         1 UNK         0.0600 
    235 H235       -1.8555  -16.5206  -55.1914 H         1 UNK         0.3000 
    236 H236       -3.6167  -15.5820  -53.1115 H         1 UNK         0.0600 
    237 H237       -2.0901  -14.0548  -54.3602 H         1 UNK         0.0600 
    238 H238       -1.7458  -14.0164  -52.6397 H         1 UNK         0.0600 
    239 H239       -0.6848  -14.9112  -53.7220 H         1 UNK         0.0600 
    240 H240       -3.5246  -15.9602  -50.9405 H         1 UNK         0.3000 
    241 H241       -3.2685  -16.9988  -49.0382 H         1 UNK         0.0600 
    242 H242       -3.8042  -18.7195  -51.8297 H         1 UNK         0.3800 
    243 H243       -4.0120  -20.2835  -51.0829 H         1 UNK         0.3800 
    244 H244       -0.4013  -17.6353  -49.9019 H         1 UNK         0.0800 
    245 H245       -1.0380  -18.1656  -48.3928 H         1 UNK         0.0800 
    246 H246       -0.2740  -17.1413  -46.4932 H         1 UNK         0.0800 
    247 H247       -0.1863  -15.4363  -46.1277 H         1 UNK         0.0800 
@<TRIPOS>BOND
     1    1    2 1    
     2    1  127 1    
     3    1  128 1    
     4    1  129 1    
     5    2    3 2    
     6    2    4 am   BACKBONE|DICT|INTERRES
     7    4    5 1    
     8    4  130 1    
     9    5    6 1    
    10    5   65 1    
    11    5  131 1    
    12    6    7 1    
    13    6  132 1    
    14    6  133 1    
    15    7    8 1    
    16    8    9 1    
    17    8  134 1    
    18    8  135 1    
    19    9   10 ar   
    20    9   14 ar   
    21   10   11 ar   
    22   10  136 1    
    23   11   12 ar   
    24   11  126 1    
    25   12   13 ar   
    26   12  137 1    
    27   13   14 ar   
    28   13   15 1    
    29   14  138 1    
    30   15   16 1    
    31   15  139 1    
    32   15  140 1    
    33   16   17 1    
    34   17   18 1    
    35   17  141 1    
    36   17  142 1    
    37   18   19 1    
    38   18   67 1    
    39   18  143 1    
    40   19   20 am   BACKBONE|DICT|INTERRES
    41   19  144 1    
    42   20   21 2    
    43   20   22 1    
    44   22   23 1    
    45   22   24 1    
    46   22  145 1    
    47   23  146 1    
    48   23  147 1    
    49   23  148 1    
    50   24   25 am   BACKBONE|DICT|INTERRES
    51   24  149 1    
    52   25   26 2    
    53   25   27 1    
    54   27   28 1    
    55   27   29 1    
    56   27  150 1    
    57   28  151 1    
    58   28  152 1    
    59   28  153 1    
    60   29   30 am   BACKBONE|DICT|INTERRES
    61   29  154 1    
    62   30   31 2    
    63   30   32 1    
    64   32   33 1    
    65   32   34 1    
    66   32  155 1    
    67   33  156 1    
    68   33  157 1    
    69   33  158 1    
    70   34   35 am   BACKBONE|DICT|INTERRES
    71   34  159 1    
    72   35   36 2    
    73   35   37 1    
    74   37   38 1    
    75   37   39 1    
    76   37  160 1    
    77   38  161 1    
    78   38  162 1    
    79   38  163 1    
    80   39   40 am   BACKBONE|DICT|INTERRES
    81   39  164 1    
    82   40   41 2    
    83   40   42 1    
    84   42   43 1    
    85   42   44 1    
    86   42  165 1    
    87   43  166 1    
    88   43  167 1    
    89   43  168 1    
    90   44   45 am   BACKBONE|DICT|INTERRES
    91   44  169 1    
    92   45   46 2    
    93   45   47 1    
    94   47   48 1    
    95   47   49 1    
    96   47  170 1    
    97   48  171 1    
    98   48  172 1    
    99   48  173 1    
   100   49   50 am   BACKBONE|DICT|INTERRES
   101   49  174 1    
   102   50   51 2    
   103   50   52 1    
   104   52   53 1    
   105   52   54 1    
   106   52  175 1    
   107   53  176 1    
   108   53  177 1    
   109   53  178 1    
   110   54   55 am   BACKBONE|DICT|INTERRES
   111   54  179 1    
   112   55   56 2    
   113   55   57 1    
   114   57   58 1    
   115   57   59 1    
   116   57  180 1    
   117   58  181 1    
   118   58  182 1    
   119   58  183 1    
   120   59   60 am   BACKBONE|DICT|INTERRES
   121   59  184 1    
   122   60   61 2    
   123   60   62 1    
   124   62   63 1    
   125   62   64 1    
   126   62  185 1    
   127   63  186 1    
   128   63  187 1    
   129   63  188 1    
   130   64   65 am   BACKBONE|DICT|INTERRES
   131   64  189 1    
   132   65   66 2    
   133   67   68 2    
   134   67   69 am   BACKBONE|DICT|INTERRES
   135   69   70 1    
   136   69  190 1    
   137   70   71 1    
   138   70   72 1    
   139   70  191 1    
   140   71  192 1    
   141   71  193 1    
   142   71  194 1    
   143   72   73 2    
   144   72   74 am   BACKBONE|DICT|INTERRES
   145   74   75 1    
   146   74  195 1    
   147   75   76 1    
   148   75   77 1    
   149   75  196 1    
   150   76  197 1    
   151   76  198 1    
   152   76  199 1    
   153   77   78 2    
   154   77   79 am   BACKBONE|DICT|INTERRES
   155   79   80 1    
   156   79  200 1    
   157   80   81 1    
   158   80   82 1    
   159   80  201 1    
   160   81  202 1    
   161   81  203 1    
   162   81  204 1    
   163   82   83 2    
   164   82   84 am   BACKBONE|DICT|INTERRES
   165   84   85 1    
   166   84  205 1    
   167   85   86 1    
   168   85   87 1    
   169   85  206 1    
   170   86  207 1    
   171   86  208 1    
   172   86  209 1    
   173   87   88 2    
   174   87   89 am   BACKBONE|DICT|INTERRES
   175   89   90 1    
   176   89  210 1    
   177   90   91 1    
   178   90   92 1    
   179   90  211 1    
   180   91  212 1    
   181   91  213 1    
   182   91  214 1    
   183   92   93 2    
   184   92   94 am   BACKBONE|DICT|INTERRES
   185   94   95 1    
   186   94  215 1    
   187   95   96 1    
   188   95   97 1    
   189   95  216 1    
   190   96  217 1    
   191   96  218 1    
   192   96  219 1    
   193   97   98 2    
   194   97   99 am   BACKBONE|DICT|INTERRES
   195   99  100 1    
   196   99  220 1    
   197  100  101 1    
   198  100  102 1    
   199  100  221 1    
   200  101  222 1    
   201  101  223 1    
   202  101  224 1    
   203  102  103 2    
   204  102  104 am   BACKBONE|DICT|INTERRES
   205  104  105 1    
   206  104  225 1    
   207  105  106 1    
   208  105  107 1    
   209  105  226 1    
   210  106  227 1    
   211  106  228 1    
   212  106  229 1    
   213  107  108 2    
   214  107  109 am   BACKBONE|DICT|INTERRES
   215  109  110 1    
   216  109  230 1    
   217  110  111 1    
   218  110  112 1    
   219  110  231 1    
   220  111  232 1    
   221  111  233 1    
   222  111  234 1    
   223  112  113 2    
   224  112  114 am   BACKBONE|DICT|INTERRES
   225  114  115 1    
   226  114  235 1    
   227  115  116 1    
   228  115  117 1    
   229  115  236 1    
   230  116  237 1    
   231  116  238 1    
   232  116  239 1    
   233  117  118 2    
   234  117  119 am   BACKBONE|DICT|INTERRES
   235  119  120 1    
   236  119  240 1    
   237  120  121 1    
   238  120  124 1    
   239  120  241 1    
   240  121  122 am   BACKBONE|DICT|INTERRES
   241  121  123 2    
   242  122  242 1    
   243  122  243 1    
   244  124  125 1    
   245  124  244 1    
   246  124  245 1    
   247  125  126 1    
   248  126  246 1    
   249  126  247 1    
@<TRIPOS>SUBSTRUCTURE
     1 UNK         1 GROUP             0       ****    0 ROOT    
