@<TRIPOS>MOLECULE
3R540
247   249    1
SMALL
USER_CHARGES


@<TRIPOS>ATOM
      1 CA          4.4668   -9.2262  -49.3719 C.3       0 UNK        -0.1800 
      2 C           4.5614  -10.5603  -48.6447 C.2       0 UNK         0.5000 
      3 O           5.6613  -10.9961  -48.3042 O.2       0 UNK        -0.5000 
      4 N           3.4167  -11.2069  -48.4067 N.am      1 UNK        -0.5000 
      5 CA          3.3022  -12.4771  -47.6964 C.3       1 UNK         0.1400 
      6 C6          3.7104  -13.6942  -48.5740 C.3       23 UNK        -0.0398 
      7 S7          3.6928  -15.2841  -47.6762 S.3       23 UNK        -0.2404 
      8 C8          4.2478  -16.4308  -48.9777 C.3       23 UNK        -0.0205 
      9 C9          3.1424  -17.3357  -49.5148 C.ar      23 UNK        -0.0193 
     10 C10         1.9205  -16.8148  -49.9592 C.ar      23 UNK        -0.1150 
     11 C11         0.9473  -17.6528  -50.5165 C.ar      23 UNK        -0.0193 
     12 C12         1.2066  -19.0212  -50.6328 C.ar      23 UNK        -0.1150 
     13 C13         2.4209  -19.5551  -50.1937 C.ar      23 UNK        -0.0193 
     14 C14         3.3786  -18.7091  -49.6293 C.ar      23 UNK        -0.1150 
     15 C15         2.7209  -21.0369  -50.3696 C.3       23 UNK        -0.0205 
     16 S16         2.4153  -21.9870  -48.8494 S.3       23 UNK        -0.2404 
     17 C17         0.5997  -21.8934  -48.7489 C.3       23 UNK        -0.0398 
     18 CA          0.0174  -22.9013  -47.7332 C.3       11 UNK         0.1400 
     19 N           0.3408  -22.5421  -46.3477 N.am      11 UNK        -0.5000 
     20 C           0.0798  -23.3104  -45.2811 C.2       10 UNK         0.5000 
     21 O          -0.4323  -24.4252  -45.3544 O.2       10 UNK        -0.5000 
     22 CA          0.3868  -22.7213  -43.8946 C.3       10 UNK         0.1400 
     23 CB          1.8884  -22.7991  -43.5815 C.3       10 UNK        -0.1800 
     24 N          -0.0853  -21.3447  -43.7565 N.am      10 UNK        -0.5000 
     25 C          -1.3714  -20.9712  -43.8141 C.2       9 UNK         0.5000 
     26 O          -2.3060  -21.7620  -43.9407 O.2       9 UNK        -0.5000 
     27 CA         -1.6624  -19.4594  -43.7680 C.3       9 UNK         0.1400 
     28 CB         -1.6395  -18.9360  -42.3243 C.3       9 UNK        -0.1800 
     29 N          -0.7353  -18.6795  -44.5877 N.am      9 UNK        -0.5000 
     30 C          -0.6189  -18.7925  -45.9192 C.2       8 UNK         0.5000 
     31 O          -1.2956  -19.5561  -46.6072 O.2       8 UNK        -0.5000 
     32 CA          0.4875  -17.9514  -46.5772 C.3       8 UNK         0.1400 
     33 CB          0.0447  -16.4886  -46.7207 C.3       8 UNK        -0.1800 
     34 N           1.7432  -18.0122  -45.8281 N.am      8 UNK        -0.5000 
     35 C           2.4548  -19.1330  -45.6414 C.2       7 UNK         0.5000 
     36 O           2.1328  -20.2316  -46.0893 O.2       7 UNK        -0.5000 
     37 CA          3.6976  -19.0216  -44.7412 C.3       7 UNK         0.1400 
     38 CB          4.8738  -18.3933  -45.5037 C.3       7 UNK        -0.1800 
     39 N           3.4401  -18.2580  -43.5190 N.am      7 UNK        -0.5000 
     40 C           2.5556  -18.6060  -42.5721 C.2       6 UNK         0.5000 
     41 O           1.8925  -19.6404  -42.6064 O.2       6 UNK        -0.5000 
     42 CA          2.3493  -17.6237  -41.4041 C.3       6 UNK         0.1400 
     43 CB          3.2216  -18.0236  -40.2051 C.3       6 UNK        -0.1800 
     44 N           2.6301  -16.2324  -41.7624 N.am      6 UNK        -0.5000 
     45 C           1.9226  -15.5147  -42.6441 C.2       5 UNK         0.5000 
     46 O           0.9441  -15.9482  -43.2580 O.2       5 UNK        -0.5000 
     47 CA          2.4655  -14.1073  -42.9387 C.3       5 UNK         0.1400 
     48 CB          3.4332  -14.1632  -44.1274 C.3       5 UNK        -0.1800 
     49 N           1.4050  -13.1400  -43.2188 N.am      5 UNK        -0.5000 
     50 C           0.5879  -12.6424  -42.2816 C.2       4 UNK         0.5000 
     51 O           0.6231  -12.9805  -41.0970 O.2       4 UNK        -0.5000 
     52 CA         -0.4067  -11.5519  -42.7176 C.3       4 UNK         0.1400 
     53 CB          0.2829  -10.1787  -42.7414 C.3       4 UNK        -0.1800 
     54 N          -1.0409  -11.7854  -44.0146 N.am      4 UNK        -0.5000 
     55 C          -1.9533  -12.7344  -44.2666 C.2       3 UNK         0.5000 
     56 O          -2.2696  -13.6056  -43.4570 O.2       3 UNK        -0.5000 
     57 CA         -2.6818  -12.6718  -45.6282 C.3       3 UNK         0.1400 
     58 CB         -4.1830  -12.4168  -45.4155 C.3       3 UNK        -0.1800 
     59 N          -2.1633  -11.6100  -46.5010 N.am      3 UNK        -0.5000 
     60 C          -1.1631  -11.6882  -47.3892 C.2       2 UNK         0.5000 
     61 O          -0.7895  -10.6977  -48.0188 O.2       2 UNK        -0.5000 
     62 CA         -0.4894  -13.0491  -47.6676 C.3       2 UNK         0.1400 
     63 CB         -1.2005  -13.7717  -48.8174 C.3       2 UNK        -0.1800 
     64 N           0.9183  -12.9031  -48.0164 N.am      2 UNK        -0.5000 
     65 C           1.8701  -12.5473  -47.1470 C.2       1 UNK         0.5000 
     66 O           1.6459  -12.2606  -45.9695 O.2       1 UNK        -0.5000 
     67 C          -1.5003  -23.0725  -47.9506 C.2       11 UNK         0.5000 
     68 O          -1.9155  -24.0261  -48.6169 O.2       11 UNK        -0.5000 
     69 N          -2.3011  -22.1663  -47.3714 N.am      12 UNK        -0.5000 
     70 CA         -3.7618  -22.2219  -47.3824 C.3       12 UNK         0.1400 
     71 CB         -4.3421  -20.9246  -46.8028 C.3       12 UNK        -0.1800 
     72 C          -4.3130  -23.4587  -46.6501 C.2       12 UNK         0.5000 
     73 O          -5.2131  -24.1174  -47.1697 O.2       12 UNK        -0.5000 
     74 N          -3.7421  -23.7782  -45.4821 N.am      13 UNK        -0.5000 
     75 CA         -4.0851  -24.9658  -44.7005 C.3       13 UNK         0.1400 
     76 CB         -3.4491  -24.8605  -43.3059 C.3       13 UNK        -0.1800 
     77 C          -3.6718  -26.2804  -45.3899 C.2       13 UNK         0.5000 
     78 O          -4.4338  -27.2474  -45.3534 O.2       13 UNK        -0.5000 
     79 N          -2.4747  -26.2963  -45.9911 N.am      14 UNK        -0.5000 
     80 CA         -1.8770  -27.4726  -46.6179 C.3       14 UNK         0.1400 
     81 CB         -0.3770  -27.2310  -46.8505 C.3       14 UNK        -0.1800 
     82 C          -2.5597  -27.8888  -47.9300 C.2       14 UNK         0.5000 
     83 O          -2.8635  -29.0716  -48.0955 O.2       14 UNK        -0.5000 
     84 N          -2.7539  -26.9350  -48.8515 N.am      15 UNK        -0.5000 
     85 CA         -3.1701  -27.2285  -50.2264 C.3       15 UNK         0.1400 
     86 CB         -1.9418  -27.6606  -51.0552 C.3       15 UNK        -0.1800 
     87 C          -3.9301  -26.0625  -50.8785 C.2       15 UNK         0.5000 
     88 O          -3.8587  -25.9006  -52.0992 O.2       15 UNK        -0.5000 
     89 N          -4.6211  -25.2442  -50.0685 N.am      16 UNK        -0.5000 
     90 CA         -5.4104  -24.0743  -50.4853 C.3       16 UNK         0.1400 
     91 CB         -6.6679  -24.5219  -51.2598 C.3       16 UNK        -0.1800 
     92 C          -4.5883  -23.0234  -51.2615 C.2       16 UNK         0.5000 
     93 O          -5.1428  -22.3137  -52.0994 O.2       16 UNK        -0.5000 
     94 N          -3.2716  -22.9720  -51.0071 N.am      17 UNK        -0.5000 
     95 CA         -2.2696  -22.1805  -51.7261 C.3       17 UNK         0.1400 
     96 CB         -2.4337  -20.6844  -51.3932 C.3       17 UNK        -0.1800 
     97 C          -2.2486  -22.4750  -53.2421 C.2       17 UNK         0.5000 
     98 O          -2.1541  -21.5507  -54.0481 O.2       17 UNK        -0.5000 
     99 N          -2.3878  -23.7623  -53.5982 N.am      18 UNK        -0.5000 
    100 CA        -2.5514  -24.2853  -54.9608 C.3       18 UNK         0.1400 
    101 CB        -1.2894  -24.0396  -55.8146 C.3       18 UNK        -0.1800 
    102 C         -3.8506  -23.7723  -55.6188 C.2       18 UNK         0.5000 
    103 O         -3.8551  -23.3966  -56.7919 O.2       18 UNK        -0.5000 
    104 N         -4.9235  -23.7530  -54.8152 N.am      19 UNK        -0.5000 
    105 CA        -6.2779  -23.2723  -55.1089 C.3       19 UNK         0.1400 
    106 CB        -6.9084  -24.0502  -56.2828 C.3       19 UNK        -0.1800 
    107 C         -6.3982  -21.7411  -55.2762 C.2       19 UNK         0.5000 
    108 O         -7.4488  -21.2686  -55.7139 O.2       19 UNK        -0.5000 
    109 N         -5.3585  -20.9810  -54.9009 N.am      20 UNK        -0.5000 
    110 CA        -5.3868  -19.5165  -54.8659 C.3       20 UNK         0.1400 
    111 CB        -3.9514  -18.9703  -54.8815 C.3       20 UNK        -0.1800 
    112 C         -6.1496  -18.9704  -53.6435 C.2       20 UNK         0.5000 
    113 O         -6.7132  -17.8789  -53.7301 O.2       20 UNK        -0.5000 
    114 N         -6.1497  -19.7363  -52.5396 N.am      21 UNK        -0.5000 
    115 CA        -6.7970  -19.4645  -51.2519 C.3       21 UNK         0.1400 
    116 CB        -8.3242  -19.6328  -51.3839 C.3       21 UNK        -0.1800 
    117 C         -6.3837  -18.1102  -50.6362 C.2       21 UNK         0.5000 
    118 O         -7.2424  -17.3428  -50.1955 O.2       21 UNK        -0.5000 
    119 N         -5.0741  -17.8263  -50.6575 N.am      22 UNK        -0.5000 
    120 CA        -4.4901  -16.5681  -50.1735 C.3       22 UNK         0.1400 
    121 C         -4.6302  -16.3521  -48.6369 C.2       22 UNK         0.5000 
    122 N         -4.7383  -15.1082  -48.1882 N.am      22 UNK        -0.7600 
    123 O         -4.6346  -17.2934  -47.8475 O.2       22 UNK        -0.5000 
    124 C124       -3.0406  -16.3729  -50.6924 C.3       23 UNK        -0.0398 
    125 S125       -1.7717  -17.4662  -49.9597 S.3       23 UNK        -0.2404 
    126 C126       -0.3607  -17.0770  -51.0418 C.3       23 UNK        -0.0205 
    127 H127        5.0330   -9.2653  -50.3025 H         1 UNK         0.0600 
    128 H128        4.8813   -8.4309  -48.7525 H         1 UNK         0.0600 
    129 H129        3.4353   -8.9672  -49.6124 H         1 UNK         0.0600 
    130 H130        2.5375  -10.7842  -48.6749 H         1 UNK         0.3000 
    131 H131        3.9685  -12.4450  -46.8313 H         1 UNK         0.0600 
    132 H132        4.7253  -13.5447  -48.9444 H         1 UNK         0.0800 
    133 H133        3.0818  -13.7721  -49.4616 H         1 UNK         0.0800 
    134 H134        5.0564  -17.0321  -48.5594 H         1 UNK         0.0800 
    135 H135        4.6850  -15.8782  -49.8100 H         1 UNK         0.0800 
    136 H136        1.7328  -15.7538  -49.8859 H         1 UNK         0.1150 
    137 H137        0.4662  -19.6690  -51.0777 H         1 UNK         0.1150 
    138 H138        4.3216  -19.1233  -49.3011 H         1 UNK         0.1150 
    139 H139        2.1333  -21.4542  -51.1888 H         1 UNK         0.0800 
    140 H140        3.7662  -21.1630  -50.6554 H         1 UNK         0.0800 
    141 H141        0.2123  -22.0859  -49.7483 H         1 UNK         0.0800 
    142 H142        0.3078  -20.8731  -48.4930 H         1 UNK         0.0800 
    143 H143        0.4685  -23.8767  -47.9275 H         1 UNK         0.0600 
    144 H144        0.8130  -21.6517  -46.2108 H         1 UNK         0.3000 
    145 H145       -0.1415  -23.3264  -43.1548 H         1 UNK         0.0600 
    146 H146        2.0964  -22.4615  -42.5661 H         1 UNK         0.0600 
    147 H147        2.4768  -22.1862  -44.2641 H         1 UNK         0.0600 
    148 H148        2.2515  -23.8242  -43.6645 H         1 UNK         0.0600 
    149 H149        0.6255  -20.6370  -43.5912 H         1 UNK         0.3000 
    150 H150       -2.6660  -19.3031  -44.1687 H         1 UNK         0.0600 
    151 H151       -2.3686  -19.4640  -41.7086 H         1 UNK         0.0600 
    152 H152       -1.8867  -17.8749  -42.2846 H         1 UNK         0.0600 
    153 H153       -0.6624  -19.0700  -41.8605 H         1 UNK         0.0600 
    154 H154       -0.1277  -18.0312  -44.1046 H         1 UNK         0.3000 
    155 H155        0.6671  -18.3566  -47.5752 H         1 UNK         0.0600 
    156 H156       -0.9135  -16.4223  -47.2367 H         1 UNK         0.0600 
    157 H157        0.7673  -15.9159  -47.3004 H         1 UNK         0.0600 
    158 H158       -0.0724  -16.0012  -45.7527 H         1 UNK         0.0600 
    159 H159        2.0524  -17.1577  -45.3898 H         1 UNK         0.3000 
    160 H160        3.9846  -20.0339  -44.4489 H         1 UNK         0.0600 
    161 H161        4.6835  -17.3485  -45.7485 H         1 UNK         0.0600 
    162 H162        5.0601  -18.9216  -46.4398 H         1 UNK         0.0600 
    163 H163        5.7915  -18.4374  -44.9172 H         1 UNK         0.0600 
    164 H164        3.9487  -17.3947  -43.4046 H         1 UNK         0.3000 
    165 H165        1.3021  -17.6876  -41.1017 H         1 UNK         0.0600 
    166 H166        3.0268  -17.3839  -39.3441 H         1 UNK         0.0600 
    167 H167        3.0158  -19.0501  -39.8983 H         1 UNK         0.0600 
    168 H168        4.2848  -17.9584  -40.4400 H         1 UNK         0.0600 
    169 H169        3.4259  -15.8063  -41.3092 H         1 UNK         0.3000 
    170 H170        3.0205  -13.7549  -42.0664 H         1 UNK         0.0600 
    171 H171        2.9287  -14.5291  -45.0203 H         1 UNK         0.0600 
    172 H172        3.8464  -13.1795  -44.3499 H         1 UNK         0.0600 
    173 H173        4.2720  -14.8307  -43.9269 H         1 UNK         0.0600 
    174 H174        1.3249  -12.8144  -44.1786 H         1 UNK         0.3000 
    175 H175       -1.1974  -11.5149  -41.9650 H         1 UNK         0.0600 
    176 H176        1.0593  -10.1326  -43.5065 H         1 UNK         0.0600 
    177 H177       -0.4326   -9.3805  -42.9400 H         1 UNK         0.0600 
    178 H178        0.7535   -9.9600  -41.7819 H         1 UNK         0.0600 
    179 H179       -0.8227  -11.1255  -44.7466 H         1 UNK         0.3000 
    180 H180       -2.5926  -13.6486  -46.1047 H         1 UNK         0.0600 
    181 H181       -4.3628  -11.4694  -44.9055 H         1 UNK         0.0600 
    182 H182       -4.6348  -13.2047  -44.8113 H         1 UNK         0.0600 
    183 H183       -4.7179  -12.3923  -46.3651 H         1 UNK         0.0600 
    184 H184       -2.5995  -10.7087  -46.3717 H         1 UNK         0.3000 
    185 H185       -0.5206  -13.6764  -46.7774 H         1 UNK         0.0600 
    186 H186       -1.1909  -13.1810  -49.7343 H         1 UNK         0.0600 
    187 H187       -0.7287  -14.7295  -49.0318 H         1 UNK         0.0600 
    188 H188       -2.2410  -13.9699  -48.5645 H         1 UNK         0.0600 
    189 H189        1.1605  -13.0640  -48.9818 H         1 UNK         0.3000 
    190 H190       -1.8829  -21.3719  -46.8931 H         1 UNK         0.3000 
    191 H191       -4.0787  -22.2817  -48.4224 H         1 UNK         0.0600 
    192 H192       -4.0098  -20.0567  -47.3735 H         1 UNK         0.0600 
    193 H193       -4.0435  -20.7749  -45.7656 H         1 UNK         0.0600 
    194 H194       -5.4321  -20.9353  -46.8336 H         1 UNK         0.0600 
    195 H195       -3.0401  -23.1574  -45.0889 H         1 UNK         0.3000 
    196 H196       -5.1698  -24.9842  -44.5752 H         1 UNK         0.0600 
    197 H197       -3.8018  -23.9739  -42.7787 H         1 UNK         0.0600 
    198 H198       -2.3616  -24.8039  -43.3622 H         1 UNK         0.0600 
    199 H199       -3.7028  -25.7265  -42.6934 H         1 UNK         0.0600 
    200 H200       -1.8785  -25.4757  -45.9132 H         1 UNK         0.3000 
    201 H201       -1.9718  -28.3069  -45.9195 H         1 UNK         0.0600 
    202 H202        0.1451  -27.0650  -45.9081 H         1 UNK         0.0600 
    203 H203       -0.2023  -26.3629  -47.4873 H         1 UNK         0.0600 
    204 H204        0.0898  -28.0916  -47.3314 H         1 UNK         0.0600 
    205 H205       -2.4741  -25.9786  -48.6518 H         1 UNK         0.3000 
    206 H206       -3.8805  -28.0576  -50.2156 H         1 UNK         0.0600 
    207 H207       -1.4500  -28.5291  -50.6171 H         1 UNK         0.0600 
    208 H208       -1.2059  -26.8585  -51.1225 H         1 UNK         0.0600 
    209 H209       -2.2244  -27.9366  -52.0718 H         1 UNK         0.0600 
    210 H210       -4.6189  -25.4322  -49.0739 H         1 UNK         0.3000 
    211 H211       -5.7558  -23.5743  -49.5826 H         1 UNK         0.0600 
    212 H212       -6.4157  -24.9933  -52.2097 H         1 UNK         0.0600 
    213 H213       -7.3198  -23.6747  -51.4770 H         1 UNK         0.0600 
    214 H214       -7.2522  -25.2351  -50.6785 H         1 UNK         0.0600 
    215 H215       -2.9057  -23.5826  -50.2829 H         1 UNK         0.3000 
    216 H216       -1.2977  -22.5026  -51.3562 H         1 UNK         0.0600 
    217 H217       -1.6672  -20.0837  -51.8824 H         1 UNK         0.0600 
    218 H218       -2.3483  -20.5110  -50.3201 H         1 UNK         0.0600 
    219 H219       -3.3992  -20.3002  -51.7182 H         1 UNK         0.0600 
    220 H220       -2.5396  -24.4449  -52.8639 H         1 UNK         0.3000 
    221 H221       -2.6708  -25.3649  -54.8582 H         1 UNK         0.0600 
    222 H222       -1.1375  -22.9809  -56.0256 H         1 UNK         0.0600 
    223 H223       -0.3964  -24.4140  -55.3142 H         1 UNK         0.0600 
    224 H224       -1.3635  -24.5539  -56.7733 H         1 UNK         0.0600 
    225 H225       -4.7811  -24.0508  -53.8594 H         1 UNK         0.3000 
    226 H226       -6.8640  -23.5069  -54.2196 H         1 UNK         0.0600 
    227 H227       -6.8221  -25.1267  -56.1348 H         1 UNK         0.0600 
    228 H228       -7.9707  -23.8225  -56.3772 H         1 UNK         0.0600 
    229 H229       -6.4386  -23.8019  -57.2346 H         1 UNK         0.0600 
    230 H230       -4.5277  -21.4330  -54.5428 H         1 UNK         0.3000 
    231 H231       -5.8914  -19.1565  -55.7650 H         1 UNK         0.0600 
    232 H232       -3.9509  -17.8834  -54.9717 H         1 UNK         0.0600 
    233 H233       -3.3842  -19.3680  -55.7233 H         1 UNK         0.0600 
    234 H234       -3.4141  -19.2192  -53.9665 H         1 UNK         0.0600 
    235 H235       -5.6762  -20.6367  -52.5857 H         1 UNK         0.3000 
    236 H236       -6.4413  -20.2312  -50.5621 H         1 UNK         0.0600 
    237 H237       -8.7570  -18.8827  -52.0466 H         1 UNK         0.0600 
    238 H238       -8.5774  -20.6161  -51.7804 H         1 UNK         0.0600 
    239 H239       -8.8148  -19.5383  -50.4145 H         1 UNK         0.0600 
    240 H240       -4.4256  -18.5141  -51.0076 H         1 UNK         0.3000 
    241 H241       -5.0835  -15.7797  -50.6417 H         1 UNK         0.0600 
    242 H242       -4.8503  -14.9658  -47.1979 H         1 UNK         0.3800 
    243 H243       -4.7771  -14.3189  -48.8132 H         1 UNK         0.3800 
    244 H244       -3.0259  -16.5107  -51.7747 H         1 UNK         0.0800 
    245 H245       -2.7337  -15.3399  -50.5332 H         1 UNK         0.0800 
    246 H246       -0.2771  -15.9949  -51.1520 H         1 UNK         0.0800 
    247 H247       -0.5562  -17.4722  -52.0398 H         1 UNK         0.0800 
@<TRIPOS>BOND
     1    1    2 1    
     2    1  127 1    
     3    1  128 1    
     4    1  129 1    
     5    2    3 2    
     6    2    4 am   BACKBONE|DICT|INTERRES
     7    4    5 1    
     8    4  130 1    
     9    5    6 1    
    10    5   65 1    
    11    5  131 1    
    12    6    7 1    
    13    6  132 1    
    14    6  133 1    
    15    7    8 1    
    16    8    9 1    
    17    8  134 1    
    18    8  135 1    
    19    9   10 ar   
    20    9   14 ar   
    21   10   11 ar   
    22   10  136 1    
    23   11   12 ar   
    24   11  126 1    
    25   12   13 ar   
    26   12  137 1    
    27   13   14 ar   
    28   13   15 1    
    29   14  138 1    
    30   15   16 1    
    31   15  139 1    
    32   15  140 1    
    33   16   17 1    
    34   17   18 1    
    35   17  141 1    
    36   17  142 1    
    37   18   19 1    
    38   18   67 1    
    39   18  143 1    
    40   19   20 am   BACKBONE|DICT|INTERRES
    41   19  144 1    
    42   20   21 2    
    43   20   22 1    
    44   22   23 1    
    45   22   24 1    
    46   22  145 1    
    47   23  146 1    
    48   23  147 1    
    49   23  148 1    
    50   24   25 am   BACKBONE|DICT|INTERRES
    51   24  149 1    
    52   25   26 2    
    53   25   27 1    
    54   27   28 1    
    55   27   29 1    
    56   27  150 1    
    57   28  151 1    
    58   28  152 1    
    59   28  153 1    
    60   29   30 am   BACKBONE|DICT|INTERRES
    61   29  154 1    
    62   30   31 2    
    63   30   32 1    
    64   32   33 1    
    65   32   34 1    
    66   32  155 1    
    67   33  156 1    
    68   33  157 1    
    69   33  158 1    
    70   34   35 am   BACKBONE|DICT|INTERRES
    71   34  159 1    
    72   35   36 2    
    73   35   37 1    
    74   37   38 1    
    75   37   39 1    
    76   37  160 1    
    77   38  161 1    
    78   38  162 1    
    79   38  163 1    
    80   39   40 am   BACKBONE|DICT|INTERRES
    81   39  164 1    
    82   40   41 2    
    83   40   42 1    
    84   42   43 1    
    85   42   44 1    
    86   42  165 1    
    87   43  166 1    
    88   43  167 1    
    89   43  168 1    
    90   44   45 am   BACKBONE|DICT|INTERRES
    91   44  169 1    
    92   45   46 2    
    93   45   47 1    
    94   47   48 1    
    95   47   49 1    
    96   47  170 1    
    97   48  171 1    
    98   48  172 1    
    99   48  173 1    
   100   49   50 am   BACKBONE|DICT|INTERRES
   101   49  174 1    
   102   50   51 2    
   103   50   52 1    
   104   52   53 1    
   105   52   54 1    
   106   52  175 1    
   107   53  176 1    
   108   53  177 1    
   109   53  178 1    
   110   54   55 am   BACKBONE|DICT|INTERRES
   111   54  179 1    
   112   55   56 2    
   113   55   57 1    
   114   57   58 1    
   115   57   59 1    
   116   57  180 1    
   117   58  181 1    
   118   58  182 1    
   119   58  183 1    
   120   59   60 am   BACKBONE|DICT|INTERRES
   121   59  184 1    
   122   60   61 2    
   123   60   62 1    
   124   62   63 1    
   125   62   64 1    
   126   62  185 1    
   127   63  186 1    
   128   63  187 1    
   129   63  188 1    
   130   64   65 am   BACKBONE|DICT|INTERRES
   131   64  189 1    
   132   65   66 2    
   133   67   68 2    
   134   67   69 am   BACKBONE|DICT|INTERRES
   135   69   70 1    
   136   69  190 1    
   137   70   71 1    
   138   70   72 1    
   139   70  191 1    
   140   71  192 1    
   141   71  193 1    
   142   71  194 1    
   143   72   73 2    
   144   72   74 am   BACKBONE|DICT|INTERRES
   145   74   75 1    
   146   74  195 1    
   147   75   76 1    
   148   75   77 1    
   149   75  196 1    
   150   76  197 1    
   151   76  198 1    
   152   76  199 1    
   153   77   78 2    
   154   77   79 am   BACKBONE|DICT|INTERRES
   155   79   80 1    
   156   79  200 1    
   157   80   81 1    
   158   80   82 1    
   159   80  201 1    
   160   81  202 1    
   161   81  203 1    
   162   81  204 1    
   163   82   83 2    
   164   82   84 am   BACKBONE|DICT|INTERRES
   165   84   85 1    
   166   84  205 1    
   167   85   86 1    
   168   85   87 1    
   169   85  206 1    
   170   86  207 1    
   171   86  208 1    
   172   86  209 1    
   173   87   88 2    
   174   87   89 am   BACKBONE|DICT|INTERRES
   175   89   90 1    
   176   89  210 1    
   177   90   91 1    
   178   90   92 1    
   179   90  211 1    
   180   91  212 1    
   181   91  213 1    
   182   91  214 1    
   183   92   93 2    
   184   92   94 am   BACKBONE|DICT|INTERRES
   185   94   95 1    
   186   94  215 1    
   187   95   96 1    
   188   95   97 1    
   189   95  216 1    
   190   96  217 1    
   191   96  218 1    
   192   96  219 1    
   193   97   98 2    
   194   97   99 am   BACKBONE|DICT|INTERRES
   195   99  100 1    
   196   99  220 1    
   197  100  101 1    
   198  100  102 1    
   199  100  221 1    
   200  101  222 1    
   201  101  223 1    
   202  101  224 1    
   203  102  103 2    
   204  102  104 am   BACKBONE|DICT|INTERRES
   205  104  105 1    
   206  104  225 1    
   207  105  106 1    
   208  105  107 1    
   209  105  226 1    
   210  106  227 1    
   211  106  228 1    
   212  106  229 1    
   213  107  108 2    
   214  107  109 am   BACKBONE|DICT|INTERRES
   215  109  110 1    
   216  109  230 1    
   217  110  111 1    
   218  110  112 1    
   219  110  231 1    
   220  111  232 1    
   221  111  233 1    
   222  111  234 1    
   223  112  113 2    
   224  112  114 am   BACKBONE|DICT|INTERRES
   225  114  115 1    
   226  114  235 1    
   227  115  116 1    
   228  115  117 1    
   229  115  236 1    
   230  116  237 1    
   231  116  238 1    
   232  116  239 1    
   233  117  118 2    
   234  117  119 am   BACKBONE|DICT|INTERRES
   235  119  120 1    
   236  119  240 1    
   237  120  121 1    
   238  120  124 1    
   239  120  241 1    
   240  121  122 am   BACKBONE|DICT|INTERRES
   241  121  123 2    
   242  122  242 1    
   243  122  243 1    
   244  124  125 1    
   245  124  244 1    
   246  124  245 1    
   247  125  126 1    
   248  126  246 1    
   249  126  247 1    
@<TRIPOS>SUBSTRUCTURE
     1 UNK         1 GROUP             0       ****    0 ROOT    
