@<TRIPOS>MOLECULE
3R540
247   249    1
SMALL
USER_CHARGES


@<TRIPOS>ATOM
      1 CA          4.6062  -11.3942  -46.0702 C.3       0 UNK        -0.1800 
      2 C           4.6861  -12.7530  -46.7503 C.2       0 UNK         0.5000 
      3 O           5.6716  -13.0452  -47.4276 O.2       0 UNK        -0.5000 
      4 N           3.6502  -13.5819  -46.5727 N.am      1 UNK        -0.5000 
      5 CA          3.5720  -14.9482  -47.1076 C.3       1 UNK         0.1400 
      6 C6          2.1125  -15.4441  -47.2341 C.3       23 UNK        -0.0398 
      7 S7          1.1116  -14.3571  -48.3042 S.3       23 UNK        -0.2404 
      8 C8          1.4514  -15.0302  -49.9617 C.3       23 UNK        -0.0205 
      9 C9          0.7477  -16.3565  -50.2036 C.ar      23 UNK        -0.0193 
     10 C10        -0.6145  -16.3805  -50.5127 C.ar      23 UNK        -0.1150 
     11 C11        -1.2718  -17.5919  -50.7616 C.ar      23 UNK        -0.0193 
     12 C12        -0.5522  -18.7862  -50.6638 C.ar      23 UNK        -0.1150 
     13 C13         0.8097  -18.7773  -50.3484 C.ar      23 UNK        -0.0193 
     14 C14         1.4578  -17.5573  -50.1364 C.ar      23 UNK        -0.1150 
     15 C15         1.5714  -20.0901  -50.2182 C.3       23 UNK        -0.0205 
     16 S16         2.3499  -20.3058  -48.5807 S.3       23 UNK        -0.2404 
     17 C17         0.9584  -20.0141  -47.4351 C.3       23 UNK        -0.0398 
     18 CA          0.2998  -21.3071  -46.9058 C.3       11 UNK         0.1400 
     19 N          -0.5007  -21.0277  -45.7157 N.am      11 UNK        -0.5000 
     20 C          -1.0830  -21.9414  -44.9306 C.2       10 UNK         0.5000 
     21 O          -0.9668  -23.1561  -45.0851 O.2       10 UNK        -0.5000 
     22 CA         -1.9887  -21.3959  -43.8140 C.3       10 UNK         0.1400 
     23 CB         -1.1602  -20.9700  -42.5924 C.3       10 UNK        -0.1800 
     24 N          -2.7995  -20.2677  -44.2752 N.am      10 UNK        -0.5000 
     25 C          -3.8030  -20.3705  -45.1574 C.2       9 UNK         0.5000 
     26 O          -4.1731  -21.4363  -45.6499 O.2       9 UNK        -0.5000 
     27 CA         -4.4824  -19.0568  -45.5855 C.3       9 UNK         0.1400 
     28 CB         -5.5064  -18.6061  -44.5332 C.3       9 UNK        -0.1800 
     29 N          -3.5266  -17.9745  -45.8261 N.am      9 UNK        -0.5000 
     30 C          -2.6341  -17.9631  -46.8267 C.2       8 UNK         0.5000 
     31 O          -2.5209  -18.8673  -47.6512 O.2       8 UNK        -0.5000 
     32 CA         -1.6781  -16.7581  -46.8907 C.3       8 UNK         0.1400 
     33 CB         -2.3930  -15.5727  -47.5576 C.3       8 UNK        -0.1800 
     34 N          -1.1597  -16.3392  -45.5838 N.am      8 UNK        -0.5000 
     35 C          -0.5798  -17.1385  -44.6728 C.2       7 UNK         0.5000 
     36 O          -0.3793  -18.3379  -44.8578 O.2       7 UNK        -0.5000 
     37 CA         -0.1603  -16.5270  -43.3208 C.3       7 UNK         0.1400 
     38 CB          1.3601  -16.6192  -43.1367 C.3       7 UNK        -0.1800 
     39 N          -0.5784  -15.1381  -43.1387 N.am      7 UNK        -0.5000 
     40 C          -1.8397  -14.7304  -42.9334 C.2       6 UNK         0.5000 
     41 O          -2.7937  -15.5019  -42.8280 O.2       6 UNK        -0.5000 
     42 CA         -2.0838  -13.2079  -42.8701 C.3       6 UNK         0.1400 
     43 CB         -2.2787  -12.7573  -41.4144 C.3       6 UNK        -0.1800 
     44 N          -1.0102  -12.4096  -43.4698 N.am      6 UNK        -0.5000 
     45 C          -0.6446  -12.4339  -44.7605 C.2       5 UNK         0.5000 
     46 O          -1.2099  -13.1181  -45.6116 O.2       5 UNK        -0.5000 
     47 CA          0.5925  -11.5984  -45.1472 C.3       5 UNK         0.1400 
     48 CB          0.1702  -10.2455  -45.7372 C.3       5 UNK        -0.1800 
     49 N           1.4992  -11.3698  -44.0153 N.am      5 UNK        -0.5000 
     50 C           2.2445  -12.3197  -43.4366 C.2       4 UNK         0.5000 
     51 O           2.3275  -13.4749  -43.8668 O.2       4 UNK        -0.5000 
     52 CA          2.9904  -11.9172  -42.1565 C.3       4 UNK         0.1400 
     53 CB          2.0041  -11.6618  -41.0013 C.3       4 UNK        -0.1800 
     54 N           3.9050  -12.9901  -41.7868 N.am      4 UNK        -0.5000 
     55 C           5.0220  -12.8612  -41.0613 C.2       3 UNK         0.5000 
     56 O           5.4047  -11.7933  -40.5814 O.2       3 UNK        -0.5000 
     57 CA          5.8575  -14.1389  -40.8303 C.3       3 UNK         0.1400 
     58 CB          5.5691  -14.7223  -39.4383 C.3       3 UNK        -0.1800 
     59 N           5.6218  -15.1788  -41.8368 N.am      3 UNK        -0.5000 
     60 C           6.0091  -15.1004  -43.1164 C.2       2 UNK         0.5000 
     61 O           6.6613  -14.1599  -43.5722 O.2       2 UNK        -0.5000 
     62 CA          5.5476  -16.2152  -44.0663 C.3       2 UNK         0.1400 
     63 CB          4.9140  -17.4404  -43.3751 C.3       2 UNK        -0.1800 
     64 N           4.6000  -15.5965  -44.9825 N.am      2 UNK        -0.5000 
     65 C           4.4193  -15.9250  -46.2659 C.2       1 UNK         0.5000 
     66 O           4.9146  -16.9190  -46.7975 O.2       1 UNK        -0.5000 
     67 C          -0.5314  -22.0302  -47.9868 C.2       11 UNK         0.5000 
     68 O          -0.0848  -23.0508  -48.5083 O.2       11 UNK        -0.5000 
     69 N          -1.7441  -21.5273  -48.2630 N.am      12 UNK        -0.5000 
     70 CA         -2.7189  -22.1389  -49.1668 C.3       12 UNK         0.1400 
     71 CB         -3.9417  -21.2202  -49.3032 C.3       12 UNK        -0.1800 
     72 C          -3.1462  -23.5477  -48.7209 C.2       12 UNK         0.5000 
     73 O          -3.1936  -24.4542  -49.5523 O.2       12 UNK        -0.5000 
     74 N          -3.4132  -23.7163  -47.4171 N.am      13 UNK        -0.5000 
     75 CA         -3.7272  -25.0037  -46.7962 C.3       13 UNK         0.1400 
     76 CB         -4.1165  -24.7999  -45.3244 C.3       13 UNK        -0.1800 
     77 C          -2.5788  -26.0193  -46.9362 C.2       13 UNK         0.5000 
     78 O          -2.8179  -27.1435  -47.3812 O.2       13 UNK        -0.5000 
     79 N          -1.3540  -25.5844  -46.6036 N.am      14 UNK        -0.5000 
     80 CA         -0.1187  -26.3624  -46.7220 C.3       14 UNK         0.1400 
     81 CB          1.0469  -25.5729  -46.1080 C.3       14 UNK        -0.1800 
     82 C           0.2074  -26.7746  -48.1693 C.2       14 UNK         0.5000 
     83 O           0.6787  -27.8907  -48.3891 O.2       14 UNK        -0.5000 
     84 N          -0.1049  -25.9027  -49.1366 N.am      15 UNK        -0.5000 
     85 CA          0.0137  -26.1266  -50.5801 C.3       15 UNK         0.1400 
     86 CB          0.0824  -24.7595  -51.2856 C.3       15 UNK        -0.1800 
     87 C          -1.1006  -27.0328  -51.1579 C.2       15 UNK         0.5000 
     88 O          -1.5800  -26.7826  -52.2639 O.2       15 UNK        -0.5000 
     89 N          -1.4825  -28.0778  -50.4097 N.am      16 UNK        -0.5000 
     90 CA         -2.4909  -29.0928  -50.7289 C.3       16 UNK         0.1400 
     91 CB         -2.0126  -29.9831  -51.8953 C.3       16 UNK        -0.1800 
     92 C          -3.8991  -28.5019  -50.9523 C.2       16 UNK         0.5000 
     93 O          -4.5867  -28.8861  -51.9006 O.2       16 UNK        -0.5000 
     94 N          -4.3000  -27.5864  -50.0571 N.am      17 UNK        -0.5000 
     95 CA         -5.5919  -26.8909  -50.0291 C.3       17 UNK         0.1400 
     96 CB         -6.7341  -27.8711  -49.6898 C.3       17 UNK        -0.1800 
     97 C          -5.8627  -26.0571  -51.2990 C.2       17 UNK         0.5000 
     98 O          -6.9510  -26.1219  -51.8750 O.2       17 UNK        -0.5000 
     99 N          -4.8722  -25.2494  -51.6935 N.am      18 UNK        -0.5000 
    100 CA        -4.9243  -24.2970  -52.8039 C.3       18 UNK         0.1400 
    101 CB        -3.4880  -24.0438  -53.2935 C.3       18 UNK        -0.1800 
    102 C         -5.6486  -22.9976  -52.3892 C.2       18 UNK         0.5000 
    103 O         -5.0853  -21.9059  -52.4966 O.2       18 UNK        -0.5000 
    104 N         -6.8764  -23.1490  -51.8754 N.am      19 UNK        -0.5000 
    105 CA        -7.7195  -22.1014  -51.3025 C.3       19 UNK         0.1400 
    106 CB        -9.0381  -22.7280  -50.8221 C.3       19 UNK        -0.1800 
    107 C         -7.9752  -20.9435  -52.2837 C.2       19 UNK         0.5000 
    108 O         -8.6393  -21.1411  -53.3031 O.2       19 UNK        -0.5000 
    109 N         -7.4150  -19.7712  -51.9541 N.am      20 UNK        -0.5000 
    110 CA        -7.4716  -18.5109  -52.7032 C.3       20 UNK         0.1400 
    111 CB        -8.9176  -17.9759  -52.7678 C.3       20 UNK        -0.1800 
    112 C         -6.7978  -18.5577  -54.0930 C.2       20 UNK         0.5000 
    113 O         -7.0472  -17.6718  -54.9132 O.2       20 UNK        -0.5000 
    114 N         -5.9208  -19.5464  -54.3347 N.am      21 UNK        -0.5000 
    115 CA        -5.1905  -19.7199  -55.5980 C.3       21 UNK         0.1400 
    116 CB        -4.4508  -21.0638  -55.5774 C.3       21 UNK        -0.1800 
    117 C         -4.2080  -18.5728  -55.9081 C.2       21 UNK         0.5000 
    118 O         -3.8799  -18.3482  -57.0737 O.2       21 UNK        -0.5000 
    119 N         -3.7824  -17.8573  -54.8612 N.am      22 UNK        -0.5000 
    120 CA        -3.0146  -16.6089  -54.9341 C.3       22 UNK         0.1400 
    121 C         -3.8258  -15.3646  -55.4111 C.2       22 UNK         0.5000 
    122 N         -5.1452  -15.4309  -55.5567 N.am      22 UNK        -0.7600 
    123 O         -3.2402  -14.3170  -55.6717 O.2       22 UNK        -0.5000 
    124 C124       -2.2597  -16.3407  -53.6073 C.3       23 UNK        -0.0398 
    125 S125       -3.3448  -16.2406  -52.1336 S.3       23 UNK        -0.2404 
    126 C126       -2.7561  -17.6451  -51.1230 C.3       23 UNK        -0.0205 
    127 H127        3.5758  -11.0476  -45.9976 H         1 UNK         0.0600 
    128 H128        5.1684  -10.6509  -46.6357 H         1 UNK         0.0600 
    129 H129        5.0274  -11.4514  -45.0663 H         1 UNK         0.0600 
    130 H130        2.8870  -13.3079  -45.9685 H         1 UNK         0.3000 
    131 H131        4.0053  -14.9454  -48.1100 H         1 UNK         0.0600 
    132 H132        2.0752  -16.4650  -47.6161 H         1 UNK         0.0800 
    133 H133        1.6351  -15.4712  -46.2539 H         1 UNK         0.0800 
    134 H134        1.1146  -14.3072  -50.7060 H         1 UNK         0.0800 
    135 H135        2.5281  -15.1302  -50.1052 H         1 UNK         0.0800 
    136 H136       -1.1587  -15.4483  -50.5613 H         1 UNK         0.1150 
    137 H137       -1.0572  -19.7279  -50.8281 H         1 UNK         0.1150 
    138 H138        2.5120  -17.5476  -49.8972 H         1 UNK         0.1150 
    139 H139        0.9153  -20.9405  -50.4102 H         1 UNK         0.0800 
    140 H140        2.3472  -20.1252  -50.9839 H         1 UNK         0.0800 
    141 H141        0.2141  -19.3476  -47.8696 H         1 UNK         0.0800 
    142 H142        1.3808  -19.4579  -46.5971 H         1 UNK         0.0800 
    143 H143        1.0941  -21.9887  -46.5939 H         1 UNK         0.0600 
    144 H144       -0.6174  -20.0458  -45.4744 H         1 UNK         0.3000 
    145 H145       -2.6620  -22.1985  -43.5059 H         1 UNK         0.0600 
    146 H146       -1.8027  -20.6335  -41.7786 H         1 UNK         0.0600 
    147 H147       -0.5682  -21.8047  -42.2149 H         1 UNK         0.0600 
    148 H148       -0.4695  -20.1607  -42.8310 H         1 UNK         0.0600 
    149 H149       -2.5207  -19.3493  -43.9637 H         1 UNK         0.3000 
    150 H150       -5.0164  -19.2490  -46.5185 H         1 UNK         0.0600 
    151 H151       -6.2382  -19.3915  -44.3392 H         1 UNK         0.0600 
    152 H152       -6.0562  -17.7271  -44.8702 H         1 UNK         0.0600 
    153 H153       -5.0289  -18.3592  -43.5841 H         1 UNK         0.0600 
    154 H154       -3.5382  -17.1985  -45.1796 H         1 UNK         0.3000 
    155 H155       -0.8246  -17.0418  -47.5094 H         1 UNK         0.0600 
    156 H156       -1.7086  -14.7460  -47.7396 H         1 UNK         0.0600 
    157 H157       -3.2098  -15.1959  -46.9410 H         1 UNK         0.0600 
    158 H158       -2.8142  -15.8575  -48.5221 H         1 UNK         0.0600 
    159 H159       -1.2570  -15.3548  -45.3675 H         1 UNK         0.3000 
    160 H160       -0.6309  -17.1271  -42.5393 H         1 UNK         0.0600 
    161 H161        1.8944  -16.0857  -43.9218 H         1 UNK         0.0600 
    162 H162        1.6907  -17.6583  -43.1657 H         1 UNK         0.0600 
    163 H163        1.6703  -16.2059  -42.1769 H         1 UNK         0.0600 
    164 H164        0.1448  -14.4389  -43.2353 H         1 UNK         0.3000 
    165 H165       -3.0032  -13.0024  -43.4222 H         1 UNK         0.0600 
    166 H166       -1.3794  -12.9205  -40.8190 H         1 UNK         0.0600 
    167 H167       -2.5316  -11.6983  -41.3590 H         1 UNK         0.0600 
    168 H168       -3.0914  -13.3086  -40.9394 H         1 UNK         0.0600 
    169 H169       -0.4942  -11.8117  -42.8425 H         1 UNK         0.3000 
    170 H170        1.1304  -12.1514  -45.9194 H         1 UNK         0.0600 
    171 H171       -0.4855  -10.3836  -46.5981 H         1 UNK         0.0600 
    172 H172       -0.3673   -9.6374  -45.0086 H         1 UNK         0.0600 
    173 H173        1.0357   -9.6770  -46.0780 H         1 UNK         0.0600 
    174 H174        1.4953  -10.4398  -43.6203 H         1 UNK         0.3000 
    175 H175        3.5597  -11.0097  -42.3680 H         1 UNK         0.0600 
    176 H176        2.5299  -11.3852  -40.0873 H         1 UNK         0.0600 
    177 H177        1.3193  -10.8457  -41.2337 H         1 UNK         0.0600 
    178 H178        1.4036  -12.5462  -40.7839 H         1 UNK         0.0600 
    179 H179        3.6718  -13.8899  -42.1843 H         1 UNK         0.3000 
    180 H180        6.9111  -13.8544  -40.8706 H         1 UNK         0.0600 
    181 H181        4.5293  -15.0372  -39.3413 H         1 UNK         0.0600 
    182 H182        5.7629  -13.9852  -38.6578 H         1 UNK         0.0600 
    183 H183        6.2031  -15.5850  -39.2325 H         1 UNK         0.0600 
    184 H184        5.0909  -15.9845  -41.5389 H         1 UNK         0.3000 
    185 H185        6.4284  -16.5444  -44.6219 H         1 UNK         0.0600 
    186 H186        4.5939  -18.1808  -44.1085 H         1 UNK         0.0600 
    187 H187        5.6324  -17.9312  -42.7174 H         1 UNK         0.0600 
    188 H188        4.0445  -17.1732  -42.7771 H         1 UNK         0.0600 
    189 H189        4.1694  -14.7421  -44.6522 H         1 UNK         0.3000 
    190 H190       -2.0256  -20.6484  -47.8345 H         1 UNK         0.3000 
    191 H191       -2.2521  -22.2322  -50.1494 H         1 UNK         0.0600 
    192 H192       -3.6776  -20.2859  -49.7975 H         1 UNK         0.0600 
    193 H193       -4.7247  -21.6923  -49.8938 H         1 UNK         0.0600 
    194 H194       -4.3735  -20.9756  -48.3331 H         1 UNK         0.0600 
    195 H195       -3.4008  -22.9066  -46.8050 H         1 UNK         0.3000 
    196 H196       -4.5973  -25.4134  -47.3086 H         1 UNK         0.0600 
    197 H197       -4.3810  -25.7490  -44.8566 H         1 UNK         0.0600 
    198 H198       -4.9805  -24.1413  -45.2340 H         1 UNK         0.0600 
    199 H199       -3.3040  -24.3645  -44.7440 H         1 UNK         0.0600 
    200 H200       -1.2574  -24.6461  -46.2227 H         1 UNK         0.3000 
    201 H201       -0.2516  -27.2780  -46.1422 H         1 UNK         0.0600 
    202 H202        0.8633  -25.3536  -45.0560 H         1 UNK         0.0600 
    203 H203        1.2066  -24.6256  -46.6236 H         1 UNK         0.0600 
    204 H204        1.9770  -26.1397  -46.1647 H         1 UNK         0.0600 
    205 H205       -0.4491  -24.9884  -48.8597 H         1 UNK         0.3000 
    206 H206        0.9588  -26.6397  -50.7675 H         1 UNK         0.0600 
    207 H207        0.9061  -24.1580  -50.9007 H         1 UNK         0.0600 
    208 H208        0.2410  -24.8727  -52.3586 H         1 UNK         0.0600 
    209 H209       -0.8384  -24.1928  -51.1451 H         1 UNK         0.0600 
    210 H210       -1.0046  -28.1984  -49.5240 H         1 UNK         0.3000 
    211 H211       -2.5694  -29.7279  -49.8454 H         1 UNK         0.0600 
    212 H212       -1.9505  -29.4270  -52.8312 H         1 UNK         0.0600 
    213 H213       -2.6961  -30.8176  -52.0558 H         1 UNK         0.0600 
    214 H214       -1.0291  -30.4061  -51.6907 H         1 UNK         0.0600 
    215 H215       -3.6525  -27.3366  -49.3169 H         1 UNK         0.3000 
    216 H216       -5.5347  -26.1709  -49.2144 H         1 UNK         0.0600 
    217 H217       -6.5272  -28.4118  -48.7663 H         1 UNK         0.0600 
    218 H218       -6.8893  -28.6050  -50.4811 H         1 UNK         0.0600 
    219 H219       -7.6758  -27.3392  -49.5491 H         1 UNK         0.0600 
    220 H220       -4.0504  -25.1887  -51.0977 H         1 UNK         0.3000 
    221 H221       -5.4877  -24.7381  -53.6284 H         1 UNK         0.0600 
    222 H222       -2.8707  -23.5941  -52.5150 H         1 UNK         0.0600 
    223 H223       -3.0110  -24.9726  -53.6049 H         1 UNK         0.0600 
    224 H224       -3.4753  -23.3773  -54.1545 H         1 UNK         0.0600 
    225 H225       -7.2510  -24.0908  -51.8524 H         1 UNK         0.3000 
    226 H226       -7.1999  -21.7106  -50.4254 H         1 UNK         0.0600 
    227 H227       -8.8597  -23.4895  -50.0626 H         1 UNK         0.0600 
    228 H228       -9.6905  -21.9740  -50.3797 H         1 UNK         0.0600 
    229 H229       -9.5844  -23.1951  -51.6426 H         1 UNK         0.0600 
    230 H230       -6.8571  -19.7386  -51.1123 H         1 UNK         0.3000 
    231 H231       -6.8878  -17.7954  -52.1223 H         1 UNK         0.0600 
    232 H232       -8.9443  -16.9644  -53.1747 H         1 UNK         0.0600 
    233 H233       -9.3682  -17.9351  -51.7762 H         1 UNK         0.0600 
    234 H234       -9.5522  -18.5973  -53.4001 H         1 UNK         0.0600 
    235 H235       -5.7497  -20.2408  -53.6147 H         1 UNK         0.3000 
    236 H236       -5.9251  -19.7476  -56.4054 H         1 UNK         0.0600 
    237 H237       -3.9388  -21.2448  -56.5233 H         1 UNK         0.0600 
    238 H238       -3.6997  -21.0895  -54.7871 H         1 UNK         0.0600 
    239 H239       -5.1413  -21.8920  -55.4181 H         1 UNK         0.0600 
    240 H240       -4.1158  -18.1124  -53.9440 H         1 UNK         0.3000 
    241 H241       -2.2508  -16.7544  -55.7004 H         1 UNK         0.0600 
    242 H242       -5.6448  -14.6151  -55.8730 H         1 UNK         0.3800 
    243 H243       -5.6610  -16.2796  -55.3517 H         1 UNK         0.3800 
    244 H244       -1.5206  -17.1288  -53.4601 H         1 UNK         0.0800 
    245 H245       -1.6821  -15.4170  -53.6717 H         1 UNK         0.0800 
    246 H246       -3.3349  -17.6806  -50.1994 H         1 UNK         0.0800 
    247 H247       -2.9784  -18.5681  -51.6610 H         1 UNK         0.0800 
@<TRIPOS>BOND
     1    1    2 1    
     2    1  127 1    
     3    1  128 1    
     4    1  129 1    
     5    2    3 2    
     6    2    4 am   BACKBONE|DICT|INTERRES
     7    4    5 1    
     8    4  130 1    
     9    5    6 1    
    10    5   65 1    
    11    5  131 1    
    12    6    7 1    
    13    6  132 1    
    14    6  133 1    
    15    7    8 1    
    16    8    9 1    
    17    8  134 1    
    18    8  135 1    
    19    9   10 ar   
    20    9   14 ar   
    21   10   11 ar   
    22   10  136 1    
    23   11   12 ar   
    24   11  126 1    
    25   12   13 ar   
    26   12  137 1    
    27   13   14 ar   
    28   13   15 1    
    29   14  138 1    
    30   15   16 1    
    31   15  139 1    
    32   15  140 1    
    33   16   17 1    
    34   17   18 1    
    35   17  141 1    
    36   17  142 1    
    37   18   19 1    
    38   18   67 1    
    39   18  143 1    
    40   19   20 am   BACKBONE|DICT|INTERRES
    41   19  144 1    
    42   20   21 2    
    43   20   22 1    
    44   22   23 1    
    45   22   24 1    
    46   22  145 1    
    47   23  146 1    
    48   23  147 1    
    49   23  148 1    
    50   24   25 am   BACKBONE|DICT|INTERRES
    51   24  149 1    
    52   25   26 2    
    53   25   27 1    
    54   27   28 1    
    55   27   29 1    
    56   27  150 1    
    57   28  151 1    
    58   28  152 1    
    59   28  153 1    
    60   29   30 am   BACKBONE|DICT|INTERRES
    61   29  154 1    
    62   30   31 2    
    63   30   32 1    
    64   32   33 1    
    65   32   34 1    
    66   32  155 1    
    67   33  156 1    
    68   33  157 1    
    69   33  158 1    
    70   34   35 am   BACKBONE|DICT|INTERRES
    71   34  159 1    
    72   35   36 2    
    73   35   37 1    
    74   37   38 1    
    75   37   39 1    
    76   37  160 1    
    77   38  161 1    
    78   38  162 1    
    79   38  163 1    
    80   39   40 am   BACKBONE|DICT|INTERRES
    81   39  164 1    
    82   40   41 2    
    83   40   42 1    
    84   42   43 1    
    85   42   44 1    
    86   42  165 1    
    87   43  166 1    
    88   43  167 1    
    89   43  168 1    
    90   44   45 am   BACKBONE|DICT|INTERRES
    91   44  169 1    
    92   45   46 2    
    93   45   47 1    
    94   47   48 1    
    95   47   49 1    
    96   47  170 1    
    97   48  171 1    
    98   48  172 1    
    99   48  173 1    
   100   49   50 am   BACKBONE|DICT|INTERRES
   101   49  174 1    
   102   50   51 2    
   103   50   52 1    
   104   52   53 1    
   105   52   54 1    
   106   52  175 1    
   107   53  176 1    
   108   53  177 1    
   109   53  178 1    
   110   54   55 am   BACKBONE|DICT|INTERRES
   111   54  179 1    
   112   55   56 2    
   113   55   57 1    
   114   57   58 1    
   115   57   59 1    
   116   57  180 1    
   117   58  181 1    
   118   58  182 1    
   119   58  183 1    
   120   59   60 am   BACKBONE|DICT|INTERRES
   121   59  184 1    
   122   60   61 2    
   123   60   62 1    
   124   62   63 1    
   125   62   64 1    
   126   62  185 1    
   127   63  186 1    
   128   63  187 1    
   129   63  188 1    
   130   64   65 am   BACKBONE|DICT|INTERRES
   131   64  189 1    
   132   65   66 2    
   133   67   68 2    
   134   67   69 am   BACKBONE|DICT|INTERRES
   135   69   70 1    
   136   69  190 1    
   137   70   71 1    
   138   70   72 1    
   139   70  191 1    
   140   71  192 1    
   141   71  193 1    
   142   71  194 1    
   143   72   73 2    
   144   72   74 am   BACKBONE|DICT|INTERRES
   145   74   75 1    
   146   74  195 1    
   147   75   76 1    
   148   75   77 1    
   149   75  196 1    
   150   76  197 1    
   151   76  198 1    
   152   76  199 1    
   153   77   78 2    
   154   77   79 am   BACKBONE|DICT|INTERRES
   155   79   80 1    
   156   79  200 1    
   157   80   81 1    
   158   80   82 1    
   159   80  201 1    
   160   81  202 1    
   161   81  203 1    
   162   81  204 1    
   163   82   83 2    
   164   82   84 am   BACKBONE|DICT|INTERRES
   165   84   85 1    
   166   84  205 1    
   167   85   86 1    
   168   85   87 1    
   169   85  206 1    
   170   86  207 1    
   171   86  208 1    
   172   86  209 1    
   173   87   88 2    
   174   87   89 am   BACKBONE|DICT|INTERRES
   175   89   90 1    
   176   89  210 1    
   177   90   91 1    
   178   90   92 1    
   179   90  211 1    
   180   91  212 1    
   181   91  213 1    
   182   91  214 1    
   183   92   93 2    
   184   92   94 am   BACKBONE|DICT|INTERRES
   185   94   95 1    
   186   94  215 1    
   187   95   96 1    
   188   95   97 1    
   189   95  216 1    
   190   96  217 1    
   191   96  218 1    
   192   96  219 1    
   193   97   98 2    
   194   97   99 am   BACKBONE|DICT|INTERRES
   195   99  100 1    
   196   99  220 1    
   197  100  101 1    
   198  100  102 1    
   199  100  221 1    
   200  101  222 1    
   201  101  223 1    
   202  101  224 1    
   203  102  103 2    
   204  102  104 am   BACKBONE|DICT|INTERRES
   205  104  105 1    
   206  104  225 1    
   207  105  106 1    
   208  105  107 1    
   209  105  226 1    
   210  106  227 1    
   211  106  228 1    
   212  106  229 1    
   213  107  108 2    
   214  107  109 am   BACKBONE|DICT|INTERRES
   215  109  110 1    
   216  109  230 1    
   217  110  111 1    
   218  110  112 1    
   219  110  231 1    
   220  111  232 1    
   221  111  233 1    
   222  111  234 1    
   223  112  113 2    
   224  112  114 am   BACKBONE|DICT|INTERRES
   225  114  115 1    
   226  114  235 1    
   227  115  116 1    
   228  115  117 1    
   229  115  236 1    
   230  116  237 1    
   231  116  238 1    
   232  116  239 1    
   233  117  118 2    
   234  117  119 am   BACKBONE|DICT|INTERRES
   235  119  120 1    
   236  119  240 1    
   237  120  121 1    
   238  120  124 1    
   239  120  241 1    
   240  121  122 am   BACKBONE|DICT|INTERRES
   241  121  123 2    
   242  122  242 1    
   243  122  243 1    
   244  124  125 1    
   245  124  244 1    
   246  124  245 1    
   247  125  126 1    
   248  126  246 1    
   249  126  247 1    
@<TRIPOS>SUBSTRUCTURE
     1 UNK         1 GROUP             0       ****    0 ROOT    
