@<TRIPOS>MOLECULE
3R540
247   249    1
SMALL
USER_CHARGES


@<TRIPOS>ATOM
      1 CA          3.1534  -12.1058  -45.1603 C.3       0 UNK        -0.1800 
      2 C           3.3884  -12.4841  -46.6153 C.2       0 UNK         0.5000 
      3 O           4.2672  -11.9109  -47.2585 O.2       0 UNK        -0.5000 
      4 N           2.5922  -13.4289  -47.1337 N.am      1 UNK        -0.5000 
      5 CA          2.5769  -13.9115  -48.5239 C.3       1 UNK         0.1400 
      6 C6          3.9323  -14.5144  -49.0087 C.3       23 UNK        -0.0398 
      7 S7          4.6672  -15.8119  -47.9472 S.3       23 UNK        -0.2404 
      8 C8          3.3170  -17.0083  -47.7007 C.3       23 UNK        -0.0205 
      9 C9          3.0493  -17.8955  -48.9103 C.ar      23 UNK        -0.0193 
     10 C10         2.3930  -17.3854  -50.0324 C.ar      23 UNK        -0.1150 
     11 C11         2.1059  -18.2016  -51.1277 C.ar      23 UNK        -0.0193 
     12 C12         2.4789  -19.5475  -51.0965 C.ar      23 UNK        -0.1150 
     13 C13         3.1224  -20.0800  -49.9753 C.ar      23 UNK        -0.0193 
     14 C14         3.4108  -19.2470  -48.8884 C.ar      23 UNK        -0.1150 
     15 C15         3.5031  -21.5550  -49.9404 C.3       23 UNK        -0.0205 
     16 S16         2.0425  -22.6471  -49.9032 S.3       23 UNK        -0.2404 
     17 C17         1.2608  -22.1675  -48.3275 C.3       23 UNK        -0.0398 
     18 CA          0.8539  -23.3808  -47.4565 C.3       11 UNK         0.1400 
     19 N           0.8259  -23.0362  -46.0329 N.am      11 UNK        -0.5000 
     20 C           0.6058  -23.8956  -45.0282 C.2       10 UNK         0.5000 
     21 O           0.4762  -25.1096  -45.1794 O.2       10 UNK        -0.5000 
     22 CA          0.4438  -23.2832  -43.6259 C.3       10 UNK         0.1400 
     23 CB          1.8085  -23.0590  -42.9573 C.3       10 UNK        -0.1800 
     24 N          -0.3017  -22.0238  -43.6701 N.am      10 UNK        -0.5000 
     25 C          -1.6122  -21.9346  -43.9405 C.2       9 UNK         0.5000 
     26 O          -2.3397  -22.9127  -44.1121 O.2       9 UNK        -0.5000 
     27 CA         -2.1918  -20.5150  -44.0951 C.3       9 UNK         0.1400 
     28 CB         -2.5147  -19.9044  -42.7239 C.3       9 UNK        -0.1800 
     29 N          -1.2884  -19.6232  -44.8247 N.am      9 UNK        -0.5000 
     30 C          -0.9848  -19.7633  -46.1249 C.2       8 UNK         0.5000 
     31 O          -1.4956  -20.6123  -46.8517 O.2       8 UNK        -0.5000 
     32 CA          0.1083  -18.8453  -46.7056 C.3       8 UNK         0.1400 
     33 CB         -0.5328  -17.6366  -47.3988 C.3       8 UNK        -0.1800 
     34 N           1.0833  -18.4115  -45.6997 N.am      8 UNK        -0.5000 
     35 C           1.8844  -19.2559  -45.0279 C.2       7 UNK         0.5000 
     36 O           1.9402  -20.4595  -45.2792 O.2       7 UNK        -0.5000 
     37 CA          2.7162  -18.7075  -43.8486 C.3       7 UNK         0.1400 
     38 CB          4.2243  -18.7810  -44.1355 C.3       7 UNK        -0.1800 
     39 N           2.3699  -17.3475  -43.4329 N.am      7 UNK        -0.5000 
     40 C           1.1980  -16.9699  -42.9052 C.2       6 UNK         0.5000 
     41 O           0.2589  -17.7453  -42.7130 O.2       6 UNK        -0.5000 
     42 CA          1.0133  -15.4687  -42.5953 C.3       6 UNK         0.1400 
     43 CB          2.3042  -14.6306  -42.7306 C.3       6 UNK        -0.1800 
     44 N          -0.0603  -14.8950  -43.4122 N.am      6 UNK        -0.5000 
     45 C          -0.1498  -14.9153  -44.7508 C.2       5 UNK         0.5000 
     46 O           0.7363  -15.3334  -45.4991 O.2       5 UNK        -0.5000 
     47 CA         -1.4577  -14.3650  -45.3441 C.3       5 UNK         0.1400 
     48 CB         -2.6724  -15.2011  -44.9018 C.3       5 UNK        -0.1800 
     49 N          -1.6706  -12.9679  -44.9707 N.am      5 UNK        -0.5000 
     50 C          -0.9665  -11.9479  -45.4723 C.2       4 UNK         0.5000 
     51 O          -0.0752  -12.0785  -46.3145 O.2       4 UNK        -0.5000 
     52 CA         -1.3008  -10.5481  -44.9343 C.3       4 UNK         0.1400 
     53 CB         -0.2813  -10.1296  -43.8640 C.3       4 UNK        -0.1800 
     54 N          -1.2449   -9.6008  -46.0405 N.am      4 UNK        -0.5000 
     55 C          -2.2664   -9.3010  -46.8483 C.2       3 UNK         0.5000 
     56 O          -3.4350   -9.6173  -46.6217 O.2       3 UNK        -0.5000 
     57 CA         -1.9162   -8.5696  -48.1600 C.3       3 UNK         0.1400 
     58 CB         -1.3855   -7.1444  -47.9058 C.3       3 UNK        -0.1800 
     59 N          -1.0160   -9.3496  -49.0237 N.am      3 UNK        -0.5000 
     60 C           0.2556   -9.7049  -48.7927 C.2       2 UNK         0.5000 
     61 O           0.9163   -9.3293  -47.8203 O.2       2 UNK        -0.5000 
     62 CA          0.8981  -10.6579  -49.8057 C.3       2 UNK         0.1400 
     63 CB          1.9665   -9.9205  -50.6370 C.3       2 UNK        -0.1800 
     64 N           1.4785  -11.7592  -49.0467 N.am      2 UNK        -0.5000 
     65 C           2.0257  -12.8769  -49.5364 C.2       1 UNK         0.5000 
     66 O           2.0904  -13.1231  -50.7422 O.2       1 UNK        -0.5000 
     67 C          -0.4859  -23.9952  -47.9178 C.2       11 UNK         0.5000 
     68 O          -0.4846  -25.0555  -48.5416 O.2       11 UNK        -0.5000 
     69 N          -1.6038  -23.3538  -47.5458 N.am      12 UNK        -0.5000 
     70 CA         -2.9657  -23.8230  -47.8005 C.3       12 UNK         0.1400 
     71 CB         -3.9727  -22.7556  -47.3453 C.3       12 UNK        -0.1800 
     72 C          -3.2735  -25.1709  -47.1258 C.2       12 UNK         0.5000 
     73 O          -3.8780  -26.0408  -47.7529 O.2       12 UNK        -0.5000 
     74 N          -2.8253  -25.3365  -45.8732 N.am      13 UNK        -0.5000 
     75 CA         -2.9473  -26.5820  -45.1143 C.3       13 UNK         0.1400 
     76 CB         -2.5241  -26.3458  -43.6568 C.3       13 UNK        -0.1800 
     77 C          -2.1496  -27.7411  -45.7416 C.2       13 UNK         0.5000 
     78 O          -2.6619  -28.8586  -45.8089 O.2       13 UNK        -0.5000 
     79 N          -0.9310  -27.4492  -46.2181 N.am      14 UNK        -0.5000 
     80 CA         -0.0666  -28.3925  -46.9290 C.3       14 UNK         0.1400 
     81 CB          1.3466  -27.8019  -47.0503 C.3       14 UNK        -0.1800 
     82 C          -0.6205  -28.7811  -48.3130 C.2       14 UNK         0.5000 
     83 O          -0.5695  -29.9562  -48.6785 O.2       14 UNK        -0.5000 
     84 N          -1.1541  -27.7956  -49.0484 N.am      15 UNK        -0.5000 
     85 CA         -1.7956  -27.9774  -50.3529 C.3       15 UNK         0.1400 
     86 CB         -1.9674  -26.6042  -51.0220 C.3       15 UNK        -0.1800 
     87 C          -3.1566  -28.6955  -50.2716 C.2       15 UNK         0.5000 
     88 O          -3.5702  -29.3122  -51.2541 O.2       15 UNK        -0.5000 
     89 N          -3.8246  -28.5816  -49.1146 N.am      16 UNK        -0.5000 
     90 CA         -5.1821  -29.0413  -48.8094 C.3       16 UNK         0.1400 
     91 CB         -5.2829  -30.5793  -48.8802 C.3       16 UNK        -0.1800 
     92 C          -6.2487  -28.3130  -49.6556 C.2       16 UNK         0.5000 
     93 O          -7.2419  -28.9188  -50.0630 O.2       16 UNK        -0.5000 
     94 N          -6.0203  -27.0183  -49.9018 N.am      17 UNK        -0.5000 
     95 CA         -6.8762  -26.1244  -50.6734 C.3       17 UNK         0.1400 
     96 CB         -6.6554  -26.3482  -52.1800 C.3       17 UNK        -0.1800 
     97 C          -6.5351  -24.6833  -50.2781 C.2       17 UNK         0.5000 
     98 O          -5.3769  -24.4025  -49.9672 O.2       17 UNK        -0.5000 
     99 N          -7.5377  -23.7968  -50.2926 N.am      18 UNK        -0.5000 
    100 CA        -7.4051  -22.3904  -49.9116 C.3       18 UNK         0.1400 
    101 CB        -8.7986  -21.7432  -49.8645 C.3       18 UNK        -0.1800 
    102 C         -6.4742  -21.6143  -50.8616 C.2       18 UNK         0.5000 
    103 O         -6.7662  -21.5096  -52.0551 O.2       18 UNK        -0.5000 
    104 N         -5.3903  -21.0554  -50.3113 N.am      19 UNK        -0.5000 
    105 CA        -4.4037  -20.2394  -51.0202 C.3       19 UNK         0.1400 
    106 CB        -3.0468  -20.3680  -50.3013 C.3       19 UNK        -0.1800 
    107 C         -4.8853  -18.7780  -51.1318 C.2       19 UNK         0.5000 
    108 O         -4.2116  -17.8627  -50.6592 O.2       19 UNK        -0.5000 
    109 N         -6.0674  -18.5836  -51.7325 N.am      20 UNK        -0.5000 
    110 CA        -6.7755  -17.3019  -51.8247 C.3       20 UNK         0.1400 
    111 CB        -8.1495  -17.5344  -52.4708 C.3       20 UNK        -0.1800 
    112 C         -5.9994  -16.2036  -52.5773 C.2       20 UNK         0.5000 
    113 O         -6.1065  -15.0291  -52.2225 O.2       20 UNK        -0.5000 
    114 N         -5.2011  -16.6089  -53.5740 N.am      21 UNK        -0.5000 
    115 CA        -4.3140  -15.7345  -54.3452 C.3       21 UNK         0.1400 
    116 CB        -3.8379  -16.4951  -55.5927 C.3       21 UNK        -0.1800 
    117 C         -3.1043  -15.2142  -53.5400 C.2       21 UNK         0.5000 
    118 O         -2.4966  -14.2213  -53.9423 O.2       21 UNK        -0.5000 
    119 N         -2.7738  -15.8887  -52.4326 N.am      22 UNK        -0.5000 
    120 CA        -1.6506  -15.5677  -51.5402 C.3       22 UNK         0.1400 
    121 C         -2.0299  -14.6024  -50.3778 C.2       22 UNK         0.5000 
    122 N         -3.2703  -14.1397  -50.2688 N.am      22 UNK        -0.7600 
    123 O         -1.1796  -14.2573  -49.5628 O.2       22 UNK        -0.5000 
    124 C124       -0.9833  -16.8563  -50.9985 C.3       23 UNK        -0.0398 
    125 S125       -0.3908  -17.9732  -52.3189 S.3       23 UNK        -0.2404 
    126 C126        1.3956  -17.6262  -52.3438 C.3       23 UNK        -0.0205 
    127 H127        3.9603  -12.4877  -44.5353 H         1 UNK         0.0600 
    128 H128        2.2091  -12.5046  -44.7902 H         1 UNK         0.0600 
    129 H129        3.1204  -11.0213  -45.0552 H         1 UNK         0.0600 
    130 H130        1.8798  -13.8428  -46.5416 H         1 UNK         0.3000 
    131 H131        1.8262  -14.6999  -48.5329 H         1 UNK         0.0600 
    132 H132        3.8368  -14.9304  -50.0119 H         1 UNK         0.0800 
    133 H133        4.6757  -13.7224  -49.1068 H         1 UNK         0.0800 
    134 H134        2.4086  -16.4989  -47.3874 H         1 UNK         0.0800 
    135 H135        3.5981  -17.6351  -46.8580 H         1 UNK         0.0800 
    136 H136        2.0913  -16.3510  -50.0575 H         1 UNK         0.1150 
    137 H137        2.2528  -20.1866  -51.9386 H         1 UNK         0.1150 
    138 H138        3.9045  -19.6551  -48.0175 H         1 UNK         0.1150 
    139 H139        4.1378  -21.7744  -49.0803 H         1 UNK         0.0800 
    140 H140        4.0962  -21.7896  -50.8253 H         1 UNK         0.0800 
    141 H141        0.4102  -21.5200  -48.5447 H         1 UNK         0.0800 
    142 H142        1.9710  -21.5509  -47.7764 H         1 UNK         0.0800 
    143 H143        1.6202  -24.1519  -47.5628 H         1 UNK         0.0600 
    144 H144        0.9940  -22.0631  -45.7968 H         1 UNK         0.3000 
    145 H145       -0.1186  -23.9918  -43.0142 H         1 UNK         0.0600 
    146 H146        1.6930  -22.6591  -41.9499 H         1 UNK         0.0600 
    147 H147        2.3565  -23.9983  -42.8728 H         1 UNK         0.0600 
    148 H148        2.4331  -22.3679  -43.5231 H         1 UNK         0.0600 
    149 H149        0.2357  -21.1741  -43.5850 H         1 UNK         0.3000 
    150 H150       -3.1227  -20.5942  -44.6607 H         1 UNK         0.0600 
    151 H151       -3.2119  -20.5348  -42.1705 H         1 UNK         0.0600 
    152 H152       -2.9763  -18.9223  -42.8289 H         1 UNK         0.0600 
    153 H153       -1.6191  -19.7885  -42.1122 H         1 UNK         0.0600 
    154 H154       -0.8135  -18.9122  -44.2811 H         1 UNK         0.3000 
    155 H155        0.6493  -19.4109  -47.4652 H         1 UNK         0.0600 
    156 H156       -1.0901  -17.0204  -46.6983 H         1 UNK         0.0600 
    157 H157        0.2092  -17.0061  -47.8854 H         1 UNK         0.0600 
    158 H158       -1.2345  -17.9642  -48.1658 H         1 UNK         0.0600 
    159 H159        1.0821  -17.4276  -45.4549 H         1 UNK         0.3000 
    160 H160        2.5108  -19.3692  -43.0045 H         1 UNK         0.0600 
    161 H161        4.5419  -18.0332  -44.8608 H         1 UNK         0.0600 
    162 H162        4.5082  -19.7605  -44.5232 H         1 UNK         0.0600 
    163 H163        4.8002  -18.6184  -43.2243 H         1 UNK         0.0600 
    164 H164        3.0708  -16.6380  -43.5900 H         1 UNK         0.3000 
    165 H165        0.6847  -15.4081  -41.5569 H         1 UNK         0.0600 
    166 H166        2.1179  -13.5879  -42.4732 H         1 UNK         0.0600 
    167 H167        3.0799  -14.9915  -42.0541 H         1 UNK         0.0600 
    168 H168        2.7082  -14.6535  -43.7429 H         1 UNK         0.0600 
    169 H169       -0.8493  -14.5372  -42.8939 H         1 UNK         0.3000 
    170 H170       -1.3809  -14.4299  -46.4324 H         1 UNK         0.0600 
    171 H171       -2.5162  -16.2646  -45.0826 H         1 UNK         0.0600 
    172 H172       -2.8847  -15.0837  -43.8387 H         1 UNK         0.0600 
    173 H173       -3.5668  -14.9085  -45.4521 H         1 UNK         0.0600 
    174 H174       -2.3849  -12.7833  -44.2816 H         1 UNK         0.3000 
    175 H175       -2.2986  -10.5510  -44.4905 H         1 UNK         0.0600 
    176 H176        0.7346  -10.1108  -44.2611 H         1 UNK         0.0600 
    177 H177       -0.5060   -9.1368  -43.4738 H         1 UNK         0.0600 
    178 H178       -0.2922  -10.8220  -43.0214 H         1 UNK         0.0600 
    179 H179       -0.3150   -9.3957  -46.3976 H         1 UNK         0.3000 
    180 H180       -2.8474   -8.4686  -48.7200 H         1 UNK         0.0600 
    181 H181       -0.4600   -7.1412  -47.3300 H         1 UNK         0.0600 
    182 H182       -2.1144   -6.5555  -47.3480 H         1 UNK         0.0600 
    183 H183       -1.1966   -6.6230  -48.8441 H         1 UNK         0.0600 
    184 H184       -1.4611   -9.7313  -49.8469 H         1 UNK         0.3000 
    185 H185        0.1306  -11.0602  -50.4698 H         1 UNK         0.0600 
    186 H186        1.5399   -9.0471  -51.1319 H         1 UNK         0.0600 
    187 H187        2.7908   -9.5744  -50.0121 H         1 UNK         0.0600 
    188 H188        2.3827  -10.5577  -51.4168 H         1 UNK         0.0600 
    189 H189        1.4057  -11.6602  -48.0392 H         1 UNK         0.3000 
    190 H190       -1.5216  -22.4514  -47.0839 H         1 UNK         0.3000 
    191 H191       -3.0645  -23.9557  -48.8788 H         1 UNK         0.0600 
    192 H192       -3.9040  -22.5656  -46.2744 H         1 UNK         0.0600 
    193 H193       -4.9949  -23.0704  -47.5559 H         1 UNK         0.0600 
    194 H194       -3.8065  -21.8108  -47.8593 H         1 UNK         0.0600 
    195 H195       -2.3815  -24.5545  -45.4044 H         1 UNK         0.3000 
    196 H196       -4.0013  -26.8675  -45.1160 H         1 UNK         0.0600 
    197 H197       -2.6549  -27.2506  -43.0621 H         1 UNK         0.0600 
    198 H198       -3.1241  -25.5621  -43.1940 H         1 UNK         0.0600 
    199 H199       -1.4771  -26.0534  -43.5815 H         1 UNK         0.0600 
    200 H200       -0.5610  -26.5143  -46.0719 H         1 UNK         0.3000 
    201 H201       -0.0005  -29.3035  -46.3305 H         1 UNK         0.0600 
    202 H202        1.7723  -27.5957  -46.0681 H         1 UNK         0.0600 
    203 H203        1.3480  -26.8696  -47.6158 H         1 UNK         0.0600 
    204 H204        2.0180  -28.4956  -47.5577 H         1 UNK         0.0600 
    205 H205       -1.0858  -26.8395  -48.7071 H         1 UNK         0.3000 
    206 H206       -1.1362  -28.5837  -50.9773 H         1 UNK         0.0600 
    207 H207       -1.0071  -26.1046  -51.1509 H         1 UNK         0.0600 
    208 H208       -2.4186  -26.7026  -52.0101 H         1 UNK         0.0600 
    209 H209       -2.6096  -25.9484  -50.4325 H         1 UNK         0.0600 
    210 H210       -3.4160  -27.9789  -48.4096 H         1 UNK         0.3000 
    211 H211       -5.3684  -28.7495  -47.7749 H         1 UNK         0.0600 
    212 H212       -5.1821  -30.9484  -49.9010 H         1 UNK         0.0600 
    213 H213       -6.2466  -30.9238  -48.5035 H         1 UNK         0.0600 
    214 H214       -4.5102  -31.0519  -48.2736 H         1 UNK         0.0600 
    215 H215       -5.2117  -26.5674  -49.4828 H         1 UNK         0.3000 
    216 H216       -7.9202  -26.3211  -50.4210 H         1 UNK         0.0600 
    217 H217       -7.2659  -25.6644  -52.7709 H         1 UNK         0.0600 
    218 H218       -6.9255  -27.3621  -52.4752 H         1 UNK         0.0600 
    219 H219       -5.6134  -26.1855  -52.4589 H         1 UNK         0.0600 
    220 H220       -8.4533  -24.0942  -50.5965 H         1 UNK         0.3000 
    221 H221       -6.9880  -22.3566  -48.9031 H         1 UNK         0.0600 
    222 H222       -9.2960  -21.7843  -50.8345 H         1 UNK         0.0600 
    223 H223       -9.4405  -22.2400  -49.1368 H         1 UNK         0.0600 
    224 H224       -8.7319  -20.6936  -49.5749 H         1 UNK         0.0600 
    225 H225       -5.2374  -21.1674  -49.3205 H         1 UNK         0.3000 
    226 H226       -4.2791  -20.6232  -52.0349 H         1 UNK         0.0600 
    227 H227       -2.7373  -21.4105  -50.2214 H         1 UNK         0.0600 
    228 H228       -2.2645  -19.8432  -50.8491 H         1 UNK         0.0600 
    229 H229       -3.0771  -19.9499  -49.2942 H         1 UNK         0.0600 
    230 H230       -6.5515  -19.4006  -52.0874 H         1 UNK         0.3000 
    231 H231       -6.9353  -16.9438  -50.8056 H         1 UNK         0.0600 
    232 H232       -8.7161  -16.6042  -52.5312 H         1 UNK         0.0600 
    233 H233       -8.7446  -18.2391  -51.8895 H         1 UNK         0.0600 
    234 H234       -8.0559  -17.9291  -53.4833 H         1 UNK         0.0600 
    235 H235       -5.1715  -17.5940  -53.7922 H         1 UNK         0.3000 
    236 H236       -4.8888  -14.8654  -54.6719 H         1 UNK         0.0600 
    237 H237       -4.6800  -16.8121  -56.2081 H         1 UNK         0.0600 
    238 H238       -3.2012  -15.8653  -56.2156 H         1 UNK         0.0600 
    239 H239       -3.2615  -17.3822  -55.3265 H         1 UNK         0.0600 
    240 H240       -3.3521  -16.6645  -52.1329 H         1 UNK         0.3000 
    241 H241       -0.8913  -15.0364  -52.1169 H         1 UNK         0.0600 
    242 H242       -3.9832  -14.4183  -50.9263 H         1 UNK         0.3800 
    243 H243       -3.4999  -13.5156  -49.5128 H         1 UNK         0.3800 
    244 H244       -0.1586  -16.6043  -50.3359 H         1 UNK         0.0800 
    245 H245       -1.6899  -17.4140  -50.3855 H         1 UNK         0.0800 
    246 H246        1.5575  -16.5492  -52.4138 H         1 UNK         0.0800 
    247 H247        1.8239  -18.0568  -53.2500 H         1 UNK         0.0800 
@<TRIPOS>BOND
     1    1    2 1    
     2    1  127 1    
     3    1  128 1    
     4    1  129 1    
     5    2    3 2    
     6    2    4 am   BACKBONE|DICT|INTERRES
     7    4    5 1    
     8    4  130 1    
     9    5    6 1    
    10    5   65 1    
    11    5  131 1    
    12    6    7 1    
    13    6  132 1    
    14    6  133 1    
    15    7    8 1    
    16    8    9 1    
    17    8  134 1    
    18    8  135 1    
    19    9   10 ar   
    20    9   14 ar   
    21   10   11 ar   
    22   10  136 1    
    23   11   12 ar   
    24   11  126 1    
    25   12   13 ar   
    26   12  137 1    
    27   13   14 ar   
    28   13   15 1    
    29   14  138 1    
    30   15   16 1    
    31   15  139 1    
    32   15  140 1    
    33   16   17 1    
    34   17   18 1    
    35   17  141 1    
    36   17  142 1    
    37   18   19 1    
    38   18   67 1    
    39   18  143 1    
    40   19   20 am   BACKBONE|DICT|INTERRES
    41   19  144 1    
    42   20   21 2    
    43   20   22 1    
    44   22   23 1    
    45   22   24 1    
    46   22  145 1    
    47   23  146 1    
    48   23  147 1    
    49   23  148 1    
    50   24   25 am   BACKBONE|DICT|INTERRES
    51   24  149 1    
    52   25   26 2    
    53   25   27 1    
    54   27   28 1    
    55   27   29 1    
    56   27  150 1    
    57   28  151 1    
    58   28  152 1    
    59   28  153 1    
    60   29   30 am   BACKBONE|DICT|INTERRES
    61   29  154 1    
    62   30   31 2    
    63   30   32 1    
    64   32   33 1    
    65   32   34 1    
    66   32  155 1    
    67   33  156 1    
    68   33  157 1    
    69   33  158 1    
    70   34   35 am   BACKBONE|DICT|INTERRES
    71   34  159 1    
    72   35   36 2    
    73   35   37 1    
    74   37   38 1    
    75   37   39 1    
    76   37  160 1    
    77   38  161 1    
    78   38  162 1    
    79   38  163 1    
    80   39   40 am   BACKBONE|DICT|INTERRES
    81   39  164 1    
    82   40   41 2    
    83   40   42 1    
    84   42   43 1    
    85   42   44 1    
    86   42  165 1    
    87   43  166 1    
    88   43  167 1    
    89   43  168 1    
    90   44   45 am   BACKBONE|DICT|INTERRES
    91   44  169 1    
    92   45   46 2    
    93   45   47 1    
    94   47   48 1    
    95   47   49 1    
    96   47  170 1    
    97   48  171 1    
    98   48  172 1    
    99   48  173 1    
   100   49   50 am   BACKBONE|DICT|INTERRES
   101   49  174 1    
   102   50   51 2    
   103   50   52 1    
   104   52   53 1    
   105   52   54 1    
   106   52  175 1    
   107   53  176 1    
   108   53  177 1    
   109   53  178 1    
   110   54   55 am   BACKBONE|DICT|INTERRES
   111   54  179 1    
   112   55   56 2    
   113   55   57 1    
   114   57   58 1    
   115   57   59 1    
   116   57  180 1    
   117   58  181 1    
   118   58  182 1    
   119   58  183 1    
   120   59   60 am   BACKBONE|DICT|INTERRES
   121   59  184 1    
   122   60   61 2    
   123   60   62 1    
   124   62   63 1    
   125   62   64 1    
   126   62  185 1    
   127   63  186 1    
   128   63  187 1    
   129   63  188 1    
   130   64   65 am   BACKBONE|DICT|INTERRES
   131   64  189 1    
   132   65   66 2    
   133   67   68 2    
   134   67   69 am   BACKBONE|DICT|INTERRES
   135   69   70 1    
   136   69  190 1    
   137   70   71 1    
   138   70   72 1    
   139   70  191 1    
   140   71  192 1    
   141   71  193 1    
   142   71  194 1    
   143   72   73 2    
   144   72   74 am   BACKBONE|DICT|INTERRES
   145   74   75 1    
   146   74  195 1    
   147   75   76 1    
   148   75   77 1    
   149   75  196 1    
   150   76  197 1    
   151   76  198 1    
   152   76  199 1    
   153   77   78 2    
   154   77   79 am   BACKBONE|DICT|INTERRES
   155   79   80 1    
   156   79  200 1    
   157   80   81 1    
   158   80   82 1    
   159   80  201 1    
   160   81  202 1    
   161   81  203 1    
   162   81  204 1    
   163   82   83 2    
   164   82   84 am   BACKBONE|DICT|INTERRES
   165   84   85 1    
   166   84  205 1    
   167   85   86 1    
   168   85   87 1    
   169   85  206 1    
   170   86  207 1    
   171   86  208 1    
   172   86  209 1    
   173   87   88 2    
   174   87   89 am   BACKBONE|DICT|INTERRES
   175   89   90 1    
   176   89  210 1    
   177   90   91 1    
   178   90   92 1    
   179   90  211 1    
   180   91  212 1    
   181   91  213 1    
   182   91  214 1    
   183   92   93 2    
   184   92   94 am   BACKBONE|DICT|INTERRES
   185   94   95 1    
   186   94  215 1    
   187   95   96 1    
   188   95   97 1    
   189   95  216 1    
   190   96  217 1    
   191   96  218 1    
   192   96  219 1    
   193   97   98 2    
   194   97   99 am   BACKBONE|DICT|INTERRES
   195   99  100 1    
   196   99  220 1    
   197  100  101 1    
   198  100  102 1    
   199  100  221 1    
   200  101  222 1    
   201  101  223 1    
   202  101  224 1    
   203  102  103 2    
   204  102  104 am   BACKBONE|DICT|INTERRES
   205  104  105 1    
   206  104  225 1    
   207  105  106 1    
   208  105  107 1    
   209  105  226 1    
   210  106  227 1    
   211  106  228 1    
   212  106  229 1    
   213  107  108 2    
   214  107  109 am   BACKBONE|DICT|INTERRES
   215  109  110 1    
   216  109  230 1    
   217  110  111 1    
   218  110  112 1    
   219  110  231 1    
   220  111  232 1    
   221  111  233 1    
   222  111  234 1    
   223  112  113 2    
   224  112  114 am   BACKBONE|DICT|INTERRES
   225  114  115 1    
   226  114  235 1    
   227  115  116 1    
   228  115  117 1    
   229  115  236 1    
   230  116  237 1    
   231  116  238 1    
   232  116  239 1    
   233  117  118 2    
   234  117  119 am   BACKBONE|DICT|INTERRES
   235  119  120 1    
   236  119  240 1    
   237  120  121 1    
   238  120  124 1    
   239  120  241 1    
   240  121  122 am   BACKBONE|DICT|INTERRES
   241  121  123 2    
   242  122  242 1    
   243  122  243 1    
   244  124  125 1    
   245  124  244 1    
   246  124  245 1    
   247  125  126 1    
   248  126  246 1    
   249  126  247 1    
@<TRIPOS>SUBSTRUCTURE
     1 UNK         1 GROUP             0       ****    0 ROOT    
