@<TRIPOS>MOLECULE
3R540
247   249    1
SMALL
USER_CHARGES


@<TRIPOS>ATOM
      1 CA         -2.8404  -13.4835  -48.2729 C.3       0 UNK        -0.1800 
      2 C          -1.5577  -12.6689  -48.1822 C.2       0 UNK         0.5000 
      3 O          -1.5559  -11.4842  -48.5176 O.2       0 UNK        -0.5000 
      4 N          -0.4674  -13.3018  -47.7352 N.am      1 UNK        -0.5000 
      5 CA          0.8447  -12.6841  -47.5357 C.3       1 UNK         0.1400 
      6 C6          1.9934  -13.7272  -47.4971 C.3       23 UNK        -0.0398 
      7 S7          2.0871  -14.7703  -48.9921 S.3       23 UNK        -0.2404 
      8 C8          1.2454  -16.2601  -48.3766 C.3       23 UNK        -0.0205 
      9 C9          1.1322  -17.3532  -49.4245 C.ar      23 UNK        -0.0193 
     10 C10         0.3037  -17.1804  -50.5369 C.ar      23 UNK        -0.1150 
     11 C11         0.1442  -18.2089  -51.4697 C.ar      23 UNK        -0.0193 
     12 C12         0.8065  -19.4251  -51.2720 C.ar      23 UNK        -0.1150 
     13 C13         1.6377  -19.6104  -50.1615 C.ar      23 UNK        -0.0193 
     14 C14         1.8078  -18.5632  -49.2506 C.ar      23 UNK        -0.1150 
     15 C15         2.3340  -20.9491  -49.9361 C.3       23 UNK        -0.0205 
     16 S16         1.9820  -21.6673  -48.2935 S.3       23 UNK        -0.2404 
     17 C17         0.1631  -21.5653  -48.2550 C.3       23 UNK        -0.0398 
     18 CA         -0.4850  -22.6205  -47.3351 C.3       11 UNK         0.1400 
     19 N          -0.1874  -22.3999  -45.9161 N.am      11 UNK        -0.5000 
     20 C          -0.4979  -23.2488  -44.9259 C.2       10 UNK         0.5000 
     21 O          -1.1144  -24.3013  -45.0979 O.2       10 UNK        -0.5000 
     22 CA         -0.0985  -22.8305  -43.5012 C.3       10 UNK         0.1400 
     23 CB          1.4250  -22.8831  -43.3100 C.3       10 UNK        -0.1800 
     24 N          -0.6020  -21.4996  -43.1657 N.am      10 UNK        -0.5000 
     25 C          -1.9006  -21.2061  -43.0068 C.2       9 UNK         0.5000 
     26 O          -2.8007  -22.0448  -43.0566 O.2       9 UNK        -0.5000 
     27 CA         -2.2630  -19.7273  -42.7751 C.3       9 UNK         0.1400 
     28 CB         -2.1549  -19.3711  -41.2850 C.3       9 UNK        -0.1800 
     29 N          -1.4448  -18.7996  -43.5571 N.am      9 UNK        -0.5000 
     30 C          -1.4188  -18.7426  -44.8965 C.2       8 UNK         0.5000 
     31 O          -2.0981  -19.4608  -45.6286 O.2       8 UNK        -0.5000 
     32 CA         -0.4162  -17.7571  -45.5239 C.3       8 UNK         0.1400 
     33 CB         -0.9195  -16.3082  -45.4105 C.3       8 UNK        -0.1800 
     34 N           0.9155  -17.8660  -44.9267 N.am      8 UNK        -0.5000 
     35 C           1.6556  -18.9847  -44.9200 C.2       7 UNK         0.5000 
     36 O           1.3150  -20.0357  -45.4578 O.2       7 UNK        -0.5000 
     37 CA          2.9666  -18.9414  -44.1224 C.3       7 UNK         0.1400 
     38 CB          4.0904  -18.3025  -44.9521 C.3       7 UNK        -0.1800 
     39 N           2.7942  -18.2251  -42.8582 N.am      7 UNK        -0.5000 
     40 C           2.0936  -18.7015  -41.8177 C.2       6 UNK         0.5000 
     41 O           1.5716  -19.8163  -41.7996 O.2       6 UNK        -0.5000 
     42 CA          1.9106  -17.7604  -40.6122 C.3       6 UNK         0.1400 
     43 CB          3.1238  -17.8393  -39.6738 C.3       6 UNK        -0.1800 
     44 N           1.6952  -16.3688  -41.0116 N.am      6 UNK        -0.5000 
     45 C           0.6099  -15.9277  -41.6634 C.2       5 UNK         0.5000 
     46 O          -0.3520  -16.6419  -41.9434 O.2       5 UNK        -0.5000 
     47 CA          0.6226  -14.4564  -42.1233 C.3       5 UNK         0.1400 
     48 CB          0.0009  -13.5479  -41.0531 C.3       5 UNK        -0.1800 
     49 N           1.9566  -13.9553  -42.4678 N.am      5 UNK        -0.5000 
     50 C           2.7333  -14.4600  -43.4354 C.2       4 UNK         0.5000 
     51 O           2.4212  -15.4382  -44.1176 O.2       4 UNK        -0.5000 
     52 CA          4.0636  -13.7337  -43.6754 C.3       4 UNK         0.1400 
     53 CB          4.9214  -14.3840  -44.7785 C.3       4 UNK        -0.1800 
     54 N           3.8047  -12.3331  -44.0042 N.am      4 UNK        -0.5000 
     55 C           4.6361  -11.3202  -43.7214 C.2       3 UNK         0.5000 
     56 O           5.6784  -11.4654  -43.0809 O.2       3 UNK        -0.5000 
     57 CA          4.2835   -9.9144  -44.2522 C.3       3 UNK         0.1400 
     58 CB          5.3491   -9.4361  -45.2527 C.3       3 UNK        -0.1800 
     59 N           2.9787   -9.8509  -44.9105 N.am      3 UNK        -0.5000 
     60 C           1.8151   -9.6049  -44.2955 C.2       2 UNK         0.5000 
     61 O           1.7103   -9.3836  -43.0889 O.2       2 UNK        -0.5000 
     62 CA          0.5517   -9.6339  -45.1809 C.3       2 UNK         0.1400 
     63 CB          0.2155   -8.2222  -45.6850 C.3       2 UNK        -0.1800 
     64 N           0.6501  -10.5434  -46.3300 N.am      2 UNK        -0.5000 
     65 C           0.8089  -11.8692  -46.2298 C.2       1 UNK         0.5000 
     66 O           0.9172  -12.4546  -45.1527 O.2       1 UNK        -0.5000 
     67 C          -1.9944  -22.7106  -47.6256 C.2       11 UNK         0.5000 
     68 O          -2.3758  -23.4310  -48.5485 O.2       11 UNK        -0.5000 
     69 N          -2.8356  -22.0216  -46.8404 N.am      12 UNK        -0.5000 
     70 CA         -4.2969  -22.0944  -46.9273 C.3       12 UNK         0.1400 
     71 CB         -4.9321  -21.1237  -45.9221 C.3       12 UNK        -0.1800 
     72 C          -4.8549  -23.5179  -46.7386 C.2       12 UNK         0.5000 
     73 O          -5.8667  -23.8488  -47.3566 O.2       12 UNK        -0.5000 
     74 N          -4.1641  -24.3337  -45.9315 N.am      13 UNK        -0.5000 
     75 CA         -4.4554  -25.7498  -45.7381 C.3       13 UNK         0.1400 
     76 CB         -4.2492  -26.1074  -44.2574 C.3       13 UNK        -0.1800 
     77 C          -3.5709  -26.6306  -46.6375 C.2       13 UNK         0.5000 
     78 O          -4.0909  -27.5197  -47.3115 O.2       13 UNK        -0.5000 
     79 N          -2.2522  -26.3884  -46.6170 N.am      14 UNK        -0.5000 
     80 CA         -1.2422  -27.2631  -47.2173 C.3       14 UNK         0.1400 
     81 CB          0.1371  -26.9169  -46.6346 C.3       14 UNK        -0.1800 
     82 C          -1.1971  -27.2216  -48.7543 C.2       14 UNK         0.5000 
     83 O          -0.9885  -28.2638  -49.3767 O.2       14 UNK        -0.5000 
     84 N          -1.3767  -26.0294  -49.3347 N.am      15 UNK        -0.5000 
     85 CA         -1.3239  -25.7884  -50.7798 C.3       15 UNK         0.1400 
     86 CB         -0.3539  -24.6236  -51.0459 C.3       15 UNK        -0.1800 
     87 C          -2.7125  -25.4719  -51.3643 C.2       15 UNK         0.5000 
     88 O          -2.8377  -25.3685  -52.5844 O.2       15 UNK        -0.5000 
     89 N          -3.7154  -25.3046  -50.4890 N.am      16 UNK        -0.5000 
     90 CA         -5.0698  -24.8218  -50.7648 C.3       16 UNK         0.1400 
     91 CB         -5.8351  -25.7739  -51.7077 C.3       16 UNK        -0.1800 
     92 C          -5.0776  -23.3563  -51.2460 C.2       16 UNK         0.5000 
     93 O          -5.8718  -22.9965  -52.1167 O.2       16 UNK        -0.5000 
     94 N          -4.2150  -22.5137  -50.6543 N.am      17 UNK        -0.5000 
     95 CA         -4.0618  -21.0927  -51.0021 C.3       17 UNK         0.1400 
     96 CB         -2.8099  -20.5141  -50.3290 C.3       17 UNK        -0.1800 
     97 C          -5.2961  -20.2106  -50.7269 C.2       17 UNK         0.5000 
     98 O          -5.3546  -19.0815  -51.2133 O.2       17 UNK        -0.5000 
     99 N          -6.2740  -20.7439  -49.9836 N.am      18 UNK        -0.5000 
    100 CA        -7.5996  -20.1537  -49.8116 C.3       18 UNK         0.1400 
    101 CB        -8.2966  -20.8499  -48.6325 C.3       18 UNK        -0.1800 
    102 C         -8.4677  -20.2464  -51.0858 C.2       18 UNK         0.5000 
    103 O         -9.4078  -19.4625  -51.2230 O.2       18 UNK        -0.5000 
    104 N         -8.1521  -21.1953  -51.9799 N.am      19 UNK        -0.5000 
    105 CA        -8.8746  -21.4538  -53.2243 C.3       19 UNK         0.1400 
    106 CB        -9.3775  -22.9067  -53.2131 C.3       19 UNK        -0.1800 
    107 C         -8.0018  -21.2037  -54.4663 C.2       19 UNK         0.5000 
    108 O         -8.5140  -20.6821  -55.4580 O.2       19 UNK        -0.5000 
    109 N         -6.7193  -21.5863  -54.4116 N.am      20 UNK        -0.5000 
    110 CA        -5.7900  -21.5345  -55.5377 C.3       20 UNK         0.1400 
    111 CB        -5.9495  -22.8094  -56.3956 C.3       20 UNK        -0.1800 
    112 C         -4.3588  -21.2792  -55.0317 C.2       20 UNK         0.5000 
    113 O         -4.1175  -20.2336  -54.4267 O.2       20 UNK        -0.5000 
    114 N         -3.4359  -22.2134  -55.3087 N.am      21 UNK        -0.5000 
    115 CA        -1.9870  -22.2023  -55.0570 C.3       21 UNK         0.1400 
    116 CB        -1.6585  -22.1047  -53.5549 C.3       21 UNK        -0.1800 
    117 C         -1.2371  -21.1267  -55.8660 C.2       21 UNK         0.5000 
    118 O         -0.3879  -21.4660  -56.6910 O.2       21 UNK        -0.5000 
    119 N         -1.5745  -19.8590  -55.6206 N.am      22 UNK        -0.5000 
    120 CA        -1.0828  -18.6859  -56.3498 C.3       22 UNK         0.1400 
    121 C         -1.9291  -18.4226  -57.6253 C.2       22 UNK         0.5000 
    122 N         -1.3327  -17.8476  -58.6607 N.am      22 UNK        -0.7600 
    123 O         -3.1255  -18.7016  -57.6792 O.2       22 UNK        -0.5000 
    124 C124       -1.0548  -17.4353  -55.4354 C.3       23 UNK        -0.0398 
    125 S125        0.2326  -17.5544  -54.1461 S.3       23 UNK        -0.2404 
    126 C126       -0.7491  -18.0087  -52.6845 C.3       23 UNK        -0.0205 
    127 H127       -3.6026  -13.0563  -47.6213 H         1 UNK         0.0600 
    128 H128       -2.6842  -14.5218  -47.9792 H         1 UNK         0.0600 
    129 H129       -3.2193  -13.4737  -49.2949 H         1 UNK         0.0600 
    130 H130       -0.5416  -14.2644  -47.4484 H         1 UNK         0.3000 
    131 H131        1.0426  -12.0049  -48.3680 H         1 UNK         0.0600 
    132 H132        1.9114  -14.3726  -46.6206 H         1 UNK         0.0800 
    133 H133        2.9521  -13.2156  -47.3987 H         1 UNK         0.0800 
    134 H134        1.7715  -16.6282  -47.4939 H         1 UNK         0.0800 
    135 H135        0.2389  -15.9973  -48.0559 H         1 UNK         0.0800 
    136 H136       -0.2178  -16.2434  -50.6737 H         1 UNK         0.1150 
    137 H137        0.6730  -20.2250  -51.9867 H         1 UNK         0.1150 
    138 H138        2.4396  -18.7080  -48.3852 H         1 UNK         0.1150 
    139 H139        2.0401  -21.6701  -50.7006 H         1 UNK         0.0800 
    140 H140        3.4109  -20.8110  -50.0393 H         1 UNK         0.0800 
    141 H141       -0.1816  -21.6967  -49.2805 H         1 UNK         0.0800 
    142 H142       -0.1303  -20.5575  -47.9538 H         1 UNK         0.0800 
    143 H143       -0.0656  -23.5929  -47.6005 H         1 UNK         0.0600 
    144 H144        0.3256  -21.5469  -45.6966 H         1 UNK         0.3000 
    145 H145       -0.5459  -23.5458  -42.8079 H         1 UNK         0.0600 
    146 H146        1.6995  -22.6550  -42.2800 H         1 UNK         0.0600 
    147 H147        1.8116  -23.8772  -43.5376 H         1 UNK         0.0600 
    148 H148        1.9425  -22.1747  -43.9566 H         1 UNK         0.0600 
    149 H149        0.0846  -20.7614  -43.0660 H         1 UNK         0.3000 
    150 H150       -3.3017  -19.5914  -43.0834 H         1 UNK         0.0600 
    151 H151       -2.7681  -20.0376  -40.6773 H         1 UNK         0.0600 
    152 H152       -2.4969  -18.3531  -41.0976 H         1 UNK         0.0600 
    153 H153       -1.1278  -19.4496  -40.9268 H         1 UNK         0.0600 
    154 H154       -0.8815  -18.1384  -43.0292 H         1 UNK         0.3000 
    155 H155       -0.3198  -18.0090  -46.5817 H         1 UNK         0.0600 
    156 H156       -1.2034  -16.0551  -44.3897 H         1 UNK         0.0600 
    157 H157       -1.7991  -16.1556  -46.0366 H         1 UNK         0.0600 
    158 H158       -0.1599  -15.5921  -45.7222 H         1 UNK         0.0600 
    159 H159        1.2953  -17.0353  -44.4832 H         1 UNK         0.3000 
    160 H160        3.2589  -19.9689  -43.8951 H         1 UNK         0.0600 
    161 H161        3.8292  -17.3003  -45.2906 H         1 UNK         0.0600 
    162 H162        4.2965  -18.8985  -45.8420 H         1 UNK         0.0600 
    163 H163        5.0172  -18.2368  -44.3822 H         1 UNK         0.0600 
    164 H164        3.1266  -17.2722  -42.8295 H         1 UNK         0.3000 
    165 H165        1.0297  -18.0952  -40.0601 H         1 UNK         0.0600 
    166 H166        2.9704  -17.2349  -38.7795 H         1 UNK         0.0600 
    167 H167        3.2963  -18.8652  -39.3456 H         1 UNK         0.0600 
    168 H168        4.0357  -17.4928  -40.1617 H         1 UNK         0.0600 
    169 H169        2.4383  -15.7143  -40.8170 H         1 UNK         0.3000 
    170 H170        0.0081  -14.3895  -43.0233 H         1 UNK         0.0600 
    171 H171       -1.0049  -13.8816  -40.7941 H         1 UNK         0.0600 
    172 H172        0.5920  -13.5418  -40.1366 H         1 UNK         0.0600 
    173 H173       -0.0805  -12.5204  -41.4087 H         1 UNK         0.0600 
    174 H174        2.2740  -13.1355  -41.9712 H         1 UNK         0.3000 
    175 H175        4.6173  -13.7927  -42.7360 H         1 UNK         0.0600 
    176 H176        4.4050  -14.3962  -45.7383 H         1 UNK         0.0600 
    177 H177        5.8640  -13.8535  -44.9127 H         1 UNK         0.0600 
    178 H178        5.1676  -15.4146  -44.5223 H         1 UNK         0.0600 
    179 H179        2.9209  -12.1455  -44.4646 H         1 UNK         0.3000 
    180 H180        4.2925   -9.2336  -43.3985 H         1 UNK         0.0600 
    181 H181        5.4050  -10.0893  -46.1245 H         1 UNK         0.0600 
    182 H182        6.3387   -9.4157  -44.7942 H         1 UNK         0.0600 
    183 H183        5.1362   -8.4258  -45.6027 H         1 UNK         0.0600 
    184 H184        2.9665  -10.0170  -45.9061 H         1 UNK         0.3000 
    185 H185       -0.2749   -9.9783  -44.5558 H         1 UNK         0.0600 
    186 H186        0.1087   -7.5249  -44.8529 H         1 UNK         0.0600 
    187 H187        0.9945   -7.8332  -46.3417 H         1 UNK         0.0600 
    188 H188       -0.7249   -8.2138  -46.2365 H         1 UNK         0.0600 
    189 H189        0.5186  -10.1340  -47.2446 H         1 UNK         0.3000 
    190 H190       -2.4537  -21.3761  -46.1559 H         1 UNK         0.3000 
    191 H191       -4.5812  -21.7679  -47.9271 H         1 UNK         0.0600 
    192 H192       -4.6625  -20.0919  -46.1468 H         1 UNK         0.0600 
    193 H193       -6.0205  -21.1852  -45.9500 H         1 UNK         0.0600 
    194 H194       -4.6186  -21.3396  -44.9011 H         1 UNK         0.0600 
    195 H195       -3.3259  -23.9792  -45.4881 H         1 UNK         0.3000 
    196 H196       -5.4986  -25.9565  -45.9873 H         1 UNK         0.0600 
    197 H197       -4.4482  -27.1648  -44.0788 H         1 UNK         0.0600 
    198 H198       -4.9246  -25.5371  -43.6194 H         1 UNK         0.0600 
    199 H199       -3.2295  -25.9034  -43.9276 H         1 UNK         0.0600 
    200 H200       -1.8971  -25.6335  -46.0330 H         1 UNK         0.3000 
    201 H201       -1.4763  -28.2895  -46.9262 H         1 UNK         0.0600 
    202 H202        0.1420  -27.0133  -45.5488 H         1 UNK         0.0600 
    203 H203        0.4353  -25.8974  -46.8805 H         1 UNK         0.0600 
    204 H204        0.9055  -27.5861  -47.0238 H         1 UNK         0.0600 
    205 H205       -1.5835  -25.2202  -48.7599 H         1 UNK         0.3000 
    206 H206       -0.9459  -26.6682  -51.3042 H         1 UNK         0.0600 
    207 H207        0.6219  -24.8086  -50.5964 H         1 UNK         0.0600 
    208 H208       -0.1962  -24.4874  -52.1163 H         1 UNK         0.0600 
    209 H209       -0.7324  -23.6811  -50.6506 H         1 UNK         0.0600 
    210 H210       -3.4843  -25.4074  -49.5113 H         1 UNK         0.3000 
    211 H211       -5.5928  -24.8290  -49.8087 H         1 UNK         0.0600 
    212 H212       -5.4351  -25.7551  -52.7217 H         1 UNK         0.0600 
    213 H213       -6.8873  -25.4941  -51.7710 H         1 UNK         0.0600 
    214 H214       -5.7943  -26.8020  -51.3482 H         1 UNK         0.0600 
    215 H215       -3.5788  -22.8838  -49.9538 H         1 UNK         0.3000 
    216 H216       -3.9032  -21.0542  -52.0759 H         1 UNK         0.0600 
    217 H217       -2.6240  -19.4934  -50.6651 H         1 UNK         0.0600 
    218 H218       -1.9279  -21.0993  -50.5828 H         1 UNK         0.0600 
    219 H219       -2.9083  -20.4809  -49.2452 H         1 UNK         0.0600 
    220 H220       -6.1460  -21.6780  -49.6250 H         1 UNK         0.3000 
    221 H221       -7.4817  -19.0963  -49.5656 H         1 UNK         0.0600 
    222 H222       -8.4214  -21.9186  -48.8118 H         1 UNK         0.0600 
    223 H223       -7.7277  -20.7284  -47.7110 H         1 UNK         0.0600 
    224 H224       -9.2873  -20.4276  -48.4590 H         1 UNK         0.0600 
    225 H225       -7.3439  -21.7840  -51.8083 H         1 UNK         0.3000 
    226 H226       -9.7453  -20.7999  -53.3049 H         1 UNK         0.0600 
    227 H227      -10.0560  -23.0808  -52.3780 H         1 UNK         0.0600 
    228 H228       -9.9221  -23.1396  -54.1290 H         1 UNK         0.0600 
    229 H229       -8.5545  -23.6180  -53.1293 H         1 UNK         0.0600 
    230 H230       -6.3605  -22.0200  -53.5634 H         1 UNK         0.3000 
    231 H231       -6.0327  -20.6741  -56.1651 H         1 UNK         0.0600 
    232 H232       -6.9628  -22.8895  -56.7897 H         1 UNK         0.0600 
    233 H233       -5.7511  -23.7138  -55.8187 H         1 UNK         0.0600 
    234 H234       -5.2785  -22.7983  -57.2555 H         1 UNK         0.0600 
    235 H235       -3.7579  -23.0221  -55.8216 H         1 UNK         0.3000 
    236 H236       -1.6240  -23.1718  -55.4018 H         1 UNK         0.0600 
    237 H237       -0.5978  -22.2851  -53.3785 H         1 UNK         0.0600 
    238 H238       -1.8868  -21.1218  -53.1497 H         1 UNK         0.0600 
    239 H239       -2.2168  -22.8394  -52.9778 H         1 UNK         0.0600 
    240 H240       -2.3744  -19.7072  -55.0135 H         1 UNK         0.3000 
    241 H241       -0.0601  -18.8869  -56.6761 H         1 UNK         0.0600 
    242 H242       -1.8712  -17.6587  -59.4922 H         1 UNK         0.3800 
    243 H243       -0.3541  -17.6037  -58.6414 H         1 UNK         0.3800 
    244 H244       -2.0314  -17.2626  -54.9797 H         1 UNK         0.0800 
    245 H245       -0.8327  -16.5403  -56.0193 H         1 UNK         0.0800 
    246 H246       -1.3082  -18.9212  -52.8868 H         1 UNK         0.0800 
    247 H247       -1.4892  -17.2315  -52.4876 H         1 UNK         0.0800 
@<TRIPOS>BOND
     1    1    2 1    
     2    1  127 1    
     3    1  128 1    
     4    1  129 1    
     5    2    3 2    
     6    2    4 am   BACKBONE|DICT|INTERRES
     7    4    5 1    
     8    4  130 1    
     9    5    6 1    
    10    5   65 1    
    11    5  131 1    
    12    6    7 1    
    13    6  132 1    
    14    6  133 1    
    15    7    8 1    
    16    8    9 1    
    17    8  134 1    
    18    8  135 1    
    19    9   10 ar   
    20    9   14 ar   
    21   10   11 ar   
    22   10  136 1    
    23   11   12 ar   
    24   11  126 1    
    25   12   13 ar   
    26   12  137 1    
    27   13   14 ar   
    28   13   15 1    
    29   14  138 1    
    30   15   16 1    
    31   15  139 1    
    32   15  140 1    
    33   16   17 1    
    34   17   18 1    
    35   17  141 1    
    36   17  142 1    
    37   18   19 1    
    38   18   67 1    
    39   18  143 1    
    40   19   20 am   BACKBONE|DICT|INTERRES
    41   19  144 1    
    42   20   21 2    
    43   20   22 1    
    44   22   23 1    
    45   22   24 1    
    46   22  145 1    
    47   23  146 1    
    48   23  147 1    
    49   23  148 1    
    50   24   25 am   BACKBONE|DICT|INTERRES
    51   24  149 1    
    52   25   26 2    
    53   25   27 1    
    54   27   28 1    
    55   27   29 1    
    56   27  150 1    
    57   28  151 1    
    58   28  152 1    
    59   28  153 1    
    60   29   30 am   BACKBONE|DICT|INTERRES
    61   29  154 1    
    62   30   31 2    
    63   30   32 1    
    64   32   33 1    
    65   32   34 1    
    66   32  155 1    
    67   33  156 1    
    68   33  157 1    
    69   33  158 1    
    70   34   35 am   BACKBONE|DICT|INTERRES
    71   34  159 1    
    72   35   36 2    
    73   35   37 1    
    74   37   38 1    
    75   37   39 1    
    76   37  160 1    
    77   38  161 1    
    78   38  162 1    
    79   38  163 1    
    80   39   40 am   BACKBONE|DICT|INTERRES
    81   39  164 1    
    82   40   41 2    
    83   40   42 1    
    84   42   43 1    
    85   42   44 1    
    86   42  165 1    
    87   43  166 1    
    88   43  167 1    
    89   43  168 1    
    90   44   45 am   BACKBONE|DICT|INTERRES
    91   44  169 1    
    92   45   46 2    
    93   45   47 1    
    94   47   48 1    
    95   47   49 1    
    96   47  170 1    
    97   48  171 1    
    98   48  172 1    
    99   48  173 1    
   100   49   50 am   BACKBONE|DICT|INTERRES
   101   49  174 1    
   102   50   51 2    
   103   50   52 1    
   104   52   53 1    
   105   52   54 1    
   106   52  175 1    
   107   53  176 1    
   108   53  177 1    
   109   53  178 1    
   110   54   55 am   BACKBONE|DICT|INTERRES
   111   54  179 1    
   112   55   56 2    
   113   55   57 1    
   114   57   58 1    
   115   57   59 1    
   116   57  180 1    
   117   58  181 1    
   118   58  182 1    
   119   58  183 1    
   120   59   60 am   BACKBONE|DICT|INTERRES
   121   59  184 1    
   122   60   61 2    
   123   60   62 1    
   124   62   63 1    
   125   62   64 1    
   126   62  185 1    
   127   63  186 1    
   128   63  187 1    
   129   63  188 1    
   130   64   65 am   BACKBONE|DICT|INTERRES
   131   64  189 1    
   132   65   66 2    
   133   67   68 2    
   134   67   69 am   BACKBONE|DICT|INTERRES
   135   69   70 1    
   136   69  190 1    
   137   70   71 1    
   138   70   72 1    
   139   70  191 1    
   140   71  192 1    
   141   71  193 1    
   142   71  194 1    
   143   72   73 2    
   144   72   74 am   BACKBONE|DICT|INTERRES
   145   74   75 1    
   146   74  195 1    
   147   75   76 1    
   148   75   77 1    
   149   75  196 1    
   150   76  197 1    
   151   76  198 1    
   152   76  199 1    
   153   77   78 2    
   154   77   79 am   BACKBONE|DICT|INTERRES
   155   79   80 1    
   156   79  200 1    
   157   80   81 1    
   158   80   82 1    
   159   80  201 1    
   160   81  202 1    
   161   81  203 1    
   162   81  204 1    
   163   82   83 2    
   164   82   84 am   BACKBONE|DICT|INTERRES
   165   84   85 1    
   166   84  205 1    
   167   85   86 1    
   168   85   87 1    
   169   85  206 1    
   170   86  207 1    
   171   86  208 1    
   172   86  209 1    
   173   87   88 2    
   174   87   89 am   BACKBONE|DICT|INTERRES
   175   89   90 1    
   176   89  210 1    
   177   90   91 1    
   178   90   92 1    
   179   90  211 1    
   180   91  212 1    
   181   91  213 1    
   182   91  214 1    
   183   92   93 2    
   184   92   94 am   BACKBONE|DICT|INTERRES
   185   94   95 1    
   186   94  215 1    
   187   95   96 1    
   188   95   97 1    
   189   95  216 1    
   190   96  217 1    
   191   96  218 1    
   192   96  219 1    
   193   97   98 2    
   194   97   99 am   BACKBONE|DICT|INTERRES
   195   99  100 1    
   196   99  220 1    
   197  100  101 1    
   198  100  102 1    
   199  100  221 1    
   200  101  222 1    
   201  101  223 1    
   202  101  224 1    
   203  102  103 2    
   204  102  104 am   BACKBONE|DICT|INTERRES
   205  104  105 1    
   206  104  225 1    
   207  105  106 1    
   208  105  107 1    
   209  105  226 1    
   210  106  227 1    
   211  106  228 1    
   212  106  229 1    
   213  107  108 2    
   214  107  109 am   BACKBONE|DICT|INTERRES
   215  109  110 1    
   216  109  230 1    
   217  110  111 1    
   218  110  112 1    
   219  110  231 1    
   220  111  232 1    
   221  111  233 1    
   222  111  234 1    
   223  112  113 2    
   224  112  114 am   BACKBONE|DICT|INTERRES
   225  114  115 1    
   226  114  235 1    
   227  115  116 1    
   228  115  117 1    
   229  115  236 1    
   230  116  237 1    
   231  116  238 1    
   232  116  239 1    
   233  117  118 2    
   234  117  119 am   BACKBONE|DICT|INTERRES
   235  119  120 1    
   236  119  240 1    
   237  120  121 1    
   238  120  124 1    
   239  120  241 1    
   240  121  122 am   BACKBONE|DICT|INTERRES
   241  121  123 2    
   242  122  242 1    
   243  122  243 1    
   244  124  125 1    
   245  124  244 1    
   246  124  245 1    
   247  125  126 1    
   248  126  246 1    
   249  126  247 1    
@<TRIPOS>SUBSTRUCTURE
     1 UNK         1 GROUP             0       ****    0 ROOT    
