@<TRIPOS>MOLECULE
3R540
247   249    1
SMALL
USER_CHARGES


@<TRIPOS>ATOM
      1 CA         -3.6529  -12.6144  -51.4452 C.3       0 UNK        -0.1800 
      2 C          -2.8849  -11.8270  -50.3936 C.2       0 UNK         0.5000 
      3 O          -3.1747  -10.6508  -50.1698 O.2       0 UNK        -0.5000 
      4 N          -1.9033  -12.4723  -49.7548 N.am      1 UNK        -0.5000 
      5 CA         -1.0883  -11.9077  -48.6734 C.3       1 UNK         0.1400 
      6 C6          0.2466  -12.6750  -48.4910 C.3       23 UNK        -0.0398 
      7 S7          1.2629  -12.7282  -50.0074 S.3       23 UNK        -0.2404 
      8 C8          1.3416  -14.5143  -50.3537 C.3       23 UNK        -0.0205 
      9 C9          0.0049  -15.0623  -50.8281 C.ar      23 UNK        -0.0193 
     10 C10        -0.3840  -14.9144  -52.1628 C.ar      23 UNK        -0.1150 
     11 C11        -1.6059  -15.4213  -52.6184 C.ar      23 UNK        -0.0193 
     12 C12        -2.4403  -16.0827  -51.7072 C.ar      23 UNK        -0.1150 
     13 C13        -2.0573  -16.2494  -50.3749 C.ar      23 UNK        -0.0193 
     14 C14        -0.8363  -15.7327  -49.9382 C.ar      23 UNK        -0.1150 
     15 C15        -2.9511  -17.0133  -49.4149 C.3       23 UNK        -0.0205 
     16 S16        -2.2410  -18.6460  -49.0588 S.3       23 UNK        -0.2404 
     17 C17        -3.6119  -19.4494  -48.1732 C.3       23 UNK        -0.0398 
     18 CA         -3.4041  -20.9769  -48.0515 C.3       11 UNK         0.1400 
     19 N          -2.1844  -21.3135  -47.3086 N.am      11 UNK        -0.5000 
     20 C          -1.5712  -22.5013  -47.3517 C.2       10 UNK         0.5000 
     21 O          -1.8728  -23.3951  -48.1431 O.2       10 UNK        -0.5000 
     22 CA         -0.4318  -22.7048  -46.3395 C.3       10 UNK         0.1400 
     23 CB          0.1842  -24.1172  -46.3911 C.3       10 UNK        -0.1800 
     24 N           0.5959  -21.6712  -46.4437 N.am      10 UNK        -0.5000 
     25 C           1.3907  -21.4000  -47.4886 C.2       9 UNK         0.5000 
     26 O           1.3772  -22.0323  -48.5445 O.2       9 UNK        -0.5000 
     27 CA          2.3795  -20.2262  -47.3251 C.3       9 UNK         0.1400 
     28 CB          1.9768  -19.0488  -48.2248 C.3       9 UNK        -0.1800 
     29 N           2.4840  -19.7411  -45.9469 N.am      9 UNK        -0.5000 
     30 C           3.1551  -20.3478  -44.9596 C.2       8 UNK         0.5000 
     31 O           3.8098  -21.3796  -45.1107 O.2       8 UNK        -0.5000 
     32 CA          3.0511  -19.7083  -43.5609 C.3       8 UNK         0.1400 
     33 CB          4.0564  -18.5564  -43.4122 C.3       8 UNK        -0.1800 
     34 N           1.7039  -19.2250  -43.2433 N.am      8 UNK        -0.5000 
     35 C           0.6260  -20.0116  -43.1052 C.2       7 UNK         0.5000 
     36 O           0.6506  -21.2347  -43.2369 O.2       7 UNK        -0.5000 
     37 CA         -0.7135  -19.3135  -42.8107 C.3       7 UNK         0.1400 
     38 CB         -0.8070  -18.8989  -41.3350 C.3       7 UNK        -0.1800 
     39 N          -0.9260  -18.1495  -43.6684 N.am      7 UNK        -0.5000 
     40 C          -1.1242  -18.2175  -44.9919 C.2       6 UNK         0.5000 
     41 O          -1.2414  -19.2774  -45.6074 O.2       6 UNK        -0.5000 
     42 CA         -1.1656  -16.8838  -45.7603 C.3       6 UNK         0.1400 
     43 CB         -2.5697  -16.2660  -45.7030 C.3       6 UNK        -0.1800 
     44 N          -0.1947  -15.9093  -45.2640 N.am      6 UNK        -0.5000 
     45 C           1.1348  -16.0685  -45.2734 C.2       5 UNK         0.5000 
     46 O           1.7017  -17.0497  -45.7460 O.2       5 UNK        -0.5000 
     47 CA          1.9699  -14.9732  -44.5920 C.3       5 UNK         0.1400 
     48 CB          2.2005  -13.7839  -45.5343 C.3       5 UNK        -0.1800 
     49 N           1.3448  -14.5056  -43.3569 N.am      5 UNK        -0.5000 
     50 C           1.2713  -15.2223  -42.2280 C.2       4 UNK         0.5000 
     51 O           1.7579  -16.3463  -42.0978 O.2       4 UNK        -0.5000 
     52 CA          0.4863  -14.5858  -41.0660 C.3       4 UNK         0.1400 
     53 CB          1.3586  -13.5713  -40.3115 C.3       4 UNK        -0.1800 
     54 N          -0.7476  -13.9318  -41.5102 N.am      4 UNK        -0.5000 
     55 C          -1.8060  -14.5897  -42.0027 C.2       3 UNK         0.5000 
     56 O          -1.8515  -15.8139  -42.1191 O.2       3 UNK        -0.5000 
     57 CA         -3.0037  -13.7427  -42.4763 C.3       3 UNK         0.1400 
     58 CB         -3.9133  -13.3942  -41.2885 C.3       3 UNK        -0.1800 
     59 N          -2.6648  -12.5117  -43.2020 N.am      3 UNK        -0.5000 
     60 C          -1.8481  -12.4198  -44.2605 C.2       2 UNK         0.5000 
     61 O          -1.1378  -13.3433  -44.6597 O.2       2 UNK        -0.5000 
     62 CA         -1.7974  -11.0533  -44.9738 C.3       2 UNK         0.1400 
     63 CB         -0.8916  -10.0853  -44.1966 C.3       2 UNK        -0.1800 
     64 N          -1.3038  -11.1459  -46.3523 N.am      2 UNK        -0.5000 
     65 C          -1.8731  -11.8522  -47.3408 C.2       1 UNK         0.5000 
     66 O          -2.9466  -12.4501  -47.2201 O.2       1 UNK        -0.5000 
     67 C          -4.6452  -21.6288  -47.4092 C.2       11 UNK         0.5000 
     68 O          -5.5924  -21.9586  -48.1225 O.2       11 UNK        -0.5000 
     69 N          -4.6094  -21.8065  -46.0831 N.am      12 UNK        -0.5000 
     70 CA         -5.6475  -22.4257  -45.2676 C.3       12 UNK         0.1400 
     71 CB         -6.8852  -21.5085  -45.1681 C.3       12 UNK        -0.1800 
     72 C          -5.0307  -22.7463  -43.8980 C.2       12 UNK         0.5000 
     73 O          -5.3716  -22.1124  -42.8980 O.2       12 UNK        -0.5000 
     74 N          -4.0893  -23.6945  -43.8889 N.am      13 UNK        -0.5000 
     75 CA         -3.3751  -24.1577  -42.6995 C.3       13 UNK         0.1400 
     76 CB         -1.9597  -23.5526  -42.6804 C.3       13 UNK        -0.1800 
     77 C          -3.3760  -25.6913  -42.7238 C.2       13 UNK         0.5000 
     78 O          -2.3239  -26.3135  -42.8820 O.2       13 UNK        -0.5000 
     79 N          -4.5874  -26.2650  -42.6678 N.am      14 UNK        -0.5000 
     80 CA         -4.9549  -27.6679  -42.9155 C.3       14 UNK         0.1400 
     81 CB         -4.2179  -28.6462  -41.9797 C.3       14 UNK        -0.1800 
     82 C          -4.7980  -28.0540  -44.3991 C.2       14 UNK         0.5000 
     83 O          -5.7610  -28.5104  -45.0166 O.2       14 UNK        -0.5000 
     84 N          -3.6092  -27.8018  -44.9559 N.am      15 UNK        -0.5000 
     85 CA         -3.3512  -27.7426  -46.3890 C.3       15 UNK         0.1400 
     86 CB         -1.8446  -27.9263  -46.6279 C.3       15 UNK        -0.1800 
     87 C          -3.8286  -26.3941  -46.9608 C.2       15 UNK         0.5000 
     88 O          -3.8787  -25.3941  -46.2361 O.2       15 UNK        -0.5000 
     89 N          -4.1404  -26.3989  -48.2593 N.am      16 UNK        -0.5000 
     90 CA         -4.5602  -25.2341  -49.0354 C.3       16 UNK         0.1400 
     91 CB         -6.0855  -25.2735  -49.2391 C.3       16 UNK        -0.1800 
     92 C          -3.7650  -25.1914  -50.3521 C.2       16 UNK         0.5000 
     93 O          -4.3401  -25.0332  -51.4300 O.2       16 UNK        -0.5000 
     94 N          -2.4445  -25.3798  -50.2350 N.am      17 UNK        -0.5000 
     95 CA         -1.4868  -25.3655  -51.3398 C.3       17 UNK         0.1400 
     96 CB         -0.1771  -26.0157  -50.8678 C.3       17 UNK        -0.1800 
     97 C          -1.2147  -23.9489  -51.8775 C.2       17 UNK         0.5000 
     98 O          -0.9228  -23.8013  -53.0643 O.2       17 UNK        -0.5000 
     99 N          -1.2905  -22.9446  -50.9931 N.am      18 UNK        -0.5000 
    100 CA        -1.1156  -21.5003  -51.2031 C.3       18 UNK         0.1400 
    101 CB        -2.2046  -20.9410  -52.1387 C.3       18 UNK        -0.1800 
    102 C          0.2862  -21.0284  -51.6424 C.2       18 UNK         0.5000 
    103 O          0.6449  -19.8950  -51.3287 O.2       18 UNK        -0.5000 
    104 N          1.0482  -21.8772  -52.3486 N.am      19 UNK        -0.5000 
    105 CA         2.4391  -21.6862  -52.7836 C.3       19 UNK         0.1400 
    106 CB         3.3844  -21.7622  -51.5665 C.3       19 UNK        -0.1800 
    107 C          2.6622  -20.4126  -53.6322 C.2       19 UNK         0.5000 
    108 O          3.7231  -19.7895  -53.5532 O.2       19 UNK        -0.5000 
    109 N          1.6508  -20.0450  -54.4246 N.am      20 UNK        -0.5000 
    110 CA         1.5763  -18.8237  -55.2167 C.3       20 UNK         0.1400 
    111 CB         1.2167  -17.6378  -54.2969 C.3       20 UNK        -0.1800 
    112 C          0.5234  -19.0140  -56.3188 C.2       20 UNK         0.5000 
    113 O         -0.1554  -20.0455  -56.3528 O.2       20 UNK        -0.5000 
    114 N          0.3676  -17.9944  -57.1753 N.am      21 UNK        -0.5000 
    115 CA        -0.5988  -17.9379  -58.2826 C.3       21 UNK         0.1400 
    116 CB        -0.3900  -16.6248  -59.0529 C.3       21 UNK        -0.1800 
    117 C         -2.0779  -18.0835  -57.8602 C.2       21 UNK         0.5000 
    118 O         -2.9160  -18.4318  -58.6928 O.2       21 UNK        -0.5000 
    119 N         -2.3605  -17.8416  -56.5749 N.am      22 UNK        -0.5000 
    120 CA        -3.6353  -18.1377  -55.9068 C.3       22 UNK         0.1400 
    121 C         -3.9527  -19.6587  -55.7707 C.2       22 UNK         0.5000 
    122 N         -2.9960  -20.5662  -55.9336 N.am      22 UNK        -0.7600 
    123 O         -5.0975  -20.0215  -55.5154 O.2       22 UNK        -0.5000 
    124 C124       -3.7047  -17.4588  -54.5169 C.3       23 UNK        -0.0398 
    125 S125       -3.6703  -15.6326  -54.5974 S.3       23 UNK        -0.2404 
    126 C126       -1.9543  -15.2405  -54.0994 C.3       23 UNK        -0.0205 
    127 H127       -3.8108  -13.6434  -51.1232 H         1 UNK         0.0600 
    128 H128       -4.6304  -12.1667  -51.6244 H         1 UNK         0.0600 
    129 H129       -3.1033  -12.6263  -52.3864 H         1 UNK         0.0600 
    130 H130       -1.7090  -13.4357  -49.9898 H         1 UNK         0.3000 
    131 H131       -0.8441  -10.8781  -48.9443 H         1 UNK         0.0600 
    132 H132        0.0679  -13.6848  -48.1192 H         1 UNK         0.0800 
    133 H133        0.8593  -12.1820  -47.7363 H         1 UNK         0.0800 
    134 H134        1.6858  -15.0468  -49.4654 H         1 UNK         0.0800 
    135 H135        2.0960  -14.6903  -51.1219 H         1 UNK         0.0800 
    136 H136        0.2733  -14.4026  -52.8519 H         1 UNK         0.1150 
    137 H137       -3.3916  -16.4836  -52.0192 H         1 UNK         0.1150 
    138 H138       -0.5352  -15.8734  -48.9099 H         1 UNK         0.1150 
    139 H139       -3.0677  -16.4463  -48.4922 H         1 UNK         0.0800 
    140 H140       -3.9505  -17.1327  -49.8359 H         1 UNK         0.0800 
    141 H141       -4.5379  -19.2351  -48.7103 H         1 UNK         0.0800 
    142 H142       -3.7090  -18.9932  -47.1875 H         1 UNK         0.0800 
    143 H143       -3.3199  -21.3878  -49.0594 H         1 UNK         0.0600 
    144 H144       -1.8191  -20.5908  -46.6886 H         1 UNK         0.3000 
    145 H145       -0.8793  -22.5769  -45.3544 H         1 UNK         0.0600 
    146 H146       -0.5770  -24.8735  -46.1988 H         1 UNK         0.0600 
    147 H147        0.6250  -24.3366  -47.3639 H         1 UNK         0.0600 
    148 H148        0.9595  -24.2362  -45.6343 H         1 UNK         0.0600 
    149 H149        0.6848  -21.0737  -45.6327 H         1 UNK         0.3000 
    150 H150        3.3631  -20.5772  -47.6434 H         1 UNK         0.0600 
    151 H151        2.0232  -19.3330  -49.2743 H         1 UNK         0.0600 
    152 H152        2.6483  -18.2000  -48.0954 H         1 UNK         0.0600 
    153 H153        0.9606  -18.7101  -48.0165 H         1 UNK         0.0600 
    154 H154        2.0339  -18.8481  -45.7537 H         1 UNK         0.3000 
    155 H155        3.3077  -20.4762  -42.8281 H         1 UNK         0.0600 
    156 H156        3.8438  -17.7440  -44.1073 H         1 UNK         0.0600 
    157 H157        5.0736  -18.8980  -43.6073 H         1 UNK         0.0600 
    158 H158        4.0388  -18.1454  -42.4026 H         1 UNK         0.0600 
    159 H159        1.6034  -18.2270  -43.0953 H         1 UNK         0.3000 
    160 H160       -1.5141  -20.0288  -43.0100 H         1 UNK         0.0600 
    161 H161       -1.7880  -18.4822  -41.1061 H         1 UNK         0.0600 
    162 H162       -0.0585  -18.1496  -41.0763 H         1 UNK         0.0600 
    163 H163       -0.6564  -19.7564  -40.6780 H         1 UNK         0.0600 
    164 H164       -0.9218  -17.2406  -43.2173 H         1 UNK         0.3000 
    165 H165       -0.9203  -17.0946  -46.8024 H         1 UNK         0.0600 
    166 H166       -2.6189  -15.3415  -46.2792 H         1 UNK         0.0600 
    167 H167       -3.3179  -16.9463  -46.1079 H         1 UNK         0.0600 
    168 H168       -2.8631  -16.0363  -44.6797 H         1 UNK         0.0600 
    169 H169       -0.5709  -15.0370  -44.8965 H         1 UNK         0.3000 
    170 H170        2.9434  -15.4023  -44.3461 H         1 UNK         0.0600 
    171 H171        2.6102  -14.1116  -46.4908 H         1 UNK         0.0600 
    172 H172        1.2728  -13.2507  -45.7353 H         1 UNK         0.0600 
    173 H173        2.9057  -13.0732  -45.1034 H         1 UNK         0.0600 
    174 H174        0.8396  -13.6325  -43.4093 H         1 UNK         0.3000 
    175 H175        0.2170  -15.3849  -40.3717 H         1 UNK         0.0600 
    176 H176        0.8384  -13.1771  -39.4383 H         1 UNK         0.0600 
    177 H177        2.2795  -14.0366  -39.9572 H         1 UNK         0.0600 
    178 H178        1.6388  -12.7285  -40.9446 H         1 UNK         0.0600 
    179 H179       -0.7843  -12.9246  -41.4558 H         1 UNK         0.3000 
    180 H180       -3.5810  -14.3626  -43.1640 H         1 UNK         0.0600 
    181 H181       -3.4183  -12.7227  -40.5859 H         1 UNK         0.0600 
    182 H182       -4.2004  -14.2916  -40.7385 H         1 UNK         0.0600 
    183 H183       -4.8329  -12.9132  -41.6223 H         1 UNK         0.0600 
    184 H184       -3.1824  -11.6891  -42.9280 H         1 UNK         0.3000 
    185 H185       -2.8096  -10.6455  -45.0069 H         1 UNK         0.0600 
    186 H186        0.1358  -10.4490  -44.1466 H         1 UNK         0.0600 
    187 H187       -0.8763   -9.0992  -44.6614 H         1 UNK         0.0600 
    188 H188       -1.2419   -9.9518  -43.1723 H         1 UNK         0.0600 
    189 H189       -0.4228  -10.6870  -46.5293 H         1 UNK         0.3000 
    190 H190       -3.7789  -21.5237  -45.5818 H         1 UNK         0.3000 
    191 H191       -5.9453  -23.3705  -45.7278 H         1 UNK         0.0600 
    192 H192       -7.3581  -21.3664  -46.1396 H         1 UNK         0.0600 
    193 H193       -6.6255  -20.5245  -44.7761 H         1 UNK         0.0600 
    194 H194       -7.6377  -21.9396  -44.5067 H         1 UNK         0.0600 
    195 H195       -3.9086  -24.2157  -44.7467 H         1 UNK         0.3000 
    196 H196       -3.8933  -23.8499  -41.7889 H         1 UNK         0.0600 
    197 H197       -1.4272  -23.8383  -41.7727 H         1 UNK         0.0600 
    198 H198       -1.9941  -22.4638  -42.7080 H         1 UNK         0.0600 
    199 H199       -1.3639  -23.8923  -43.5273 H         1 UNK         0.0600 
    200 H200       -5.3771  -25.6413  -42.5749 H         1 UNK         0.3000 
    201 H201       -6.0185  -27.7388  -42.6822 H         1 UNK         0.0600 
    202 H202       -4.3512  -28.3669  -40.9347 H         1 UNK         0.0600 
    203 H203       -3.1477  -28.6882  -42.1820 H         1 UNK         0.0600 
    204 H204       -4.6071  -29.6580  -42.0982 H         1 UNK         0.0600 
    205 H205       -2.9122  -27.3681  -44.3571 H         1 UNK         0.3000 
    206 H206       -3.8894  -28.5522  -46.8865 H         1 UNK         0.0600 
    207 H207       -1.5065  -28.8980  -46.2674 H         1 UNK         0.0600 
    208 H208       -1.6026  -27.8720  -47.6901 H         1 UNK         0.0600 
    209 H209       -1.2604  -27.1607  -46.1168 H         1 UNK         0.0600 
    210 H210       -4.0379  -27.2559  -48.7855 H         1 UNK         0.3000 
    211 H211       -4.3146  -24.3184  -48.4986 H         1 UNK         0.0600 
    212 H212       -6.3955  -26.1596  -49.7939 H         1 UNK         0.0600 
    213 H213       -6.4280  -24.3974  -49.7913 H         1 UNK         0.0600 
    214 H214       -6.6075  -25.2749  -48.2821 H         1 UNK         0.0600 
    215 H215       -2.0595  -25.4239  -49.3010 H         1 UNK         0.3000 
    216 H216       -1.8926  -25.9625  -52.1592 H         1 UNK         0.0600 
    217 H217        0.2683  -25.4658  -50.0372 H         1 UNK         0.0600 
    218 H218        0.5574  -26.0451  -51.6738 H         1 UNK         0.0600 
    219 H219       -0.3416  -27.0426  -50.5409 H         1 UNK         0.0600 
    220 H220       -1.4884  -23.2026  -50.0295 H         1 UNK         0.3000 
    221 H221       -1.2655  -21.0630  -50.2176 H         1 UNK         0.0600 
    222 H222       -2.1126  -21.3360  -53.1506 H         1 UNK         0.0600 
    223 H223       -3.2022  -21.1822  -51.7717 H         1 UNK         0.0600 
    224 H224       -2.1381  -19.8541  -52.2059 H         1 UNK         0.0600 
    225 H225        0.6072  -22.7472  -52.6308 H         1 UNK         0.3000 
    226 H226        2.6722  -22.5284  -53.4362 H         1 UNK         0.0600 
    227 H227        3.2185  -22.6757  -50.9951 H         1 UNK         0.0600 
    228 H228        3.2389  -20.9180  -50.8917 H         1 UNK         0.0600 
    229 H229        4.4296  -21.7593  -51.8772 H         1 UNK         0.0600 
    230 H230        0.8320  -20.6361  -54.4936 H         1 UNK         0.3000 
    231 H231        2.5400  -18.6434  -55.6968 H         1 UNK         0.0600 
    232 H232        1.9600  -17.5057  -53.5105 H         1 UNK         0.0600 
    233 H233        0.2513  -17.7867  -53.8108 H         1 UNK         0.0600 
    234 H234        1.1705  -16.6987  -54.8485 H         1 UNK         0.0600 
    235 H235        0.9646  -17.1861  -57.0746 H         1 UNK         0.3000 
    236 H236       -0.3753  -18.7690  -58.9544 H         1 UNK         0.0600 
    237 H237       -1.0678  -16.5582  -59.9051 H         1 UNK         0.0600 
    238 H238       -0.5722  -15.7552  -58.4202 H         1 UNK         0.0600 
    239 H239        0.6255  -16.5517  -59.4426 H         1 UNK         0.0600 
    240 H240       -1.6025  -17.5574  -55.9761 H         1 UNK         0.3000 
    241 H241       -4.4308  -17.7181  -56.5255 H         1 UNK         0.0600 
    242 H242       -3.2277  -21.5424  -55.8477 H         1 UNK         0.3800 
    243 H243       -2.0379  -20.2991  -56.1405 H         1 UNK         0.3800 
    244 H244       -4.6294  -17.7316  -54.0047 H         1 UNK         0.0800 
    245 H245       -2.8927  -17.8227  -53.8854 H         1 UNK         0.0800 
    246 H246       -1.7716  -14.1990  -54.3681 H         1 UNK         0.0800 
    247 H247       -1.2651  -15.8326  -54.7006 H         1 UNK         0.0800 
@<TRIPOS>BOND
     1    1    2 1    
     2    1  127 1    
     3    1  128 1    
     4    1  129 1    
     5    2    3 2    
     6    2    4 am   BACKBONE|DICT|INTERRES
     7    4    5 1    
     8    4  130 1    
     9    5    6 1    
    10    5   65 1    
    11    5  131 1    
    12    6    7 1    
    13    6  132 1    
    14    6  133 1    
    15    7    8 1    
    16    8    9 1    
    17    8  134 1    
    18    8  135 1    
    19    9   10 ar   
    20    9   14 ar   
    21   10   11 ar   
    22   10  136 1    
    23   11   12 ar   
    24   11  126 1    
    25   12   13 ar   
    26   12  137 1    
    27   13   14 ar   
    28   13   15 1    
    29   14  138 1    
    30   15   16 1    
    31   15  139 1    
    32   15  140 1    
    33   16   17 1    
    34   17   18 1    
    35   17  141 1    
    36   17  142 1    
    37   18   19 1    
    38   18   67 1    
    39   18  143 1    
    40   19   20 am   BACKBONE|DICT|INTERRES
    41   19  144 1    
    42   20   21 2    
    43   20   22 1    
    44   22   23 1    
    45   22   24 1    
    46   22  145 1    
    47   23  146 1    
    48   23  147 1    
    49   23  148 1    
    50   24   25 am   BACKBONE|DICT|INTERRES
    51   24  149 1    
    52   25   26 2    
    53   25   27 1    
    54   27   28 1    
    55   27   29 1    
    56   27  150 1    
    57   28  151 1    
    58   28  152 1    
    59   28  153 1    
    60   29   30 am   BACKBONE|DICT|INTERRES
    61   29  154 1    
    62   30   31 2    
    63   30   32 1    
    64   32   33 1    
    65   32   34 1    
    66   32  155 1    
    67   33  156 1    
    68   33  157 1    
    69   33  158 1    
    70   34   35 am   BACKBONE|DICT|INTERRES
    71   34  159 1    
    72   35   36 2    
    73   35   37 1    
    74   37   38 1    
    75   37   39 1    
    76   37  160 1    
    77   38  161 1    
    78   38  162 1    
    79   38  163 1    
    80   39   40 am   BACKBONE|DICT|INTERRES
    81   39  164 1    
    82   40   41 2    
    83   40   42 1    
    84   42   43 1    
    85   42   44 1    
    86   42  165 1    
    87   43  166 1    
    88   43  167 1    
    89   43  168 1    
    90   44   45 am   BACKBONE|DICT|INTERRES
    91   44  169 1    
    92   45   46 2    
    93   45   47 1    
    94   47   48 1    
    95   47   49 1    
    96   47  170 1    
    97   48  171 1    
    98   48  172 1    
    99   48  173 1    
   100   49   50 am   BACKBONE|DICT|INTERRES
   101   49  174 1    
   102   50   51 2    
   103   50   52 1    
   104   52   53 1    
   105   52   54 1    
   106   52  175 1    
   107   53  176 1    
   108   53  177 1    
   109   53  178 1    
   110   54   55 am   BACKBONE|DICT|INTERRES
   111   54  179 1    
   112   55   56 2    
   113   55   57 1    
   114   57   58 1    
   115   57   59 1    
   116   57  180 1    
   117   58  181 1    
   118   58  182 1    
   119   58  183 1    
   120   59   60 am   BACKBONE|DICT|INTERRES
   121   59  184 1    
   122   60   61 2    
   123   60   62 1    
   124   62   63 1    
   125   62   64 1    
   126   62  185 1    
   127   63  186 1    
   128   63  187 1    
   129   63  188 1    
   130   64   65 am   BACKBONE|DICT|INTERRES
   131   64  189 1    
   132   65   66 2    
   133   67   68 2    
   134   67   69 am   BACKBONE|DICT|INTERRES
   135   69   70 1    
   136   69  190 1    
   137   70   71 1    
   138   70   72 1    
   139   70  191 1    
   140   71  192 1    
   141   71  193 1    
   142   71  194 1    
   143   72   73 2    
   144   72   74 am   BACKBONE|DICT|INTERRES
   145   74   75 1    
   146   74  195 1    
   147   75   76 1    
   148   75   77 1    
   149   75  196 1    
   150   76  197 1    
   151   76  198 1    
   152   76  199 1    
   153   77   78 2    
   154   77   79 am   BACKBONE|DICT|INTERRES
   155   79   80 1    
   156   79  200 1    
   157   80   81 1    
   158   80   82 1    
   159   80  201 1    
   160   81  202 1    
   161   81  203 1    
   162   81  204 1    
   163   82   83 2    
   164   82   84 am   BACKBONE|DICT|INTERRES
   165   84   85 1    
   166   84  205 1    
   167   85   86 1    
   168   85   87 1    
   169   85  206 1    
   170   86  207 1    
   171   86  208 1    
   172   86  209 1    
   173   87   88 2    
   174   87   89 am   BACKBONE|DICT|INTERRES
   175   89   90 1    
   176   89  210 1    
   177   90   91 1    
   178   90   92 1    
   179   90  211 1    
   180   91  212 1    
   181   91  213 1    
   182   91  214 1    
   183   92   93 2    
   184   92   94 am   BACKBONE|DICT|INTERRES
   185   94   95 1    
   186   94  215 1    
   187   95   96 1    
   188   95   97 1    
   189   95  216 1    
   190   96  217 1    
   191   96  218 1    
   192   96  219 1    
   193   97   98 2    
   194   97   99 am   BACKBONE|DICT|INTERRES
   195   99  100 1    
   196   99  220 1    
   197  100  101 1    
   198  100  102 1    
   199  100  221 1    
   200  101  222 1    
   201  101  223 1    
   202  101  224 1    
   203  102  103 2    
   204  102  104 am   BACKBONE|DICT|INTERRES
   205  104  105 1    
   206  104  225 1    
   207  105  106 1    
   208  105  107 1    
   209  105  226 1    
   210  106  227 1    
   211  106  228 1    
   212  106  229 1    
   213  107  108 2    
   214  107  109 am   BACKBONE|DICT|INTERRES
   215  109  110 1    
   216  109  230 1    
   217  110  111 1    
   218  110  112 1    
   219  110  231 1    
   220  111  232 1    
   221  111  233 1    
   222  111  234 1    
   223  112  113 2    
   224  112  114 am   BACKBONE|DICT|INTERRES
   225  114  115 1    
   226  114  235 1    
   227  115  116 1    
   228  115  117 1    
   229  115  236 1    
   230  116  237 1    
   231  116  238 1    
   232  116  239 1    
   233  117  118 2    
   234  117  119 am   BACKBONE|DICT|INTERRES
   235  119  120 1    
   236  119  240 1    
   237  120  121 1    
   238  120  124 1    
   239  120  241 1    
   240  121  122 am   BACKBONE|DICT|INTERRES
   241  121  123 2    
   242  122  242 1    
   243  122  243 1    
   244  124  125 1    
   245  124  244 1    
   246  124  245 1    
   247  125  126 1    
   248  126  246 1    
   249  126  247 1    
@<TRIPOS>SUBSTRUCTURE
     1 UNK         1 GROUP             0       ****    0 ROOT    
