@<TRIPOS>MOLECULE
3R540
247   249    1
SMALL
USER_CHARGES


@<TRIPOS>ATOM
      1 CA         -4.6326  -12.9634  -46.5831 C.3       0 UNK        -0.1800 
      2 C          -3.1921  -13.2618  -46.1943 C.2       0 UNK         0.5000 
      3 O          -2.6837  -12.6873  -45.2320 O.2       0 UNK        -0.5000 
      4 N          -2.5366  -14.1757  -46.9225 N.am      1 UNK        -0.5000 
      5 CA         -1.1237  -14.5514  -46.7491 C.3       1 UNK         0.1400 
      6 C6         -0.5909  -15.4077  -47.9212 C.3       23 UNK        -0.0398 
      7 S7         -0.8834  -14.6684  -49.5614 S.3       23 UNK        -0.2404 
      8 C8         -0.0007  -15.8553  -50.6331 C.3       23 UNK        -0.0205 
      9 C9         -0.4687  -17.3033  -50.4955 C.ar      23 UNK        -0.0193 
     10 C10        -1.8211  -17.6197  -50.3369 C.ar      23 UNK        -0.1150 
     11 C11        -2.2410  -18.9489  -50.2545 C.ar      23 UNK        -0.0193 
     12 C12        -1.2904  -19.9729  -50.3215 C.ar      23 UNK        -0.1150 
     13 C13         0.0726  -19.6780  -50.4641 C.ar      23 UNK        -0.0193 
     14 C14         0.4673  -18.3395  -50.5562 C.ar      23 UNK        -0.1150 
     15 C15         1.1523  -20.7595  -50.5623 C.3       23 UNK        -0.0205 
     16 S16         0.7152  -22.3995  -49.8835 S.3       23 UNK        -0.2404 
     17 C17         0.6980  -22.0458  -48.0974 C.3       23 UNK        -0.0398 
     18 CA         -0.2045  -23.0177  -47.2995 C.3       11 UNK         0.1400 
     19 N           0.1364  -23.0139  -45.8746 N.am      11 UNK        -0.5000 
     20 C          -0.3176  -23.8923  -44.9697 C.2       10 UNK         0.5000 
     21 O          -1.0600  -24.8337  -45.2409 O.2       10 UNK        -0.5000 
     22 CA          0.0861  -23.6445  -43.5053 C.3       10 UNK         0.1400 
     23 CB          1.4872  -24.2072  -43.2247 C.3       10 UNK        -0.1800 
     24 N           0.0495  -22.2248  -43.1527 N.am      10 UNK        -0.5000 
     25 C          -1.0698  -21.4884  -43.1111 C.2       9 UNK         0.5000 
     26 O          -2.1948  -21.9421  -43.3137 O.2       9 UNK        -0.5000 
     27 CA         -0.8979  -19.9813  -42.8575 C.3       9 UNK         0.1400 
     28 CB         -0.8838  -19.6753  -41.3532 C.3       9 UNK        -0.1800 
     29 N           0.3044  -19.4206  -43.4781 N.am      9 UNK        -0.5000 
     30 C           0.5478  -19.3871  -44.7958 C.2       8 UNK         0.5000 
     31 O          -0.2088  -19.8864  -45.6304 O.2       8 UNK        -0.5000 
     32 CA          1.8427  -18.6822  -45.2485 C.3       8 UNK         0.1400 
     33 CB          1.7883  -18.2637  -46.7284 C.3       8 UNK        -0.1800 
     34 N           2.1247  -17.4991  -44.4337 N.am      8 UNK        -0.5000 
     35 C           2.8768  -17.4729  -43.3272 C.2       7 UNK         0.5000 
     36 O           3.3845  -18.4827  -42.8370 O.2       7 UNK        -0.5000 
     37 CA          3.0603  -16.1004  -42.6424 C.3       7 UNK         0.1400 
     38 CB          4.2773  -16.0596  -41.6956 C.3       7 UNK        -0.1800 
     39 N           3.1009  -14.9693  -43.5750 N.am      7 UNK        -0.5000 
     40 C           3.9710  -14.7586  -44.5748 C.2       6 UNK         0.5000 
     41 O           4.8774  -15.5375  -44.8724 O.2       6 UNK        -0.5000 
     42 CA          3.8354  -13.4408  -45.3574 C.3       6 UNK         0.1400 
     43 CB          2.8273  -13.5691  -46.5100 C.3       6 UNK        -0.1800 
     44 N           3.4448  -12.3308  -44.4857 N.am      6 UNK        -0.5000 
     45 C           4.0822  -11.1539  -44.4119 C.2       5 UNK         0.5000 
     46 O           5.0399  -10.8479  -45.1239 O.2       5 UNK        -0.5000 
     47 CA          3.5783  -10.1383  -43.3632 C.3       5 UNK         0.1400 
     48 CB          2.6249   -9.1249  -44.0149 C.3       5 UNK        -0.1800 
     49 N           2.8996  -10.7571  -42.2236 N.am      5 UNK        -0.5000 
     50 C           3.4729  -11.5752  -41.3308 C.2       4 UNK         0.5000 
     51 O           4.6813  -11.8106  -41.3032 O.2       4 UNK        -0.5000 
     52 CA          2.5477  -12.2697  -40.3082 C.3       4 UNK         0.1400 
     53 CB          2.7355  -11.6527  -38.9134 C.3       4 UNK        -0.1800 
     54 N           1.1132  -12.2735  -40.6293 N.am      4 UNK        -0.5000 
     55 C           0.5452  -12.7771  -41.7330 C.2       3 UNK         0.5000 
     56 O           1.1811  -13.1706  -42.7141 O.2       3 UNK        -0.5000 
     57 CA         -0.9938  -12.8033  -41.7571 C.3       3 UNK         0.1400 
     58 CB         -1.5367  -11.4803  -42.3166 C.3       3 UNK        -0.1800 
     59 N          -1.4995  -13.9089  -42.5702 N.am      3 UNK        -0.5000 
     60 C          -1.3415  -15.2092  -42.2758 C.2       2 UNK         0.5000 
     61 O          -0.8555  -15.6144  -41.2191 O.2       2 UNK        -0.5000 
     62 CA         -1.7855  -16.2387  -43.3354 C.3       2 UNK         0.1400 
     63 CB         -3.1405  -16.8585  -42.9621 C.3       2 UNK        -0.1800 
     64 N          -1.8739  -15.6836  -44.6848 N.am      2 UNK        -0.5000 
     65 C          -0.8283  -15.2668  -45.4116 C.2       1 UNK         0.5000 
     66 O           0.3397  -15.4272  -45.0614 O.2       1 UNK        -0.5000 
     67 C          -1.7010  -22.7145  -47.5088 C.2       11 UNK         0.5000 
     68 O          -2.3826  -23.4467  -48.2288 O.2       11 UNK        -0.5000 
     69 N          -2.1915  -21.6709  -46.8262 N.am      12 UNK        -0.5000 
     70 CA         -3.5928  -21.2570  -46.8310 C.3       12 UNK         0.1400 
     71 CB         -3.7316  -19.9328  -46.0649 C.3       12 UNK        -0.1800 
     72 C          -4.5518  -22.3266  -46.2750 C.2       12 UNK         0.5000 
     73 O          -5.6670  -22.4521  -46.7792 O.2       12 UNK        -0.5000 
     74 N          -4.1005  -23.0828  -45.2666 N.am      13 UNK        -0.5000 
     75 CA         -4.8420  -24.1906  -44.6737 C.3       13 UNK         0.1400 
     76 CB         -4.2856  -24.4879  -43.2718 C.3       13 UNK        -0.1800 
     77 C          -4.8201  -25.4559  -45.5500 C.2       13 UNK         0.5000 
     78 O          -5.8828  -26.0094  -45.8354 O.2       13 UNK        -0.5000 
     79 N          -3.6179  -25.9199  -45.9195 N.am      14 UNK        -0.5000 
     80 CA         -3.4132  -27.2249  -46.5484 C.3       14 UNK         0.1400 
     81 CB         -1.9744  -27.7025  -46.2953 C.3       14 UNK        -0.1800 
     82 C          -3.7236  -27.2381  -48.0524 C.2       14 UNK         0.5000 
     83 O          -4.3952  -28.1603  -48.5176 O.2       14 UNK        -0.5000 
     84 N          -3.2091  -26.2452  -48.7880 N.am      15 UNK        -0.5000 
     85 CA         -3.3348  -26.1647  -50.2429 C.3       15 UNK         0.1400 
     86 CB         -2.0057  -25.6874  -50.8487 C.3       15 UNK        -0.1800 
     87 C          -4.4901  -25.2432  -50.6519 C.2       15 UNK         0.5000 
     88 O          -5.2578  -25.5981  -51.5474 O.2       15 UNK        -0.5000 
     89 N          -4.5996  -24.0835  -49.9875 N.am      16 UNK        -0.5000 
     90 CA         -5.5791  -23.0264  -50.2507 C.3       16 UNK         0.1400 
     91 CB         -6.9919  -23.4811  -49.8187 C.3       16 UNK        -0.1800 
     92 C          -5.4867  -22.5435  -51.7152 C.2       16 UNK         0.5000 
     93 O          -4.3969  -22.1798  -52.1581 O.2       16 UNK        -0.5000 
     94 N          -6.6004  -22.5885  -52.4582 N.am      17 UNK        -0.5000 
     95 CA         -6.6886  -22.2158  -53.8726 C.3       17 UNK         0.1400 
     96 CB         -8.1571  -22.2898  -54.3162 C.3       17 UNK        -0.1800 
     97 C          -5.8001  -23.0584  -54.8119 C.2       17 UNK         0.5000 
     98 O          -5.4001  -22.5606  -55.8653 O.2       17 UNK        -0.5000 
     99 N          -5.4757  -24.2987  -54.4142 N.am      18 UNK        -0.5000 
    100 CA        -4.6123  -25.2102  -55.1711 C.3       18 UNK         0.1400 
    101 CB        -4.8120  -26.6478  -54.6653 C.3       18 UNK        -0.1800 
    102 C         -3.1200  -24.8214  -55.1349 C.2       18 UNK         0.5000 
    103 O         -2.3363  -25.3951  -55.8922 O.2       18 UNK        -0.5000 
    104 N         -2.7441  -23.8580  -54.2793 N.am      19 UNK        -0.5000 
    105 CA        -1.3851  -23.3247  -54.1749 C.3       19 UNK         0.1400 
    106 CB        -1.2850  -22.4612  -52.9115 C.3       19 UNK        -0.1800 
    107 C         -0.9495  -22.4874  -55.3926 C.2       19 UNK         0.5000 
    108 O          0.2486  -22.2610  -55.5610 O.2       19 UNK        -0.5000 
    109 N         -1.9188  -21.9911  -56.1787 N.am      20 UNK        -0.5000 
    110 CA        -1.7997  -21.1206  -57.3605 C.3       20 UNK         0.1400 
    111 CB        -0.9469  -21.7768  -58.4630 C.3       20 UNK        -0.1800 
    112 C         -1.3181  -19.6845  -57.0591 C.2       20 UNK         0.5000 
    113 O         -1.7485  -18.7517  -57.7373 O.2       20 UNK        -0.5000 
    114 N         -0.4735  -19.5193  -56.0334 N.am      21 UNK        -0.5000 
    115 CA        -0.0404  -18.2364  -55.4750 C.3       21 UNK         0.1400 
    116 CB         1.1525  -18.4870  -54.5382 C.3       21 UNK        -0.1800 
    117 C         -1.1636  -17.5017  -54.7152 C.2       21 UNK         0.5000 
    118 O         -1.0905  -16.2828  -54.5543 O.2       21 UNK        -0.5000 
    119 N         -2.1662  -18.2591  -54.2540 N.am      22 UNK        -0.5000 
    120 CA        -3.3533  -17.7648  -53.5497 C.3       22 UNK         0.1400 
    121 C         -4.2995  -16.9353  -54.4623 C.2       22 UNK         0.5000 
    122 N         -4.9190  -15.8870  -53.9371 N.am      22 UNK        -0.7600 
    123 O         -4.5100  -17.2586  -55.6291 O.2       22 UNK        -0.5000 
    124 C124       -4.1058  -18.9346  -52.8618 C.3       23 UNK        -0.0398 
    125 S125       -4.8227  -18.4389  -51.2606 S.3       23 UNK        -0.2404 
    126 C126       -3.7178  -19.2861  -50.0794 C.3       23 UNK        -0.0205 
    127 H127       -4.9514  -13.5540  -47.4423 H         1 UNK         0.0600 
    128 H128       -5.2996  -13.1855  -45.7502 H         1 UNK         0.0600 
    129 H129       -4.7408  -11.9087  -46.8361 H         1 UNK         0.0600 
    130 H130       -3.0031  -14.6085  -47.7071 H         1 UNK         0.3000 
    131 H131       -0.5513  -13.6218  -46.7326 H         1 UNK         0.0600 
    132 H132        0.4856  -15.5555  -47.8185 H         1 UNK         0.0800 
    133 H133       -1.0466  -16.3991  -47.8991 H         1 UNK         0.0800 
    134 H134        1.0666  -15.7801  -50.4191 H         1 UNK         0.0800 
    135 H135       -0.1298  -15.5505  -51.6725 H         1 UNK         0.0800 
    136 H136       -2.5562  -16.8294  -50.2906 H         1 UNK         0.1150 
    137 H137       -1.6210  -20.9998  -50.2659 H         1 UNK         0.1150 
    138 H138        1.5141  -18.1029  -50.6858 H         1 UNK         0.1150 
    139 H139        2.0591  -20.4172  -50.0609 H         1 UNK         0.0800 
    140 H140        1.4157  -20.8810  -51.6133 H         1 UNK         0.0800 
    141 H141        0.3984  -21.0102  -47.9329 H         1 UNK         0.0800 
    142 H142        1.7290  -22.1209  -47.7494 H         1 UNK         0.0800 
    143 H143       -0.0213  -24.0309  -47.6645 H         1 UNK         0.0600 
    144 H144        0.6864  -22.2340  -45.5480 H         1 UNK         0.3000 
    145 H145       -0.6279  -24.1719  -42.8689 H         1 UNK         0.0600 
    146 H146        1.5356  -25.2698  -43.4665 H         1 UNK         0.0600 
    147 H147        1.7499  -24.1027  -42.1718 H         1 UNK         0.0600 
    148 H148        2.2527  -23.7009  -43.8139 H         1 UNK         0.0600 
    149 H149        0.9331  -21.7720  -42.9712 H         1 UNK         0.3000 
    150 H150       -1.7609  -19.4805  -43.2987 H         1 UNK         0.0600 
    151 H151       -0.0262  -20.1313  -40.8570 H         1 UNK         0.0600 
    152 H152       -1.7846  -20.0556  -40.8695 H         1 UNK         0.0600 
    153 H153       -0.8464  -18.6015  -41.1680 H         1 UNK         0.0600 
    154 H154        0.9946  -19.0202  -42.8589 H         1 UNK         0.3000 
    155 H155        2.6572  -19.4007  -45.1386 H         1 UNK         0.0600 
    156 H156        0.8986  -17.6734  -46.9409 H         1 UNK         0.0600 
    157 H157        1.7643  -19.1346  -47.3830 H         1 UNK         0.0600 
    158 H158        2.6607  -17.6731  -47.0086 H         1 UNK         0.0600 
    159 H159        1.6576  -16.6394  -44.7186 H         1 UNK         0.3000 
    160 H160        2.1668  -15.9497  -42.0345 H         1 UNK         0.0600 
    161 H161        5.2069  -16.2715  -42.2246 H         1 UNK         0.0600 
    162 H162        4.1790  -16.7965  -40.8978 H         1 UNK         0.0600 
    163 H163        4.3775  -15.0826  -41.2229 H         1 UNK         0.0600 
    164 H164        2.3503  -14.2956  -43.4348 H         1 UNK         0.3000 
    165 H165        4.8171  -13.2488  -45.7954 H         1 UNK         0.0600 
    166 H166        3.0005  -14.4746  -47.0931 H         1 UNK         0.0600 
    167 H167        1.8044  -13.6007  -46.1404 H         1 UNK         0.0600 
    168 H168        2.9047  -12.7215  -47.1908 H         1 UNK         0.0600 
    169 H169        2.6716  -12.5016  -43.8511 H         1 UNK         0.3000 
    170 H170        4.4481   -9.5981  -42.9839 H         1 UNK         0.0600 
    171 H171        2.3220   -8.3545  -43.3056 H         1 UNK         0.0600 
    172 H172        1.7230   -9.6079  -44.3935 H         1 UNK         0.0600 
    173 H173        3.1048   -8.6208  -44.8549 H         1 UNK         0.0600 
    174 H174        1.9004  -10.6277  -42.1686 H         1 UNK         0.3000 
    175 H175        2.8645  -13.3133  -40.2616 H         1 UNK         0.0600 
    176 H176        3.7851  -11.6642  -38.6158 H         1 UNK         0.0600 
    177 H177        2.3978  -10.6160  -38.8852 H         1 UNK         0.0600 
    178 H178        2.1814  -12.2085  -38.1567 H         1 UNK         0.0600 
    179 H179        0.5065  -11.9383  -39.8947 H         1 UNK         0.3000 
    180 H180       -1.3622  -12.9345  -40.7376 H         1 UNK         0.0600 
    181 H181       -1.1763  -11.2953  -43.3296 H         1 UNK         0.0600 
    182 H182       -1.2285  -10.6358  -41.6991 H         1 UNK         0.0600 
    183 H183       -2.6265  -11.4811  -42.3454 H         1 UNK         0.0600 
    184 H184       -1.8785  -13.6571  -43.4756 H         1 UNK         0.3000 
    185 H185       -1.0351  -17.0289  -43.3475 H         1 UNK         0.0600 
    186 H186       -3.0979  -17.3279  -41.9784 H         1 UNK         0.0600 
    187 H187       -3.9311  -16.1077  -42.9340 H         1 UNK         0.0600 
    188 H188       -3.4337  -17.6281  -43.6764 H         1 UNK         0.0600 
    189 H189       -2.8002  -15.5151  -45.0484 H         1 UNK         0.3000 
    190 H190       -1.5506  -21.1036  -46.2775 H         1 UNK         0.3000 
    191 H191       -3.8754  -21.0840  -47.8688 H         1 UNK         0.0600 
    192 H192       -3.0905  -19.1603  -46.4909 H         1 UNK         0.0600 
    193 H193       -4.7574  -19.5647  -46.1037 H         1 UNK         0.0600 
    194 H194       -3.4631  -20.0482  -45.0147 H         1 UNK         0.0600 
    195 H195       -3.2000  -22.8633  -44.8556 H         1 UNK         0.3000 
    196 H196       -5.8842  -23.8855  -44.5563 H         1 UNK         0.0600 
    197 H197       -4.8175  -25.3190  -42.8071 H         1 UNK         0.0600 
    198 H198       -4.3952  -23.6244  -42.6154 H         1 UNK         0.0600 
    199 H199       -3.2273  -24.7495  -43.3024 H         1 UNK         0.0600 
    200 H200       -2.7774  -25.4109  -45.6545 H         1 UNK         0.3000 
    201 H201       -4.0812  -27.9435  -46.0681 H         1 UNK         0.0600 
    202 H202       -1.8204  -28.7053  -46.6955 H         1 UNK         0.0600 
    203 H203       -1.7527  -27.7400  -45.2286 H         1 UNK         0.0600 
    204 H204       -1.2414  -27.0467  -46.7667 H         1 UNK         0.0600 
    205 H205       -2.7314  -25.4776  -48.3293 H         1 UNK         0.3000 
    206 H206       -3.5416  -27.1529  -50.6595 H         1 UNK         0.0600 
    207 H207       -1.2051  -26.3982  -50.6442 H         1 UNK         0.0600 
    208 H208       -2.0828  -25.5879  -51.9320 H         1 UNK         0.0600 
    209 H209       -1.6996  -24.7214  -50.4484 H         1 UNK         0.0600 
    210 H210       -3.8802  -23.8600  -49.3045 H         1 UNK         0.3000 
    211 H211       -5.2986  -22.1794  -49.6253 H         1 UNK         0.0600 
    212 H212       -7.7099  -22.6637  -49.8953 H         1 UNK         0.0600 
    213 H213       -6.9916  -23.8062  -48.7782 H         1 UNK         0.0600 
    214 H214       -7.3629  -24.3132  -50.4180 H         1 UNK         0.0600 
    215 H215       -7.4484  -22.9289  -52.0291 H         1 UNK         0.3000 
    216 H216       -6.3595  -21.1793  -53.9610 H         1 UNK         0.0600 
    217 H217       -8.7835  -21.6241  -53.7221 H         1 UNK         0.0600 
    218 H218       -8.5550  -23.3010  -54.2215 H         1 UNK         0.0600 
    219 H219       -8.2663  -21.9904  -55.3595 H         1 UNK         0.0600 
    220 H220       -5.7887  -24.6243  -53.5071 H         1 UNK         0.3000 
    221 H221       -4.9274  -25.1796  -56.2162 H         1 UNK         0.0600 
    222 H222       -4.3981  -26.7876  -53.6671 H         1 UNK         0.0600 
    223 H223       -5.8677  -26.9178  -54.6358 H         1 UNK         0.0600 
    224 H224       -4.3132  -27.3613  -55.3222 H         1 UNK         0.0600 
    225 H225       -3.4412  -23.4346  -53.6773 H         1 UNK         0.3000 
    226 H226       -0.6931  -24.1636  -54.0776 H         1 UNK         0.0600 
    227 H227       -1.5966  -23.0066  -52.0225 H         1 UNK         0.0600 
    228 H228       -0.2581  -22.1352  -52.7521 H         1 UNK         0.0600 
    229 H229       -1.9016  -21.5657  -52.9841 H         1 UNK         0.0600 
    230 H230       -2.8700  -22.2254  -55.9257 H         1 UNK         0.3000 
    231 H231       -2.8148  -21.0261  -57.7496 H         1 UNK         0.0600 
    232 H232        0.1000  -21.8666  -58.1726 H         1 UNK         0.0600 
    233 H233       -0.9783  -21.1863  -59.3794 H         1 UNK         0.0600 
    234 H234       -1.3155  -22.7735  -58.7055 H         1 UNK         0.0600 
    235 H235       -0.1108  -20.3596  -55.5945 H         1 UNK         0.3000 
    236 H236        0.2870  -17.5936  -56.2947 H         1 UNK         0.0600 
    237 H237        1.5223  -17.5516  -54.1162 H         1 UNK         0.0600 
    238 H238        0.8790  -19.1361  -53.7050 H         1 UNK         0.0600 
    239 H239        1.9815  -18.9542  -55.0700 H         1 UNK         0.0600 
    240 H240       -2.1476  -19.2431  -54.4687 H         1 UNK         0.3000 
    241 H241       -2.9738  -17.0896  -52.7813 H         1 UNK         0.0600 
    242 H242       -4.7829  -15.6236  -52.9733 H         1 UNK         0.3800 
    243 H243       -5.5475  -15.3489  -54.5132 H         1 UNK         0.3800 
    244 H244       -4.8935  -19.3403  -53.4980 H         1 UNK         0.0800 
    245 H245       -3.4303  -19.7697  -52.6784 H         1 UNK         0.0800 
    246 H246       -4.0194  -19.0124  -49.0682 H         1 UNK         0.0800 
    247 H247       -3.8718  -20.3602  -50.1747 H         1 UNK         0.0800 
@<TRIPOS>BOND
     1    1    2 1    
     2    1  127 1    
     3    1  128 1    
     4    1  129 1    
     5    2    3 2    
     6    2    4 am   BACKBONE|DICT|INTERRES
     7    4    5 1    
     8    4  130 1    
     9    5    6 1    
    10    5   65 1    
    11    5  131 1    
    12    6    7 1    
    13    6  132 1    
    14    6  133 1    
    15    7    8 1    
    16    8    9 1    
    17    8  134 1    
    18    8  135 1    
    19    9   10 ar   
    20    9   14 ar   
    21   10   11 ar   
    22   10  136 1    
    23   11   12 ar   
    24   11  126 1    
    25   12   13 ar   
    26   12  137 1    
    27   13   14 ar   
    28   13   15 1    
    29   14  138 1    
    30   15   16 1    
    31   15  139 1    
    32   15  140 1    
    33   16   17 1    
    34   17   18 1    
    35   17  141 1    
    36   17  142 1    
    37   18   19 1    
    38   18   67 1    
    39   18  143 1    
    40   19   20 am   BACKBONE|DICT|INTERRES
    41   19  144 1    
    42   20   21 2    
    43   20   22 1    
    44   22   23 1    
    45   22   24 1    
    46   22  145 1    
    47   23  146 1    
    48   23  147 1    
    49   23  148 1    
    50   24   25 am   BACKBONE|DICT|INTERRES
    51   24  149 1    
    52   25   26 2    
    53   25   27 1    
    54   27   28 1    
    55   27   29 1    
    56   27  150 1    
    57   28  151 1    
    58   28  152 1    
    59   28  153 1    
    60   29   30 am   BACKBONE|DICT|INTERRES
    61   29  154 1    
    62   30   31 2    
    63   30   32 1    
    64   32   33 1    
    65   32   34 1    
    66   32  155 1    
    67   33  156 1    
    68   33  157 1    
    69   33  158 1    
    70   34   35 am   BACKBONE|DICT|INTERRES
    71   34  159 1    
    72   35   36 2    
    73   35   37 1    
    74   37   38 1    
    75   37   39 1    
    76   37  160 1    
    77   38  161 1    
    78   38  162 1    
    79   38  163 1    
    80   39   40 am   BACKBONE|DICT|INTERRES
    81   39  164 1    
    82   40   41 2    
    83   40   42 1    
    84   42   43 1    
    85   42   44 1    
    86   42  165 1    
    87   43  166 1    
    88   43  167 1    
    89   43  168 1    
    90   44   45 am   BACKBONE|DICT|INTERRES
    91   44  169 1    
    92   45   46 2    
    93   45   47 1    
    94   47   48 1    
    95   47   49 1    
    96   47  170 1    
    97   48  171 1    
    98   48  172 1    
    99   48  173 1    
   100   49   50 am   BACKBONE|DICT|INTERRES
   101   49  174 1    
   102   50   51 2    
   103   50   52 1    
   104   52   53 1    
   105   52   54 1    
   106   52  175 1    
   107   53  176 1    
   108   53  177 1    
   109   53  178 1    
   110   54   55 am   BACKBONE|DICT|INTERRES
   111   54  179 1    
   112   55   56 2    
   113   55   57 1    
   114   57   58 1    
   115   57   59 1    
   116   57  180 1    
   117   58  181 1    
   118   58  182 1    
   119   58  183 1    
   120   59   60 am   BACKBONE|DICT|INTERRES
   121   59  184 1    
   122   60   61 2    
   123   60   62 1    
   124   62   63 1    
   125   62   64 1    
   126   62  185 1    
   127   63  186 1    
   128   63  187 1    
   129   63  188 1    
   130   64   65 am   BACKBONE|DICT|INTERRES
   131   64  189 1    
   132   65   66 2    
   133   67   68 2    
   134   67   69 am   BACKBONE|DICT|INTERRES
   135   69   70 1    
   136   69  190 1    
   137   70   71 1    
   138   70   72 1    
   139   70  191 1    
   140   71  192 1    
   141   71  193 1    
   142   71  194 1    
   143   72   73 2    
   144   72   74 am   BACKBONE|DICT|INTERRES
   145   74   75 1    
   146   74  195 1    
   147   75   76 1    
   148   75   77 1    
   149   75  196 1    
   150   76  197 1    
   151   76  198 1    
   152   76  199 1    
   153   77   78 2    
   154   77   79 am   BACKBONE|DICT|INTERRES
   155   79   80 1    
   156   79  200 1    
   157   80   81 1    
   158   80   82 1    
   159   80  201 1    
   160   81  202 1    
   161   81  203 1    
   162   81  204 1    
   163   82   83 2    
   164   82   84 am   BACKBONE|DICT|INTERRES
   165   84   85 1    
   166   84  205 1    
   167   85   86 1    
   168   85   87 1    
   169   85  206 1    
   170   86  207 1    
   171   86  208 1    
   172   86  209 1    
   173   87   88 2    
   174   87   89 am   BACKBONE|DICT|INTERRES
   175   89   90 1    
   176   89  210 1    
   177   90   91 1    
   178   90   92 1    
   179   90  211 1    
   180   91  212 1    
   181   91  213 1    
   182   91  214 1    
   183   92   93 2    
   184   92   94 am   BACKBONE|DICT|INTERRES
   185   94   95 1    
   186   94  215 1    
   187   95   96 1    
   188   95   97 1    
   189   95  216 1    
   190   96  217 1    
   191   96  218 1    
   192   96  219 1    
   193   97   98 2    
   194   97   99 am   BACKBONE|DICT|INTERRES
   195   99  100 1    
   196   99  220 1    
   197  100  101 1    
   198  100  102 1    
   199  100  221 1    
   200  101  222 1    
   201  101  223 1    
   202  101  224 1    
   203  102  103 2    
   204  102  104 am   BACKBONE|DICT|INTERRES
   205  104  105 1    
   206  104  225 1    
   207  105  106 1    
   208  105  107 1    
   209  105  226 1    
   210  106  227 1    
   211  106  228 1    
   212  106  229 1    
   213  107  108 2    
   214  107  109 am   BACKBONE|DICT|INTERRES
   215  109  110 1    
   216  109  230 1    
   217  110  111 1    
   218  110  112 1    
   219  110  231 1    
   220  111  232 1    
   221  111  233 1    
   222  111  234 1    
   223  112  113 2    
   224  112  114 am   BACKBONE|DICT|INTERRES
   225  114  115 1    
   226  114  235 1    
   227  115  116 1    
   228  115  117 1    
   229  115  236 1    
   230  116  237 1    
   231  116  238 1    
   232  116  239 1    
   233  117  118 2    
   234  117  119 am   BACKBONE|DICT|INTERRES
   235  119  120 1    
   236  119  240 1    
   237  120  121 1    
   238  120  124 1    
   239  120  241 1    
   240  121  122 am   BACKBONE|DICT|INTERRES
   241  121  123 2    
   242  122  242 1    
   243  122  243 1    
   244  124  125 1    
   245  124  244 1    
   246  124  245 1    
   247  125  126 1    
   248  126  246 1    
   249  126  247 1    
@<TRIPOS>SUBSTRUCTURE
     1 UNK         1 GROUP             0       ****    0 ROOT    
