@<TRIPOS>MOLECULE
3R540
247   249    1
SMALL
USER_CHARGES


@<TRIPOS>ATOM
      1 CA          4.7165  -10.6965  -50.8295 C.3       0 UNK        -0.1800 
      2 C           4.5780  -12.0363  -50.1218 C.2       0 UNK         0.5000 
      3 O           4.3168  -12.0710  -48.9206 O.2       0 UNK        -0.5000 
      4 N           4.7302  -13.1410  -50.8635 N.am      1 UNK        -0.5000 
      5 CA          4.6533  -14.5253  -50.3704 C.3       1 UNK         0.1400 
      6 C6          5.2193  -15.5328  -51.4037 C.3       23 UNK        -0.0398 
      7 S7          4.4574  -15.4281  -53.0659 S.3       23 UNK        -0.2404 
      8 C8          4.1431  -17.1784  -53.4620 C.3       23 UNK        -0.0205 
      9 C9          2.7746  -17.6340  -52.9794 C.ar      23 UNK        -0.0193 
     10 C10         1.6827  -17.6299  -53.8553 C.ar      23 UNK        -0.1150 
     11 C11         0.4212  -18.0475  -53.4193 C.ar      23 UNK        -0.0193 
     12 C12         0.2621  -18.4684  -52.0986 C.ar      23 UNK        -0.1150 
     13 C13         1.3397  -18.4734  -51.2134 C.ar      23 UNK        -0.0193 
     14 C14         2.5983  -18.0681  -51.6621 C.ar      23 UNK        -0.1150 
     15 C15         1.1206  -18.8823  -49.7678 C.3       23 UNK        -0.0205 
     16 S16         0.7437  -20.6566  -49.6115 S.3       23 UNK        -0.2404 
     17 C17         0.1113  -20.6505  -47.9100 C.3       23 UNK        -0.0398 
     18 CA         -0.2756  -22.0389  -47.3529 C.3       11 UNK         0.1400 
     19 N          -0.2795  -22.0070  -45.8898 N.am      11 UNK        -0.5000 
     20 C          -0.4202  -23.0598  -45.0781 C.2       10 UNK         0.5000 
     21 O          -0.5305  -24.2176  -45.4767 O.2       10 UNK        -0.5000 
     22 CA         -0.4919  -22.7600  -43.5694 C.3       10 UNK         0.1400 
     23 CB          0.9142  -22.6065  -42.9715 C.3       10 UNK        -0.1800 
     24 N          -1.2839  -21.5631  -43.2775 N.am      10 UNK        -0.5000 
     25 C          -2.6077  -21.4745  -43.4703 C.2       9 UNK         0.5000 
     26 O          -3.3012  -22.4081  -43.8739 O.2       9 UNK        -0.5000 
     27 CA         -3.2559  -20.0994  -43.2222 C.3       9 UNK         0.1400 
     28 CB         -3.4520  -19.8479  -41.7199 C.3       9 UNK        -0.1800 
     29 N          -2.4904  -18.9975  -43.8067 N.am      9 UNK        -0.5000 
     30 C          -2.2338  -18.8614  -45.1155 C.2       8 UNK         0.5000 
     31 O          -2.6507  -19.6326  -45.9763 O.2       8 UNK        -0.5000 
     32 CA         -1.3102  -17.7037  -45.5299 C.3       8 UNK         0.1400 
     33 CB         -2.1073  -16.3954  -45.6225 C.3       8 UNK        -0.1800 
     34 N          -0.1724  -17.5335  -44.6245 N.am      8 UNK        -0.5000 
     35 C           0.7507  -18.4684  -44.3557 C.2       7 UNK         0.5000 
     36 O           0.7538  -19.5905  -44.8561 O.2       7 UNK        -0.5000 
     37 CA          1.8171  -18.1142  -43.3084 C.3       7 UNK         0.1400 
     38 CB          2.9492  -17.2809  -43.9285 C.3       7 UNK        -0.1800 
     39 N           1.2283  -17.4017  -42.1765 N.am      7 UNK        -0.5000 
     40 C           0.4552  -17.9804  -41.2463 C.2       6 UNK         0.5000 
     41 O           0.2222  -19.1893  -41.2056 O.2       6 UNK        -0.5000 
     42 CA         -0.1952  -17.0425  -40.2116 C.3       6 UNK         0.1400 
     43 CB          0.7673  -16.7712  -39.0457 C.3       6 UNK        -0.1800 
     44 N          -0.6206  -15.7681  -40.7953 N.am      6 UNK        -0.5000 
     45 C          -1.6125  -15.6413  -41.6881 C.2       5 UNK         0.5000 
     46 O          -2.3023  -16.5839  -42.0769 O.2       5 UNK        -0.5000 
     47 CA         -1.8430  -14.2348  -42.2790 C.3       5 UNK         0.1400 
     48 CB         -2.8230  -13.4400  -41.4035 C.3       5 UNK        -0.1800 
     49 N          -0.6158  -13.4503  -42.4673 N.am      5 UNK        -0.5000 
     50 C           0.4268  -13.8246  -43.2213 C.2       4 UNK         0.5000 
     51 O           0.4745  -14.9004  -43.8174 O.2       4 UNK        -0.5000 
     52 CA          1.6177  -12.8489  -43.2963 C.3       4 UNK         0.1400 
     53 CB          2.2304  -12.6365  -41.9011 C.3       4 UNK        -0.1800 
     54 N           2.6789  -13.3448  -44.1798 N.am      4 UNK        -0.5000 
     55 C           2.7352  -13.3301  -45.5201 C.2       3 UNK         0.5000 
     56 O           3.6690  -13.8733  -46.1123 O.2       3 UNK        -0.5000 
     57 CA          1.6587  -12.5827  -46.3370 C.3       3 UNK         0.1400 
     58 CB          1.9737  -11.0774  -46.3955 C.3       3 UNK        -0.1800 
     59 N           1.6412  -13.0869  -47.7099 N.am      3 UNK        -0.5000 
     60 C           0.6681  -13.8286  -48.2564 C.2       2 UNK         0.5000 
     61 O          -0.3684  -14.1240  -47.6643 O.2       2 UNK        -0.5000 
     62 CA          0.8508  -14.2979  -49.7172 C.3       2 UNK         0.1400 
     63 CB         -0.0703  -13.4936  -50.6474 C.3       2 UNK        -0.1800 
     64 N           2.2215  -14.1629  -50.2079 N.am      2 UNK        -0.5000 
     65 C           3.2548  -14.9376  -49.8519 C.2       1 UNK         0.5000 
     66 O           3.1466  -15.9221  -49.1206 O.2       1 UNK        -0.5000 
     67 C          -1.6194  -22.5518  -47.9230 C.2       11 UNK         0.5000 
     68 O          -1.6297  -23.3825  -48.8320 O.2       11 UNK        -0.5000 
     69 N          -2.7359  -22.0894  -47.3471 N.am      12 UNK        -0.5000 
     70 CA         -4.0843  -22.5512  -47.6658 C.3       12 UNK         0.1400 
     71 CB         -5.1119  -21.6398  -46.9770 C.3       12 UNK        -0.1800 
     72 C          -4.3214  -24.0183  -47.2656 C.2       12 UNK         0.5000 
     73 O          -4.9069  -24.7673  -48.0468 O.2       12 UNK        -0.5000 
     74 N          -3.8830  -24.3911  -46.0560 N.am      13 UNK        -0.5000 
     75 CA         -4.1381  -25.6996  -45.4587 C.3       13 UNK         0.1400 
     76 CB         -4.0422  -25.5873  -43.9283 C.3       13 UNK        -0.1800 
     77 C          -3.2078  -26.8083  -45.9798 C.2       13 UNK         0.5000 
     78 O          -3.6963  -27.8342  -46.4548 O.2       13 UNK        -0.5000 
     79 N          -1.8918  -26.6110  -45.8344 N.am      14 UNK        -0.5000 
     80 CA         -0.8795  -27.6480  -46.0324 C.3       14 UNK         0.1400 
     81 CB          0.2534  -27.4612  -45.0101 C.3       14 UNK        -0.1800 
     82 C          -0.3237  -27.6522  -47.4615 C.2       14 UNK         0.5000 
     83 O          -0.1896  -28.7261  -48.0497 O.2       14 UNK        -0.5000 
     84 N          -0.0172  -26.4638  -48.0032 N.am      15 UNK        -0.5000 
     85 CA          0.4885  -26.3153  -49.3743 C.3       15 UNK         0.1400 
     86 CB          1.3064  -25.0201  -49.5007 C.3       15 UNK        -0.1800 
     87 C          -0.6339  -26.3777  -50.4300 C.2       15 UNK         0.5000 
     88 O          -0.3377  -26.5773  -51.6086 O.2       15 UNK        -0.5000 
     89 N          -1.8908  -26.2284  -49.9830 N.am      16 UNK        -0.5000 
     90 CA         -3.1325  -26.2940  -50.7560 C.3       16 UNK         0.1400 
     91 CB         -3.3649  -27.7220  -51.2922 C.3       16 UNK        -0.1800 
     92 C          -3.2152  -25.2124  -51.8513 C.2       16 UNK         0.5000 
     93 O          -3.6543  -25.4958  -52.9684 O.2       16 UNK        -0.5000 
     94 N          -2.7962  -23.9833  -51.5162 N.am      17 UNK        -0.5000 
     95 CA         -2.7490  -22.8227  -52.4114 C.3       17 UNK         0.1400 
     96 CB         -1.7727  -21.7907  -51.8280 C.3       17 UNK        -0.1800 
     97 C          -4.1411  -22.2211  -52.7104 C.2       17 UNK         0.5000 
     98 O          -4.3880  -21.0456  -52.4317 O.2       17 UNK        -0.5000 
     99 N          -5.0347  -23.0557  -53.2596 N.am      18 UNK        -0.5000 
    100 CA        -6.3909  -22.7538  -53.7370 C.3       18 UNK         0.1400 
    101 CB        -6.3192  -21.8481  -54.9841 C.3       18 UNK        -0.1800 
    102 C         -7.3373  -22.1821  -52.6587 C.2       18 UNK         0.5000 
    103 O         -8.2979  -21.4897  -52.9976 O.2       18 UNK        -0.5000 
    104 N         -7.0277  -22.4414  -51.3791 N.am      19 UNK        -0.5000 
    105 CA        -7.6621  -21.9475  -50.1466 C.3       19 UNK         0.1400 
    106 CB        -9.1310  -22.4006  -50.0526 C.3       19 UNK        -0.1800 
    107 C         -7.5345  -20.4254  -49.9083 C.2       19 UNK         0.5000 
    108 O         -7.4745  -20.0029  -48.7542 O.2       19 UNK        -0.5000 
    109 N         -7.4848  -19.6301  -50.9829 N.am      20 UNK        -0.5000 
    110 CA        -7.3167  -18.1783  -50.9664 C.3       20 UNK         0.1400 
    111 CB        -7.6963  -17.6216  -52.3472 C.3       20 UNK        -0.1800 
    112 C         -5.8928  -17.7323  -50.5875 C.2       20 UNK         0.5000 
    113 O         -5.7311  -16.6184  -50.0861 O.2       20 UNK        -0.5000 
    114 N         -4.8898  -18.5844  -50.8583 N.am      21 UNK        -0.5000 
    115 CA        -3.4644  -18.3898  -50.5669 C.3       21 UNK         0.1400 
    116 CB        -3.2014  -18.5280  -49.0552 C.3       21 UNK        -0.1800 
    117 C         -2.8772  -17.0948  -51.1664 C.2       21 UNK         0.5000 
    118 O         -2.0295  -16.4563  -50.5425 O.2       21 UNK        -0.5000 
    119 N         -3.3553  -16.7316  -52.3660 N.am      22 UNK        -0.5000 
    120 CA        -3.0313  -15.4867  -53.0855 C.3       22 UNK         0.1400 
    121 C         -3.5118  -14.1808  -52.3717 C.2       22 UNK         0.5000 
    122 N         -4.3747  -14.2430  -51.3630 N.am      22 UNK        -0.7600 
    123 O         -3.1357  -13.0808  -52.7671 O.2       22 UNK        -0.5000 
    124 C124       -1.5413  -15.4295  -53.5411 C.3       23 UNK        -0.0398 
    125 S125       -1.2105  -16.4321  -55.0316 S.3       23 UNK        -0.2404 
    126 C126       -0.7714  -18.0714  -54.3661 C.3       23 UNK        -0.0205 
    127 H127        3.7942  -10.1239  -50.7318 H         1 UNK         0.0600 
    128 H128        4.9307  -10.8190  -51.8915 H         1 UNK         0.0600 
    129 H129        5.5263  -10.1194  -50.3833 H         1 UNK         0.0600 
    130 H130        4.9219  -13.0516  -51.8520 H         1 UNK         0.3000 
    131 H131        5.3065  -14.5749  -49.4963 H         1 UNK         0.0600 
    132 H132        6.2867  -15.3470  -51.5294 H         1 UNK         0.0800 
    133 H133        5.1549  -16.5502  -51.0173 H         1 UNK         0.0800 
    134 H134        4.2109  -17.3037  -54.5438 H         1 UNK         0.0800 
    135 H135        4.9260  -17.8104  -53.0403 H         1 UNK         0.0800 
    136 H136        1.8114  -17.3000  -54.8766 H         1 UNK         0.1150 
    137 H137       -0.7028  -18.7991  -51.7492 H         1 UNK         0.1150 
    138 H138        3.4345  -18.0749  -50.9785 H         1 UNK         0.1150 
    139 H139        1.9955  -18.6443  -49.1603 H         1 UNK         0.0800 
    140 H140        0.2973  -18.2904  -49.3648 H         1 UNK         0.0800 
    141 H141       -0.7249  -19.9566  -47.8360 H         1 UNK         0.0800 
    142 H142        0.9116  -20.2242  -47.3052 H         1 UNK         0.0800 
    143 H143        0.5000  -22.7501  -47.6401 H         1 UNK         0.0600 
    144 H144       -0.1302  -21.0956  -45.4630 H         1 UNK         0.3000 
    145 H145       -0.9743  -23.6118  -43.0854 H         1 UNK         0.0600 
    146 H146        0.8685  -22.4519  -41.8933 H         1 UNK         0.0600 
    147 H147        1.5118  -23.5017  -43.1476 H         1 UNK         0.0600 
    148 H148        1.4506  -21.7629  -43.4066 H         1 UNK         0.0600 
    149 H149       -0.7806  -20.7450  -42.9608 H         1 UNK         0.3000 
    150 H150       -4.2391  -20.1074  -43.6972 H         1 UNK         0.0600 
    151 H151       -4.0335  -20.6490  -41.2620 H         1 UNK         0.0600 
    152 H152       -3.9879  -18.9149  -41.5442 H         1 UNK         0.0600 
    153 H153       -2.4993  -19.7889  -41.1926 H         1 UNK         0.0600 
    154 H154       -2.1592  -18.2804  -43.1694 H         1 UNK         0.3000 
    155 H155       -0.9046  -17.9246  -46.5185 H         1 UNK         0.0600 
    156 H156       -2.8171  -16.4339  -46.4494 H         1 UNK         0.0600 
    157 H157       -1.4535  -15.5416  -45.7923 H         1 UNK         0.0600 
    158 H158       -2.6769  -16.2021  -44.7144 H         1 UNK         0.0600 
    159 H159       -0.0573  -16.6124  -44.2078 H         1 UNK         0.3000 
    160 H160        2.2501  -19.0473  -42.9411 H         1 UNK         0.0600 
    161 H161        2.5839  -16.3494  -44.3598 H         1 UNK         0.0600 
    162 H162        3.4424  -17.8349  -44.7281 H         1 UNK         0.0600 
    163 H163        3.7094  -17.0333  -43.1878 H         1 UNK         0.0600 
    164 H164        1.3116  -16.3957  -42.1833 H         1 UNK         0.3000 
    165 H165       -1.0788  -17.5477  -39.8152 H         1 UNK         0.0600 
    166 H166        0.2892  -16.1705  -38.2717 H         1 UNK         0.0600 
    167 H167        1.0881  -17.7040  -38.5799 H         1 UNK         0.0600 
    168 H168        1.6631  -16.2436  -39.3755 H         1 UNK         0.0600 
    169 H169       -0.1062  -14.9434  -40.5242 H         1 UNK         0.3000 
    170 H170       -2.2991  -14.3640  -43.2618 H         1 UNK         0.0600 
    171 H171       -3.7555  -13.9887  -41.2640 H         1 UNK         0.0600 
    172 H172       -2.4088  -13.2398  -40.4146 H         1 UNK         0.0600 
    173 H173       -3.0766  -12.4841  -41.8621 H         1 UNK         0.0600 
    174 H174       -0.5854  -12.5554  -42.0004 H         1 UNK         0.3000 
    175 H175        1.2480  -11.8898  -43.6586 H         1 UNK         0.0600 
    176 H176        2.5707  -13.5756  -41.4623 H         1 UNK         0.0600 
    177 H177        3.0855  -11.9616  -41.9467 H         1 UNK         0.0600 
    178 H178        1.5132  -12.1918  -41.2103 H         1 UNK         0.0600 
    179 H179        3.4128  -13.8459  -43.7038 H         1 UNK         0.3000 
    180 H180        0.6823  -12.7236  -45.8727 H         1 UNK         0.0600 
    181 H181        2.9436  -10.8883  -46.8571 H         1 UNK         0.0600 
    182 H182        1.9974  -10.6289  -45.4029 H         1 UNK         0.0600 
    183 H183        1.2208  -10.5416  -46.9739 H         1 UNK         0.0600 
    184 H184        2.4985  -12.9375  -48.2311 H         1 UNK         0.3000 
    185 H185        0.5653  -15.3510  -49.7716 H         1 UNK         0.0600 
    186 H186       -1.1182  -13.6596  -50.3934 H         1 UNK         0.0600 
    187 H187        0.1202  -12.4221  -50.5761 H         1 UNK         0.0600 
    188 H188        0.0624  -13.7868  -51.6878 H         1 UNK         0.0600 
    189 H189        2.4095  -13.3774  -50.8130 H         1 UNK         0.3000 
    190 H190       -2.6619  -21.3523  -46.6492 H         1 UNK         0.3000 
    191 H191       -4.2251  -22.4699  -48.7459 H         1 UNK         0.0600 
    192 H192       -5.0496  -20.6175  -47.3484 H         1 UNK         0.0600 
    193 H193       -6.1300  -21.9868  -47.1545 H         1 UNK         0.0600 
    194 H194       -4.9635  -21.6080  -45.8975 H         1 UNK         0.0600 
    195 H195       -3.4470  -23.6965  -45.4582 H         1 UNK         0.3000 
    196 H196       -5.1627  -25.9924  -45.6987 H         1 UNK         0.0600 
    197 H197       -4.2296  -26.5501  -43.4513 H         1 UNK         0.0600 
    198 H198       -4.7788  -24.8836  -43.5399 H         1 UNK         0.0600 
    199 H199       -3.0569  -25.2467  -43.6074 H         1 UNK         0.0600 
    200 H200       -1.5490  -25.7050  -45.5212 H         1 UNK         0.3000 
    201 H201       -1.3253  -28.6278  -45.8463 H         1 UNK         0.0600 
    202 H202       -0.1295  -27.4843  -43.9897 H         1 UNK         0.0600 
    203 H203        0.7779  -26.5155  -45.1489 H         1 UNK         0.0600 
    204 H204        0.9917  -28.2591  -45.0984 H         1 UNK         0.0600 
    205 H205       -0.1572  -25.6218  -47.4601 H         1 UNK         0.3000 
    206 H206        1.1695  -27.1440  -49.5804 H         1 UNK         0.0600 
    207 H207        2.0333  -24.9243  -48.6942 H         1 UNK         0.0600 
    208 H208        1.8606  -25.0094  -50.4398 H         1 UNK         0.0600 
    209 H209        0.6769  -24.1335  -49.4988 H         1 UNK         0.0600 
    210 H210       -2.0006  -26.0157  -49.0019 H         1 UNK         0.3000 
    211 H211       -3.9405  -26.0783  -50.0581 H         1 UNK         0.0600 
    212 H212       -2.6257  -27.9994  -52.0442 H         1 UNK         0.0600 
    213 H213       -4.3493  -27.8111  -51.7530 H         1 UNK         0.0600 
    214 H214       -3.3170  -28.4563  -50.4878 H         1 UNK         0.0600 
    215 H215       -2.4322  -23.8381  -50.5780 H         1 UNK         0.3000 
    216 H216       -2.3382  -23.1494  -53.3688 H         1 UNK         0.0600 
    217 H217       -1.6727  -20.9276  -52.4866 H         1 UNK         0.0600 
    218 H218       -0.7785  -22.2209  -51.7072 H         1 UNK         0.0600 
    219 H219       -2.1024  -21.4325  -50.8525 H         1 UNK         0.0600 
    220 H220       -4.7257  -24.0164  -53.3918 H         1 UNK         0.3000 
    221 H221       -6.8250  -23.7065  -54.0430 H         1 UNK         0.0600 
    222 H222       -5.9499  -20.8518  -54.7380 H         1 UNK         0.0600 
    223 H223       -5.6602  -22.2720  -55.7417 H         1 UNK         0.0600 
    224 H224       -7.3013  -21.7293  -55.4432 H         1 UNK         0.0600 
    225 H225       -6.1970  -22.9962  -51.2319 H         1 UNK         0.3000 
    226 H226       -7.1215  -22.4312  -49.3321 H         1 UNK         0.0600 
    227 H227       -9.2181  -23.4816  -50.1612 H         1 UNK         0.0600 
    228 H228       -9.5568  -22.1361  -49.0839 H         1 UNK         0.0600 
    229 H229       -9.7527  -21.9343  -50.8173 H         1 UNK         0.0600 
    230 H230       -7.6127  -20.0701  -51.8884 H         1 UNK         0.3000 
    231 H231       -8.0025  -17.7612  -50.2261 H         1 UNK         0.0600 
    232 H232       -7.0578  -18.0265  -53.1335 H         1 UNK         0.0600 
    233 H233       -7.6009  -16.5351  -52.3718 H         1 UNK         0.0600 
    234 H234       -8.7296  -17.8622  -52.5982 H         1 UNK         0.0600 
    235 H235       -5.1099  -19.4594  -51.3237 H         1 UNK         0.3000 
    236 H236       -2.9389  -19.2039  -51.0631 H         1 UNK         0.0600 
    237 H237       -3.4926  -19.5149  -48.6996 H         1 UNK         0.0600 
    238 H238       -2.1443  -18.4042  -48.8237 H         1 UNK         0.0600 
    239 H239       -3.7501  -17.7847  -48.4767 H         1 UNK         0.0600 
    240 H240       -4.0598  -17.3148  -52.7929 H         1 UNK         0.3000 
    241 H241       -3.6443  -15.5123  -53.9869 H         1 UNK         0.0600 
    242 H242       -4.6831  -13.3877  -50.9298 H         1 UNK         0.3800 
    243 H243       -4.7098  -15.1307  -51.0048 H         1 UNK         0.3800 
    244 H244       -1.2532  -14.4129  -53.8111 H         1 UNK         0.0800 
    245 H245       -0.8627  -15.7140  -52.7379 H         1 UNK         0.0800 
    246 H246       -1.6485  -18.4978  -53.8774 H         1 UNK         0.0800 
    247 H247       -0.5400  -18.7346  -55.2005 H         1 UNK         0.0800 
@<TRIPOS>BOND
     1    1    2 1    
     2    1  127 1    
     3    1  128 1    
     4    1  129 1    
     5    2    3 2    
     6    2    4 am   BACKBONE|DICT|INTERRES
     7    4    5 1    
     8    4  130 1    
     9    5    6 1    
    10    5   65 1    
    11    5  131 1    
    12    6    7 1    
    13    6  132 1    
    14    6  133 1    
    15    7    8 1    
    16    8    9 1    
    17    8  134 1    
    18    8  135 1    
    19    9   10 ar   
    20    9   14 ar   
    21   10   11 ar   
    22   10  136 1    
    23   11   12 ar   
    24   11  126 1    
    25   12   13 ar   
    26   12  137 1    
    27   13   14 ar   
    28   13   15 1    
    29   14  138 1    
    30   15   16 1    
    31   15  139 1    
    32   15  140 1    
    33   16   17 1    
    34   17   18 1    
    35   17  141 1    
    36   17  142 1    
    37   18   19 1    
    38   18   67 1    
    39   18  143 1    
    40   19   20 am   BACKBONE|DICT|INTERRES
    41   19  144 1    
    42   20   21 2    
    43   20   22 1    
    44   22   23 1    
    45   22   24 1    
    46   22  145 1    
    47   23  146 1    
    48   23  147 1    
    49   23  148 1    
    50   24   25 am   BACKBONE|DICT|INTERRES
    51   24  149 1    
    52   25   26 2    
    53   25   27 1    
    54   27   28 1    
    55   27   29 1    
    56   27  150 1    
    57   28  151 1    
    58   28  152 1    
    59   28  153 1    
    60   29   30 am   BACKBONE|DICT|INTERRES
    61   29  154 1    
    62   30   31 2    
    63   30   32 1    
    64   32   33 1    
    65   32   34 1    
    66   32  155 1    
    67   33  156 1    
    68   33  157 1    
    69   33  158 1    
    70   34   35 am   BACKBONE|DICT|INTERRES
    71   34  159 1    
    72   35   36 2    
    73   35   37 1    
    74   37   38 1    
    75   37   39 1    
    76   37  160 1    
    77   38  161 1    
    78   38  162 1    
    79   38  163 1    
    80   39   40 am   BACKBONE|DICT|INTERRES
    81   39  164 1    
    82   40   41 2    
    83   40   42 1    
    84   42   43 1    
    85   42   44 1    
    86   42  165 1    
    87   43  166 1    
    88   43  167 1    
    89   43  168 1    
    90   44   45 am   BACKBONE|DICT|INTERRES
    91   44  169 1    
    92   45   46 2    
    93   45   47 1    
    94   47   48 1    
    95   47   49 1    
    96   47  170 1    
    97   48  171 1    
    98   48  172 1    
    99   48  173 1    
   100   49   50 am   BACKBONE|DICT|INTERRES
   101   49  174 1    
   102   50   51 2    
   103   50   52 1    
   104   52   53 1    
   105   52   54 1    
   106   52  175 1    
   107   53  176 1    
   108   53  177 1    
   109   53  178 1    
   110   54   55 am   BACKBONE|DICT|INTERRES
   111   54  179 1    
   112   55   56 2    
   113   55   57 1    
   114   57   58 1    
   115   57   59 1    
   116   57  180 1    
   117   58  181 1    
   118   58  182 1    
   119   58  183 1    
   120   59   60 am   BACKBONE|DICT|INTERRES
   121   59  184 1    
   122   60   61 2    
   123   60   62 1    
   124   62   63 1    
   125   62   64 1    
   126   62  185 1    
   127   63  186 1    
   128   63  187 1    
   129   63  188 1    
   130   64   65 am   BACKBONE|DICT|INTERRES
   131   64  189 1    
   132   65   66 2    
   133   67   68 2    
   134   67   69 am   BACKBONE|DICT|INTERRES
   135   69   70 1    
   136   69  190 1    
   137   70   71 1    
   138   70   72 1    
   139   70  191 1    
   140   71  192 1    
   141   71  193 1    
   142   71  194 1    
   143   72   73 2    
   144   72   74 am   BACKBONE|DICT|INTERRES
   145   74   75 1    
   146   74  195 1    
   147   75   76 1    
   148   75   77 1    
   149   75  196 1    
   150   76  197 1    
   151   76  198 1    
   152   76  199 1    
   153   77   78 2    
   154   77   79 am   BACKBONE|DICT|INTERRES
   155   79   80 1    
   156   79  200 1    
   157   80   81 1    
   158   80   82 1    
   159   80  201 1    
   160   81  202 1    
   161   81  203 1    
   162   81  204 1    
   163   82   83 2    
   164   82   84 am   BACKBONE|DICT|INTERRES
   165   84   85 1    
   166   84  205 1    
   167   85   86 1    
   168   85   87 1    
   169   85  206 1    
   170   86  207 1    
   171   86  208 1    
   172   86  209 1    
   173   87   88 2    
   174   87   89 am   BACKBONE|DICT|INTERRES
   175   89   90 1    
   176   89  210 1    
   177   90   91 1    
   178   90   92 1    
   179   90  211 1    
   180   91  212 1    
   181   91  213 1    
   182   91  214 1    
   183   92   93 2    
   184   92   94 am   BACKBONE|DICT|INTERRES
   185   94   95 1    
   186   94  215 1    
   187   95   96 1    
   188   95   97 1    
   189   95  216 1    
   190   96  217 1    
   191   96  218 1    
   192   96  219 1    
   193   97   98 2    
   194   97   99 am   BACKBONE|DICT|INTERRES
   195   99  100 1    
   196   99  220 1    
   197  100  101 1    
   198  100  102 1    
   199  100  221 1    
   200  101  222 1    
   201  101  223 1    
   202  101  224 1    
   203  102  103 2    
   204  102  104 am   BACKBONE|DICT|INTERRES
   205  104  105 1    
   206  104  225 1    
   207  105  106 1    
   208  105  107 1    
   209  105  226 1    
   210  106  227 1    
   211  106  228 1    
   212  106  229 1    
   213  107  108 2    
   214  107  109 am   BACKBONE|DICT|INTERRES
   215  109  110 1    
   216  109  230 1    
   217  110  111 1    
   218  110  112 1    
   219  110  231 1    
   220  111  232 1    
   221  111  233 1    
   222  111  234 1    
   223  112  113 2    
   224  112  114 am   BACKBONE|DICT|INTERRES
   225  114  115 1    
   226  114  235 1    
   227  115  116 1    
   228  115  117 1    
   229  115  236 1    
   230  116  237 1    
   231  116  238 1    
   232  116  239 1    
   233  117  118 2    
   234  117  119 am   BACKBONE|DICT|INTERRES
   235  119  120 1    
   236  119  240 1    
   237  120  121 1    
   238  120  124 1    
   239  120  241 1    
   240  121  122 am   BACKBONE|DICT|INTERRES
   241  121  123 2    
   242  122  242 1    
   243  122  243 1    
   244  124  125 1    
   245  124  244 1    
   246  124  245 1    
   247  125  126 1    
   248  126  246 1    
   249  126  247 1    
@<TRIPOS>SUBSTRUCTURE
     1 UNK         1 GROUP             0       ****    0 ROOT    
