@<TRIPOS>MOLECULE
3R540
247   249    1
SMALL
USER_CHARGES


@<TRIPOS>ATOM
      1 CA          1.2737  -14.3583  -50.4190 C.3       0 UNK        -0.1800 
      2 C           0.8117  -14.9466  -49.0949 C.2       0 UNK         0.5000 
      3 O          -0.3902  -15.0237  -48.8499 O.2       0 UNK        -0.5000 
      4 N           1.7569  -15.3588  -48.2384 N.am      1 UNK        -0.5000 
      5 CA          1.5324  -16.0325  -46.9469 C.3       1 UNK         0.1400 
      6 C6          0.8180  -17.4078  -47.0712 C.3       23 UNK        -0.0398 
      7 S7          1.5309  -18.5197  -48.3265 S.3       23 UNK        -0.2404 
      8 C8          0.1417  -18.6094  -49.4976 C.3       23 UNK        -0.0205 
      9 C9          0.4497  -19.5580  -50.6396 C.ar      23 UNK        -0.0193 
     10 C10         0.7368  -19.0725  -51.9171 C.ar      23 UNK        -0.1150 
     11 C11         1.0108  -19.9582  -52.9632 C.ar      23 UNK        -0.0193 
     12 C12         1.0390  -21.3344  -52.7154 C.ar      23 UNK        -0.1150 
     13 C13         0.7524  -21.8287  -51.4400 C.ar      23 UNK        -0.0193 
     14 C14         0.4337  -20.9346  -50.4157 C.ar      23 UNK        -0.1150 
     15 C15         0.7347  -23.3257  -51.1759 C.3       23 UNK        -0.0205 
     16 S16         2.3460  -23.9879  -50.6261 S.3       23 UNK        -0.2404 
     17 C17         2.6783  -23.1476  -49.0343 C.3       23 UNK        -0.0398 
     18 CA          2.0741  -23.8652  -47.7990 C.3       11 UNK         0.1400 
     19 N           2.8541  -23.6090  -46.5850 N.am      11 UNK        -0.5000 
     20 C           2.6004  -24.1283  -45.3747 C.2       10 UNK         0.5000 
     21 O           1.7117  -24.9530  -45.1588 O.2       10 UNK        -0.5000 
     22 CA          3.4471  -23.6107  -44.1966 C.3       10 UNK         0.1400 
     23 CB          4.5296  -24.6357  -43.8273 C.3       10 UNK        -0.1800 
     24 N           4.0807  -22.3054  -44.4204 N.am      10 UNK        -0.5000 
     25 C           3.4356  -21.1521  -44.6418 C.2       9 UNK         0.5000 
     26 O           2.2133  -21.0597  -44.7914 O.2       9 UNK        -0.5000 
     27 CA          4.3112  -19.8976  -44.7487 C.3       9 UNK         0.1400 
     28 CB          4.6945  -19.6196  -46.2098 C.3       9 UNK        -0.1800 
     29 N           3.5508  -18.7728  -44.2192 N.am      9 UNK        -0.5000 
     30 C           4.0000  -17.8904  -43.3200 C.2       8 UNK         0.5000 
     31 O           5.1736  -17.8347  -42.9499 O.2       8 UNK        -0.5000 
     32 CA          2.9781  -16.9041  -42.7141 C.3       8 UNK         0.1400 
     33 CB          3.2680  -15.4667  -43.1736 C.3       8 UNK        -0.1800 
     34 N           1.5722  -17.2198  -42.9903 N.am      8 UNK        -0.5000 
     35 C           0.9062  -18.2732  -42.4971 C.2       7 UNK         0.5000 
     36 O           1.4255  -19.1562  -41.8131 O.2       7 UNK        -0.5000 
     37 CA         -0.6048  -18.2907  -42.7967 C.3       7 UNK         0.1400 
     38 CB         -1.3106  -19.5813  -42.3306 C.3       7 UNK        -0.1800 
     39 N          -1.2657  -17.1001  -42.2505 N.am      7 UNK        -0.5000 
     40 C          -1.3105  -16.7044  -40.9658 C.2       6 UNK         0.5000 
     41 O          -0.8270  -17.3377  -40.0273 O.2       6 UNK        -0.5000 
     42 CA         -2.0131  -15.3646  -40.6731 C.3       6 UNK         0.1400 
     43 CB         -0.9799  -14.2559  -40.4212 C.3       6 UNK        -0.1800 
     44 N          -2.9052  -14.9626  -41.7628 N.am      6 UNK        -0.5000 
     45 C          -4.1756  -15.3761  -41.8734 C.2       5 UNK         0.5000 
     46 O          -4.7562  -16.0568  -41.0273 O.2       5 UNK        -0.5000 
     47 CA         -4.8984  -14.9991  -43.1731 C.3       5 UNK         0.1400 
     48 CB         -5.2497  -13.5031  -43.2044 C.3       5 UNK        -0.1800 
     49 N          -4.0766  -15.3332  -44.3335 N.am      5 UNK        -0.5000 
     50 C          -3.9853  -16.5563  -44.8787 C.2       4 UNK         0.5000 
     51 O          -4.5745  -17.5398  -44.4302 O.2       4 UNK        -0.5000 
     52 CA         -3.0702  -16.7181  -46.1154 C.3       4 UNK         0.1400 
     53 CB         -3.6179  -17.7254  -47.1445 C.3       4 UNK        -0.1800 
     54 N          -2.7202  -15.4498  -46.7608 N.am      4 UNK        -0.5000 
     55 C          -3.5436  -14.5352  -47.2971 C.2       3 UNK         0.5000 
     56 O          -4.7481  -14.7177  -47.4757 O.2       3 UNK        -0.5000 
     57 CA         -2.9169  -13.1649  -47.6413 C.3       3 UNK         0.1400 
     58 CB         -3.8792  -11.9962  -47.3457 C.3       3 UNK        -0.1800 
     59 N          -1.6130  -12.9293  -47.0020 N.am      3 UNK        -0.5000 
     60 C          -1.3248  -12.8789  -45.6912 C.2       2 UNK         0.5000 
     61 O          -2.1596  -13.0153  -44.7936 O.2       2 UNK        -0.5000 
     62 CA          0.1787  -12.7629  -45.3614 C.3       2 UNK         0.1400 
     63 CB          0.4749  -12.7613  -43.8491 C.3       2 UNK        -0.1800 
     64 N           0.9488  -13.8057  -46.0542 N.am      2 UNK        -0.5000 
     65 C           0.8057  -15.1341  -45.9161 C.2       1 UNK         0.5000 
     66 O           0.1076  -15.6582  -45.0433 O.2       1 UNK        -0.5000 
     67 C           0.5857  -23.5045  -47.6081 C.2       11 UNK         0.5000 
     68 O          -0.2764  -24.2711  -48.0327 O.2       11 UNK        -0.5000 
     69 N           0.3027  -22.3796  -46.9296 N.am      12 UNK        -0.5000 
     70 CA         -1.0598  -21.9240  -46.6444 C.3       12 UNK         0.1400 
     71 CB         -1.0297  -20.5136  -46.0410 C.3       12 UNK        -0.1800 
     72 C          -1.8318  -22.8832  -45.7258 C.2       12 UNK         0.5000 
     73 O          -3.0182  -23.1119  -45.9573 O.2       12 UNK        -0.5000 
     74 N          -1.1405  -23.4509  -44.7297 N.am      13 UNK        -0.5000 
     75 CA         -1.6921  -24.4576  -43.8250 C.3       13 UNK         0.1400 
     76 CB         -0.7646  -24.6189  -42.6107 C.3       13 UNK        -0.1800 
     77 C          -1.9212  -25.8061  -44.5319 C.2       13 UNK         0.5000 
     78 O          -2.9485  -26.4439  -44.3012 O.2       13 UNK        -0.5000 
     79 N          -0.9717  -26.2025  -45.3906 N.am      14 UNK        -0.5000 
     80 CA         -1.0136  -27.4412  -46.1666 C.3       14 UNK         0.1400 
     81 CB          0.3691  -27.6994  -46.7856 C.3       14 UNK        -0.1800 
     82 C          -2.1059  -27.4385  -47.2523 C.2       14 UNK         0.5000 
     83 O          -2.8446  -28.4168  -47.3724 O.2       14 UNK        -0.5000 
     84 N          -2.1872  -26.3466  -48.0236 N.am      15 UNK        -0.5000 
     85 CA         -3.1219  -26.1908  -49.1406 C.3       15 UNK         0.1400 
     86 CB         -2.5494  -25.1617  -50.1286 C.3       15 UNK        -0.1800 
     87 C          -4.5390  -25.7723  -48.7084 C.2       15 UNK         0.5000 
     88 O          -5.4631  -25.9022  -49.5118 O.2       15 UNK        -0.5000 
     89 N          -4.6781  -25.2652  -47.4734 N.am      16 UNK        -0.5000 
     90 CA         -5.8606  -24.5948  -46.9205 C.3       16 UNK         0.1400 
     91 CB         -7.0730  -25.5466  -46.8349 C.3       16 UNK        -0.1800 
     92 C          -6.1460  -23.2838  -47.6834 C.2       16 UNK         0.5000 
     93 O          -7.2344  -23.0992  -48.2318 O.2       16 UNK        -0.5000 
     94 N          -5.1213  -22.4189  -47.6937 N.am      17 UNK        -0.5000 
     95 CA         -4.9786  -21.1404  -48.3967 C.3       17 UNK         0.1400 
     96 CB         -6.1256  -20.1695  -48.0478 C.3       17 UNK        -0.1800 
     97 C          -4.7978  -21.2801  -49.9223 C.2       17 UNK         0.5000 
     98 O          -5.1484  -22.3006  -50.5172 O.2       17 UNK        -0.5000 
     99 N          -4.2465  -20.2220  -50.5267 N.am      18 UNK        -0.5000 
    100 CA        -4.0631  -20.0581  -51.9656 C.3       18 UNK         0.1400 
    101 CB        -2.8979  -20.9208  -52.4906 C.3       18 UNK        -0.1800 
    102 C         -3.8639  -18.5622  -52.2323 C.2       18 UNK         0.5000 
    103 O         -4.7927  -17.9011  -52.6975 O.2       18 UNK        -0.5000 
    104 N         -2.6766  -18.0513  -51.8708 N.am      19 UNK        -0.5000 
    105 CA        -2.2662  -16.6432  -51.9141 C.3       19 UNK         0.1400 
    106 CB        -2.9589  -15.8573  -50.7792 C.3       19 UNK        -0.1800 
    107 C         -2.4545  -16.0214  -53.3128 C.2       19 UNK         0.5000 
    108 O         -1.6879  -16.3401  -54.2223 O.2       19 UNK        -0.5000 
    109 N         -3.4863  -15.1803  -53.4702 N.am      20 UNK        -0.5000 
    110 CA        -3.8722  -14.5192  -54.7189 C.3       20 UNK         0.1400 
    111 CB        -5.0342  -13.5562  -54.4332 C.3       20 UNK        -0.1800 
    112 C         -4.2430  -15.4870  -55.8608 C.2       20 UNK         0.5000 
    113 O         -4.1142  -15.1125  -57.0278 O.2       20 UNK        -0.5000 
    114 N         -4.6477  -16.7218  -55.5215 N.am      21 UNK        -0.5000 
    115 CA        -4.9336  -17.8020  -56.4721 C.3       21 UNK         0.1400 
    116 CB        -5.4929  -19.0141  -55.7118 C.3       21 UNK        -0.1800 
    117 C         -3.7169  -18.2222  -57.3238 C.2       21 UNK         0.5000 
    118 O         -3.9049  -18.7728  -58.4094 O.2       21 UNK        -0.5000 
    119 N         -2.5021  -17.9404  -56.8345 N.am      22 UNK        -0.5000 
    120 CA        -1.2374  -18.1382  -57.5587 C.3       22 UNK         0.1400 
    121 C         -0.9512  -17.0563  -58.6435 C.2       22 UNK         0.5000 
    122 N         -1.7301  -15.9848  -58.7532 N.am      22 UNK        -0.7600 
    123 O         -0.0037  -17.1966  -59.4120 O.2       22 UNK        -0.5000 
    124 C124       -0.0355  -18.2761  -56.5895 C.3       23 UNK        -0.0398 
    125 S125       -0.2832  -19.5886  -55.3488 S.3       23 UNK        -0.2404 
    126 C126        1.2380  -19.4267  -54.3669 C.3       23 UNK        -0.0205 
    127 H127        2.3610  -14.3258  -50.4911 H         1 UNK         0.0600 
    128 H128        0.8928  -13.3434  -50.5315 H         1 UNK         0.0600 
    129 H129        0.8949  -14.9593  -51.2456 H         1 UNK         0.0600 
    130 H130        2.7267  -15.2666  -48.5073 H         1 UNK         0.3000 
    131 H131        2.5243  -16.2189  -46.5329 H         1 UNK         0.0600 
    132 H132        0.8606  -17.9375  -46.1183 H         1 UNK         0.0800 
    133 H133       -0.2415  -17.2650  -47.2871 H         1 UNK         0.0800 
    134 H134       -0.7580  -18.9483  -48.9832 H         1 UNK         0.0800 
    135 H135       -0.0753  -17.6110  -49.8748 H         1 UNK         0.0800 
    136 H136        0.7330  -18.0081  -52.1040 H         1 UNK         0.1150 
    137 H137        1.2553  -22.0202  -53.5226 H         1 UNK         0.1150 
    138 H138        0.1856  -21.3053  -49.4337 H         1 UNK         0.1150 
    139 H139       -0.0388  -23.5625  -50.4490 H         1 UNK         0.0800 
    140 H140        0.4435  -23.8500  -52.0872 H         1 UNK         0.0800 
    141 H141        3.7654  -23.1429  -48.9438 H         1 UNK         0.0800 
    142 H142        2.4048  -22.0940  -49.0742 H         1 UNK         0.0800 
    143 H143        2.1273  -24.9425  -47.9690 H         1 UNK         0.0600 
    144 H144        3.6047  -22.9393  -46.6599 H         1 UNK         0.3000 
    145 H145        2.7728  -23.5052  -43.3441 H         1 UNK         0.0600 
    146 H146        5.0704  -24.3340  -42.9302 H         1 UNK         0.0600 
    147 H147        4.0903  -25.6137  -43.6251 H         1 UNK         0.0600 
    148 H148        5.2551  -24.7620  -44.6320 H         1 UNK         0.0600 
    149 H149        5.0870  -22.2866  -44.3352 H         1 UNK         0.3000 
    150 H150        5.2193  -20.0568  -44.1632 H         1 UNK         0.0600 
    151 H151        5.2992  -20.4305  -46.6171 H         1 UNK         0.0600 
    152 H152        5.2779  -18.7028  -46.2964 H         1 UNK         0.0600 
    153 H153        3.8147  -19.5169  -46.8436 H         1 UNK         0.0600 
    154 H154        2.5580  -18.8165  -44.4006 H         1 UNK         0.3000 
    155 H155        3.1112  -16.9400  -41.6308 H         1 UNK         0.0600 
    156 H156        2.5664  -14.7602  -42.7301 H         1 UNK         0.0600 
    157 H157        3.2106  -15.3684  -44.2567 H         1 UNK         0.0600 
    158 H158        4.2698  -15.1568  -42.8735 H         1 UNK         0.0600 
    159 H159        1.0550  -16.5445  -43.5442 H         1 UNK         0.3000 
    160 H160       -0.7073  -18.2360  -43.8813 H         1 UNK         0.0600 
    161 H161       -1.2656  -19.7042  -41.2484 H         1 UNK         0.0600 
    162 H162       -0.8483  -20.4633  -42.7752 H         1 UNK         0.0600 
    163 H163       -2.3604  -19.5812  -42.6246 H         1 UNK         0.0600 
    164 H164       -1.6720  -16.4777  -42.9325 H         1 UNK         0.3000 
    165 H165       -2.5950  -15.4887  -39.7572 H         1 UNK         0.0600 
    166 H166       -0.2852  -14.1517  -41.2521 H         1 UNK         0.0600 
    167 H167       -1.4622  -13.2919  -40.2589 H         1 UNK         0.0600 
    168 H168       -0.3872  -14.4759  -39.5325 H         1 UNK         0.0600 
    169 H169       -2.5132  -14.3842  -42.4936 H         1 UNK         0.3000 
    170 H170       -5.8316  -15.5646  -43.2218 H         1 UNK         0.0600 
    171 H171       -5.8865  -13.2352  -42.3605 H         1 UNK         0.0600 
    172 H172       -4.3608  -12.8730  -43.1577 H         1 UNK         0.0600 
    173 H173       -5.7910  -13.2467  -44.1154 H         1 UNK         0.0600 
    174 H174       -3.5296  -14.5771  -44.7309 H         1 UNK         0.3000 
    175 H175       -2.1366  -17.1269  -45.7290 H         1 UNK         0.0600 
    176 H176       -3.8016  -18.6948  -46.6815 H         1 UNK         0.0600 
    177 H177       -4.5581  -17.3863  -47.5786 H         1 UNK         0.0600 
    178 H178       -2.9083  -17.8832  -47.9560 H         1 UNK         0.0600 
    179 H179       -1.7470  -15.1863  -46.6943 H         1 UNK         0.3000 
    180 H180       -2.7304  -13.1813  -48.7159 H         1 UNK         0.0600 
    181 H181       -4.1700  -11.9671  -46.2951 H         1 UNK         0.0600 
    182 H182       -4.7931  -12.0813  -47.9346 H         1 UNK         0.0600 
    183 H183       -3.4239  -11.0377  -47.5947 H         1 UNK         0.0600 
    184 H184       -0.8370  -12.8958  -47.6484 H         1 UNK         0.3000 
    185 H185        0.5100  -11.8037  -45.7619 H         1 UNK         0.0600 
    186 H186        1.5384  -12.6209  -43.6572 H         1 UNK         0.0600 
    187 H187       -0.0568  -11.9527  -43.3463 H         1 UNK         0.0600 
    188 H188        0.1699  -13.6942  -43.3801 H         1 UNK         0.0600 
    189 H189        1.5543  -13.4813  -46.7953 H         1 UNK         0.3000 
    190 H190        1.0581  -21.8346  -46.5310 H         1 UNK         0.3000 
    191 H191       -1.6020  -21.8750  -47.5913 H         1 UNK         0.0600 
    192 H192       -0.6638  -19.7916  -46.7653 H         1 UNK         0.0600 
    193 H193       -2.0262  -20.1902  -45.7374 H         1 UNK         0.0600 
    194 H194       -0.3860  -20.4656  -45.1633 H         1 UNK         0.0600 
    195 H195       -0.1580  -23.2381  -44.6368 H         1 UNK         0.3000 
    196 H196       -2.6595  -24.1005  -43.4651 H         1 UNK         0.0600 
    197 H197       -1.1748  -25.3389  -41.9016 H         1 UNK         0.0600 
    198 H198       -0.6420  -23.6743  -42.0805 H         1 UNK         0.0600 
    199 H199        0.2256  -24.9723  -42.8993 H         1 UNK         0.0600 
    200 H200       -0.1351  -25.6351  -45.4851 H         1 UNK         0.3000 
    201 H201       -1.2316  -28.2604  -45.4781 H         1 UNK         0.0600 
    202 H202        1.1382  -27.7701  -46.0161 H         1 UNK         0.0600 
    203 H203        0.6579  -26.9041  -47.4732 H         1 UNK         0.0600 
    204 H204        0.3787  -28.6363  -47.3438 H         1 UNK         0.0600 
    205 H205       -1.5153  -25.5923  -47.8897 H         1 UNK         0.3000 
    206 H206       -3.2071  -27.1460  -49.6631 H         1 UNK         0.0600 
    207 H207       -1.5652  -25.4651  -50.4852 H         1 UNK         0.0600 
    208 H208       -3.1933  -25.0553  -51.0026 H         1 UNK         0.0600 
    209 H209       -2.4566  -24.1751  -49.6723 H         1 UNK         0.0600 
    210 H210       -3.8423  -25.1948  -46.9088 H         1 UNK         0.3000 
    211 H211       -5.6013  -24.3114  -45.8992 H         1 UNK         0.0600 
    212 H212       -7.4453  -25.8323  -47.8187 H         1 UNK         0.0600 
    213 H213       -7.8981  -25.0714  -46.3035 H         1 UNK         0.0600 
    214 H214       -6.8196  -26.4582  -46.2939 H         1 UNK         0.0600 
    215 H215       -4.2982  -22.7040  -47.1666 H         1 UNK         0.3000 
    216 H216       -4.0521  -20.7125  -48.0118 H         1 UNK         0.0600 
    217 H217       -6.2228  -20.0451  -46.9692 H         1 UNK         0.0600 
    218 H218       -7.0849  -20.5122  -48.4355 H         1 UNK         0.0600 
    219 H219       -5.9489  -19.1813  -48.4724 H         1 UNK         0.0600 
    220 H220       -4.0221  -19.4050  -49.9765 H         1 UNK         0.3000 
    221 H221       -4.9791  -20.3630  -52.4764 H         1 UNK         0.0600 
    222 H222       -1.9793  -20.7493  -51.9326 H         1 UNK         0.0600 
    223 H223       -3.1299  -21.9833  -52.4195 H         1 UNK         0.0600 
    224 H224       -2.6922  -20.7053  -53.5399 H         1 UNK         0.0600 
    225 H225       -1.9653  -18.6993  -51.5654 H         1 UNK         0.3000 
    226 H226       -1.1943  -16.6162  -51.7199 H         1 UNK         0.0600 
    227 H227       -2.6827  -16.2646  -49.8071 H         1 UNK         0.0600 
    228 H228       -2.6522  -14.8106  -50.7810 H         1 UNK         0.0600 
    229 H229       -4.0465  -15.8904  -50.8491 H         1 UNK         0.0600 
    230 H230       -4.0866  -15.0169  -52.6752 H         1 UNK         0.3000 
    231 H231       -3.0161  -13.9327  -55.0582 H         1 UNK         0.0600 
    232 H232       -5.3312  -13.0221  -55.3368 H         1 UNK         0.0600 
    233 H233       -4.7539  -12.8069  -53.6926 H         1 UNK         0.0600 
    234 H234       -5.9123  -14.0858  -54.0612 H         1 UNK         0.0600 
    235 H235       -4.7171  -16.9569  -54.5365 H         1 UNK         0.3000 
    236 H236       -5.7041  -17.4417  -57.1565 H         1 UNK         0.0600 
    237 H237       -6.3578  -18.7404  -55.1072 H         1 UNK         0.0600 
    238 H238       -5.8133  -19.7937  -56.4040 H         1 UNK         0.0600 
    239 H239       -4.7442  -19.4527  -55.0519 H         1 UNK         0.0600 
    240 H240       -2.4246  -17.4843  -55.9332 H         1 UNK         0.3000 
    241 H241       -1.3171  -19.0819  -58.1016 H         1 UNK         0.0600 
    242 H242       -2.5226  -15.8431  -58.1377 H         1 UNK         0.3800 
    243 H243       -1.5289  -15.3014  -59.4661 H         1 UNK         0.3800 
    244 H244        0.1378  -17.3328  -56.0686 H         1 UNK         0.0800 
    245 H245        0.8793  -18.5002  -57.1411 H         1 UNK         0.0800 
    246 H246        2.0480  -19.9724  -54.8528 H         1 UNK         0.0800 
    247 H247        1.5460  -18.3808  -54.3260 H         1 UNK         0.0800 
@<TRIPOS>BOND
     1    1    2 1    
     2    1  127 1    
     3    1  128 1    
     4    1  129 1    
     5    2    3 2    
     6    2    4 am   BACKBONE|DICT|INTERRES
     7    4    5 1    
     8    4  130 1    
     9    5    6 1    
    10    5   65 1    
    11    5  131 1    
    12    6    7 1    
    13    6  132 1    
    14    6  133 1    
    15    7    8 1    
    16    8    9 1    
    17    8  134 1    
    18    8  135 1    
    19    9   10 ar   
    20    9   14 ar   
    21   10   11 ar   
    22   10  136 1    
    23   11   12 ar   
    24   11  126 1    
    25   12   13 ar   
    26   12  137 1    
    27   13   14 ar   
    28   13   15 1    
    29   14  138 1    
    30   15   16 1    
    31   15  139 1    
    32   15  140 1    
    33   16   17 1    
    34   17   18 1    
    35   17  141 1    
    36   17  142 1    
    37   18   19 1    
    38   18   67 1    
    39   18  143 1    
    40   19   20 am   BACKBONE|DICT|INTERRES
    41   19  144 1    
    42   20   21 2    
    43   20   22 1    
    44   22   23 1    
    45   22   24 1    
    46   22  145 1    
    47   23  146 1    
    48   23  147 1    
    49   23  148 1    
    50   24   25 am   BACKBONE|DICT|INTERRES
    51   24  149 1    
    52   25   26 2    
    53   25   27 1    
    54   27   28 1    
    55   27   29 1    
    56   27  150 1    
    57   28  151 1    
    58   28  152 1    
    59   28  153 1    
    60   29   30 am   BACKBONE|DICT|INTERRES
    61   29  154 1    
    62   30   31 2    
    63   30   32 1    
    64   32   33 1    
    65   32   34 1    
    66   32  155 1    
    67   33  156 1    
    68   33  157 1    
    69   33  158 1    
    70   34   35 am   BACKBONE|DICT|INTERRES
    71   34  159 1    
    72   35   36 2    
    73   35   37 1    
    74   37   38 1    
    75   37   39 1    
    76   37  160 1    
    77   38  161 1    
    78   38  162 1    
    79   38  163 1    
    80   39   40 am   BACKBONE|DICT|INTERRES
    81   39  164 1    
    82   40   41 2    
    83   40   42 1    
    84   42   43 1    
    85   42   44 1    
    86   42  165 1    
    87   43  166 1    
    88   43  167 1    
    89   43  168 1    
    90   44   45 am   BACKBONE|DICT|INTERRES
    91   44  169 1    
    92   45   46 2    
    93   45   47 1    
    94   47   48 1    
    95   47   49 1    
    96   47  170 1    
    97   48  171 1    
    98   48  172 1    
    99   48  173 1    
   100   49   50 am   BACKBONE|DICT|INTERRES
   101   49  174 1    
   102   50   51 2    
   103   50   52 1    
   104   52   53 1    
   105   52   54 1    
   106   52  175 1    
   107   53  176 1    
   108   53  177 1    
   109   53  178 1    
   110   54   55 am   BACKBONE|DICT|INTERRES
   111   54  179 1    
   112   55   56 2    
   113   55   57 1    
   114   57   58 1    
   115   57   59 1    
   116   57  180 1    
   117   58  181 1    
   118   58  182 1    
   119   58  183 1    
   120   59   60 am   BACKBONE|DICT|INTERRES
   121   59  184 1    
   122   60   61 2    
   123   60   62 1    
   124   62   63 1    
   125   62   64 1    
   126   62  185 1    
   127   63  186 1    
   128   63  187 1    
   129   63  188 1    
   130   64   65 am   BACKBONE|DICT|INTERRES
   131   64  189 1    
   132   65   66 2    
   133   67   68 2    
   134   67   69 am   BACKBONE|DICT|INTERRES
   135   69   70 1    
   136   69  190 1    
   137   70   71 1    
   138   70   72 1    
   139   70  191 1    
   140   71  192 1    
   141   71  193 1    
   142   71  194 1    
   143   72   73 2    
   144   72   74 am   BACKBONE|DICT|INTERRES
   145   74   75 1    
   146   74  195 1    
   147   75   76 1    
   148   75   77 1    
   149   75  196 1    
   150   76  197 1    
   151   76  198 1    
   152   76  199 1    
   153   77   78 2    
   154   77   79 am   BACKBONE|DICT|INTERRES
   155   79   80 1    
   156   79  200 1    
   157   80   81 1    
   158   80   82 1    
   159   80  201 1    
   160   81  202 1    
   161   81  203 1    
   162   81  204 1    
   163   82   83 2    
   164   82   84 am   BACKBONE|DICT|INTERRES
   165   84   85 1    
   166   84  205 1    
   167   85   86 1    
   168   85   87 1    
   169   85  206 1    
   170   86  207 1    
   171   86  208 1    
   172   86  209 1    
   173   87   88 2    
   174   87   89 am   BACKBONE|DICT|INTERRES
   175   89   90 1    
   176   89  210 1    
   177   90   91 1    
   178   90   92 1    
   179   90  211 1    
   180   91  212 1    
   181   91  213 1    
   182   91  214 1    
   183   92   93 2    
   184   92   94 am   BACKBONE|DICT|INTERRES
   185   94   95 1    
   186   94  215 1    
   187   95   96 1    
   188   95   97 1    
   189   95  216 1    
   190   96  217 1    
   191   96  218 1    
   192   96  219 1    
   193   97   98 2    
   194   97   99 am   BACKBONE|DICT|INTERRES
   195   99  100 1    
   196   99  220 1    
   197  100  101 1    
   198  100  102 1    
   199  100  221 1    
   200  101  222 1    
   201  101  223 1    
   202  101  224 1    
   203  102  103 2    
   204  102  104 am   BACKBONE|DICT|INTERRES
   205  104  105 1    
   206  104  225 1    
   207  105  106 1    
   208  105  107 1    
   209  105  226 1    
   210  106  227 1    
   211  106  228 1    
   212  106  229 1    
   213  107  108 2    
   214  107  109 am   BACKBONE|DICT|INTERRES
   215  109  110 1    
   216  109  230 1    
   217  110  111 1    
   218  110  112 1    
   219  110  231 1    
   220  111  232 1    
   221  111  233 1    
   222  111  234 1    
   223  112  113 2    
   224  112  114 am   BACKBONE|DICT|INTERRES
   225  114  115 1    
   226  114  235 1    
   227  115  116 1    
   228  115  117 1    
   229  115  236 1    
   230  116  237 1    
   231  116  238 1    
   232  116  239 1    
   233  117  118 2    
   234  117  119 am   BACKBONE|DICT|INTERRES
   235  119  120 1    
   236  119  240 1    
   237  120  121 1    
   238  120  124 1    
   239  120  241 1    
   240  121  122 am   BACKBONE|DICT|INTERRES
   241  121  123 2    
   242  122  242 1    
   243  122  243 1    
   244  124  125 1    
   245  124  244 1    
   246  124  245 1    
   247  125  126 1    
   248  126  246 1    
   249  126  247 1    
@<TRIPOS>SUBSTRUCTURE
     1 UNK         1 GROUP             0       ****    0 ROOT    
