@<TRIPOS>MOLECULE
3R540
247   249    1
SMALL
USER_CHARGES


@<TRIPOS>ATOM
      1 CA         -4.7265  -13.3207  -51.2926 C.3       0 UNK        -0.1800 
      2 C          -3.4040  -12.7120  -50.8479 C.2       0 UNK         0.5000 
      3 O          -2.9633  -11.7170  -51.4229 O.2       0 UNK        -0.5000 
      4 N          -2.7683  -13.3132  -49.8342 N.am      1 UNK        -0.5000 
      5 CA         -1.4670  -12.9001  -49.2937 C.3       1 UNK         0.1400 
      6 C6         -0.8714  -13.9696  -48.3481 C.3       23 UNK        -0.0398 
      7 S7         -0.5395  -15.5547  -49.1807 S.3       23 UNK        -0.2404 
      8 C8          1.2323  -15.3596  -49.5340 C.3       23 UNK        -0.0205 
      9 C9          1.8179  -16.6037  -50.1793 C.ar      23 UNK        -0.0193 
     10 C10         1.8876  -16.7175  -51.5711 C.ar      23 UNK        -0.1150 
     11 C11         2.4649  -17.8452  -52.1648 C.ar      23 UNK        -0.0193 
     12 C12         2.9714  -18.8635  -51.3516 C.ar      23 UNK        -0.1150 
     13 C13         2.8999  -18.7623  -49.9596 C.ar      23 UNK        -0.0193 
     14 C14         2.3235  -17.6309  -49.3793 C.ar      23 UNK        -0.1150 
     15 C15         3.4724  -19.8587  -49.0805 C.3       23 UNK        -0.0205 
     16 S16         2.2609  -21.1787  -48.7837 S.3       23 UNK        -0.2404 
     17 C17         3.3151  -22.3244  -47.8309 C.3       23 UNK        -0.0398 
     18 CA          2.5527  -23.3635  -46.9757 C.3       11 UNK         0.1400 
     19 N           1.7867  -22.7464  -45.8842 N.am      11 UNK        -0.5000 
     20 C           1.4118  -23.4074  -44.7790 C.2       10 UNK         0.5000 
     21 O           1.7016  -24.5860  -44.5697 O.2       10 UNK        -0.5000 
     22 CA          0.5567  -22.6610  -43.7356 C.3       10 UNK         0.1400 
     23 CB          1.4473  -22.1276  -42.6041 C.3       10 UNK        -0.1800 
     24 N          -0.2728  -21.5682  -44.2489 N.am      10 UNK        -0.5000 
     25 C          -1.1773  -21.6597  -45.2325 C.2       9 UNK         0.5000 
     26 O          -1.3668  -22.6771  -45.8983 O.2       9 UNK        -0.5000 
     27 CA         -2.0313  -20.4135  -45.5278 C.3       9 UNK         0.1400 
     28 CB         -3.2758  -20.4188  -44.6277 C.3       9 UNK        -0.1800 
     29 N          -1.3747  -19.1082  -45.4000 N.am      9 UNK        -0.5000 
     30 C          -0.1687  -18.7310  -45.8507 C.2       8 UNK         0.5000 
     31 O           0.6544  -19.4988  -46.3461 O.2       8 UNK        -0.5000 
     32 CA          0.1541  -17.2262  -45.7592 C.3       8 UNK         0.1400 
     33 CB         -1.0931  -16.3331  -45.5976 C.3       8 UNK        -0.1800 
     34 N           1.0518  -16.9529  -44.6464 N.am      8 UNK        -0.5000 
     35 C           2.3862  -17.0535  -44.6674 C.2       7 UNK         0.5000 
     36 O           3.0424  -17.3864  -45.6542 O.2       7 UNK        -0.5000 
     37 CA          3.1114  -16.6985  -43.3586 C.3       7 UNK         0.1400 
     38 CB          3.2941  -15.1762  -43.2432 C.3       7 UNK        -0.1800 
     39 N           2.3646  -17.1784  -42.1961 N.am      7 UNK        -0.5000 
     40 C           2.5909  -18.3430  -41.5744 C.2       6 UNK         0.5000 
     41 O           3.5106  -19.1077  -41.8670 O.2       6 UNK        -0.5000 
     42 CA          1.6320  -18.7246  -40.4277 C.3       6 UNK         0.1400 
     43 CB          2.2019  -18.2646  -39.0773 C.3       6 UNK        -0.1800 
     44 N           0.2826  -18.1783  -40.5836 N.am      6 UNK        -0.5000 
     45 C          -0.5801  -18.5351  -41.5447 C.2       5 UNK         0.5000 
     46 O          -0.3464  -19.3976  -42.3889 O.2       5 UNK        -0.5000 
     47 CA         -1.9187  -17.7750  -41.6024 C.3       5 UNK         0.1400 
     48 CB         -2.9931  -18.5275  -40.8038 C.3       5 UNK        -0.1800 
     49 N          -1.8650  -16.3812  -41.1442 N.am      5 UNK        -0.5000 
     50 C          -1.0494  -15.4315  -41.6216 C.2       4 UNK         0.5000 
     51 O          -0.1438  -15.6487  -42.4299 O.2       4 UNK        -0.5000 
     52 CA         -1.2516  -14.0101  -41.0664 C.3       4 UNK         0.1400 
     53 CB         -0.4218  -13.8218  -39.7871 C.3       4 UNK        -0.1800 
     54 N          -0.8679  -12.9795  -42.0331 N.am      4 UNK        -0.5000 
     55 C          -1.4678  -12.7690  -43.2116 C.2       3 UNK         0.5000 
     56 O          -2.4668  -13.3836  -43.5981 O.2       3 UNK        -0.5000 
     57 CA         -0.8349  -11.6944  -44.1084 C.3       3 UNK         0.1400 
     58 CB          0.5049  -12.1796  -44.6927 C.3       3 UNK        -0.1800 
     59 N          -1.7474  -11.3850  -45.2039 N.am      3 UNK        -0.5000 
     60 C          -1.9238  -10.1859  -45.7704 C.2       2 UNK         0.5000 
     61 O          -1.3414   -9.1632  -45.4036 O.2       2 UNK        -0.5000 
     62 CA         -2.8980  -10.1515  -46.9708 C.3       2 UNK         0.1400 
     63 CB         -2.8953   -8.8037  -47.7225 C.3       2 UNK        -0.1800 
     64 N          -2.6670  -11.2695  -47.8969 N.am      2 UNK        -0.5000 
     65 C          -1.5248  -11.5520  -48.5466 C.2       1 UNK         0.5000 
     66 O          -0.5285  -10.8280  -48.5445 O.2       1 UNK        -0.5000 
     67 C           1.7152  -24.3298  -47.8462 C.2       11 UNK         0.5000 
     68 O           2.2957  -25.1371  -48.5737 O.2       11 UNK        -0.5000 
     69 N           0.3823  -24.2427  -47.7571 N.am      12 UNK        -0.5000 
     70 CA         -0.5732  -25.0558  -48.5027 C.3       12 UNK         0.1400 
     71 CB         -1.0689  -24.2561  -49.7232 C.3       12 UNK        -0.1800 
     72 C          -1.7166  -25.4788  -47.5674 C.2       12 UNK         0.5000 
     73 O          -2.8795  -25.4420  -47.9698 O.2       12 UNK        -0.5000 
     74 N          -1.3709  -25.8416  -46.3224 N.am      13 UNK        -0.5000 
     75 CA         -2.2719  -26.0163  -45.1745 C.3       13 UNK         0.1400 
     76 CB         -1.4424  -26.4571  -43.9589 C.3       13 UNK        -0.1800 
     77 C          -3.4638  -26.9745  -45.3737 C.2       13 UNK         0.5000 
     78 O          -4.4762  -26.8209  -44.6900 O.2       13 UNK        -0.5000 
     79 N          -3.3379  -27.9285  -46.3058 N.am      14 UNK        -0.5000 
     80 CA         -4.4058  -28.8462  -46.7088 C.3       14 UNK         0.1400 
     81 CB         -3.8076  -29.9469  -47.5981 C.3       14 UNK        -0.1800 
     82 C          -5.5769  -28.1472  -47.4318 C.2       14 UNK         0.5000 
     83 O          -6.7061  -28.6329  -47.3522 O.2       14 UNK        -0.5000 
     84 N          -5.2902  -27.0317  -48.1160 N.am      15 UNK        -0.5000 
     85 CA         -6.2647  -26.2061  -48.8313 C.3       15 UNK         0.1400 
     86 CB         -5.8064  -26.0569  -50.2916 C.3       15 UNK        -0.1800 
     87 C          -6.4231  -24.8169  -48.1886 C.2       15 UNK         0.5000 
     88 O          -7.5016  -24.2318  -48.2863 O.2       15 UNK        -0.5000 
     89 N          -5.3419  -24.3057  -47.5776 N.am      16 UNK        -0.5000 
     90 CA         -5.1703  -22.9653  -47.0017 C.3       16 UNK         0.1400 
     91 CB         -6.1524  -22.7326  -45.8340 C.3       16 UNK        -0.1800 
     92 C          -5.2109  -21.8379  -48.0588 C.2       16 UNK         0.5000 
     93 O          -5.4663  -20.6828  -47.7171 O.2       16 UNK        -0.5000 
     94 N          -4.9693  -22.1984  -49.3269 N.am      17 UNK        -0.5000 
     95 CA         -5.1008  -21.3276  -50.4924 C.3       17 UNK         0.1400 
     96 CB         -5.1800  -22.2048  -51.7515 C.3       17 UNK        -0.1800 
     97 C          -3.9661  -20.2976  -50.6131 C.2       17 UNK         0.5000 
     98 O          -4.2410  -19.1282  -50.8864 O.2       17 UNK        -0.5000 
     99 N          -2.7189  -20.7581  -50.4238 N.am      18 UNK        -0.5000 
    100 CA        -1.4689  -19.9966  -50.5458 C.3       18 UNK         0.1400 
    101 CB        -1.2808  -19.0972  -49.3113 C.3       18 UNK        -0.1800 
    102 C         -1.3888  -19.2499  -51.8941 C.2       18 UNK         0.5000 
    103 O         -1.3285  -19.9117  -52.9305 O.2       18 UNK        -0.5000 
    104 N         -1.4732  -17.9110  -51.8784 N.am      19 UNK        -0.5000 
    105 CA        -1.5043  -17.0439  -53.0613 C.3       19 UNK         0.1400 
    106 CB        -1.6639  -15.5814  -52.6223 C.3       19 UNK        -0.1800 
    107 C         -2.5923  -17.3985  -54.0954 C.2       19 UNK         0.5000 
    108 O         -2.3683  -17.2059  -55.2914 O.2       19 UNK        -0.5000 
    109 N         -3.7291  -17.9422  -53.6353 N.am      20 UNK        -0.5000 
    110 CA        -4.8160  -18.4090  -54.4983 C.3       20 UNK         0.1400 
    111 CB        -6.0919  -18.5998  -53.6645 C.3       20 UNK        -0.1800 
    112 C         -4.4668  -19.6919  -55.2810 C.2       20 UNK         0.5000 
    113 O         -5.0648  -19.9271  -56.3316 O.2       20 UNK        -0.5000 
    114 N         -3.5055  -20.4841  -54.7826 N.am      21 UNK        -0.5000 
    115 CA        -2.9318  -21.6223  -55.5015 C.3       21 UNK         0.1400 
    116 CB        -2.4769  -22.7018  -54.5066 C.3       21 UNK        -0.1800 
    117 C         -1.7677  -21.1795  -56.4054 C.2       21 UNK         0.5000 
    118 O         -1.6099  -21.7360  -57.4930 O.2       21 UNK        -0.5000 
    119 N         -0.9862  -20.1866  -55.9550 N.am      22 UNK        -0.5000 
    120 CA         0.1019  -19.5633  -56.7291 C.3       22 UNK         0.1400 
    121 C         -0.3960  -18.8245  -58.0032 C.2       22 UNK         0.5000 
    122 N         -1.4711  -18.0502  -57.9179 N.am      22 UNK        -0.7600 
    123 O          0.1973  -18.9530  -59.0706 O.2       22 UNK        -0.5000 
    124 C124        0.9702  -18.5988  -55.8818 C.3       23 UNK        -0.0398 
    125 S125        1.6211  -19.3409  -54.3502 S.3       23 UNK        -0.2404 
    126 C126        2.5776  -17.9436  -53.6799 C.3       23 UNK        -0.0205 
    127 H127       -5.5305  -12.5928  -51.1846 H         1 UNK         0.0600 
    128 H128       -4.6693  -13.6152  -52.3406 H         1 UNK         0.0600 
    129 H129       -4.9846  -14.2032  -50.7066 H         1 UNK         0.0600 
    130 H130       -3.1700  -14.1417  -49.4194 H         1 UNK         0.3000 
    131 H131       -0.7829  -12.7715  -50.1355 H         1 UNK         0.0600 
    132 H132       -1.5608  -14.1605  -47.5251 H         1 UNK         0.0800 
    133 H133        0.0528  -13.6153  -47.8870 H         1 UNK         0.0800 
    134 H134        1.7673  -15.1445  -48.6074 H         1 UNK         0.0800 
    135 H135        1.3786  -14.4953  -50.1836 H         1 UNK         0.0800 
    136 H136        1.5060  -15.9192  -52.1912 H         1 UNK         0.1150 
    137 H137        3.4236  -19.7349  -51.8043 H         1 UNK         0.1150 
    138 H138        2.2760  -17.5499  -48.3025 H         1 UNK         0.1150 
    139 H139        4.3637  -20.2794  -49.5484 H         1 UNK         0.0800 
    140 H140        3.7907  -19.4412  -48.1234 H         1 UNK         0.0800 
    141 H141        3.9649  -21.7405  -47.1775 H         1 UNK         0.0800 
    142 H142        3.9825  -22.8313  -48.5302 H         1 UNK         0.0800 
    143 H143        3.3205  -23.9856  -46.5102 H         1 UNK         0.0600 
    144 H144        1.4940  -21.7849  -46.0145 H         1 UNK         0.3000 
    145 H145       -0.1259  -23.3954  -43.3051 H         1 UNK         0.0600 
    146 H146        0.8463  -21.7659  -41.7702 H         1 UNK         0.0600 
    147 H147        2.1023  -22.9073  -42.2131 H         1 UNK         0.0600 
    148 H148        2.0783  -21.3068  -42.9469 H         1 UNK         0.0600 
    149 H149       -0.2140  -20.6890  -43.7394 H         1 UNK         0.3000 
    150 H150       -2.3692  -20.5029  -46.5612 H         1 UNK         0.0600 
    151 H151       -3.7550  -21.3977  -44.6230 H         1 UNK         0.0600 
    152 H152       -4.0163  -19.6956  -44.9702 H         1 UNK         0.0600 
    153 H153       -3.0220  -20.1811  -43.5943 H         1 UNK         0.0600 
    154 H154       -1.9525  -18.3820  -45.0066 H         1 UNK         0.3000 
    155 H155        0.6443  -16.9435  -46.6920 H         1 UNK         0.0600 
    156 H156       -1.6222  -16.5185  -44.6630 H         1 UNK         0.0600 
    157 H157       -1.7957  -16.4830  -46.4184 H         1 UNK         0.0600 
    158 H158       -0.8129  -15.2804  -45.5965 H         1 UNK         0.0600 
    159 H159        0.6112  -16.6208  -43.7928 H         1 UNK         0.3000 
    160 H160        4.1026  -17.1561  -43.3862 H         1 UNK         0.0600 
    161 H161        3.8483  -14.9142  -42.3419 H         1 UNK         0.0600 
    162 H162        2.3369  -14.6544  -43.2105 H         1 UNK         0.0600 
    163 H163        3.8524  -14.7847  -44.0945 H         1 UNK         0.0600 
    164 H164        1.5539  -16.6318  -41.9294 H         1 UNK         0.3000 
    165 H165        1.5554  -19.8135  -40.4117 H         1 UNK         0.0600 
    166 H166        1.5757  -18.5988  -38.2499 H         1 UNK         0.0600 
    167 H167        3.1996  -18.6746  -38.9142 H         1 UNK         0.0600 
    168 H168        2.2806  -17.1780  -39.0229 H         1 UNK         0.0600 
    169 H169        0.0052  -17.4564  -39.9354 H         1 UNK         0.3000 
    170 H170       -2.2291  -17.7577  -42.6482 H         1 UNK         0.0600 
    171 H171       -3.0664  -19.5672  -41.1258 H         1 UNK         0.0600 
    172 H172       -2.7712  -18.5306  -39.7359 H         1 UNK         0.0600 
    173 H173       -3.9762  -18.0772  -40.9422 H         1 UNK         0.0600 
    174 H174       -2.5600  -16.1175  -40.4604 H         1 UNK         0.3000 
    175 H175       -2.3084  -13.8739  -40.8274 H         1 UNK         0.0600 
    176 H176        0.6456  -13.9411  -39.9789 H         1 UNK         0.0600 
    177 H177       -0.5772  -12.8318  -39.3578 H         1 UNK         0.0600 
    178 H178       -0.7017  -14.5508  -39.0256 H         1 UNK         0.0600 
    179 H179       -0.0377  -12.4510  -41.8100 H         1 UNK         0.3000 
    180 H180       -0.6686  -10.8033  -43.4994 H         1 UNK         0.0600 
    181 H181        0.3833  -13.0967  -45.2702 H         1 UNK         0.0600 
    182 H182        1.2303  -12.3827  -43.9044 H         1 UNK         0.0600 
    183 H183        0.9436  -11.4282  -45.3496 H         1 UNK         0.0600 
    184 H184       -2.3244  -12.1627  -45.4958 H         1 UNK         0.3000 
    185 H185       -3.8973  -10.2931  -46.5567 H         1 UNK         0.0600 
    186 H186       -3.1888   -7.9881  -47.0606 H         1 UNK         0.0600 
    187 H187       -1.9102   -8.5609  -48.1216 H         1 UNK         0.0600 
    188 H188       -3.5997   -8.8158  -48.5542 H         1 UNK         0.0600 
    189 H189       -3.4275  -11.9286  -47.9852 H         1 UNK         0.3000 
    190 H190       -0.0285  -23.5798  -47.1048 H         1 UNK         0.3000 
    191 H191       -0.1017  -25.9756  -48.8538 H         1 UNK         0.0600 
    192 H192       -1.5853  -23.3466  -49.4156 H         1 UNK         0.0600 
    193 H193       -1.7610  -24.8442  -50.3271 H         1 UNK         0.0600 
    194 H194       -0.2393  -23.9674  -50.3689 H         1 UNK         0.0600 
    195 H195       -0.3851  -25.8427  -46.1023 H         1 UNK         0.3000 
    196 H196       -2.6943  -25.0332  -44.9569 H         1 UNK         0.0600 
    197 H197       -2.0694  -26.5667  -43.0729 H         1 UNK         0.0600 
    198 H198       -0.6718  -25.7265  -43.7178 H         1 UNK         0.0600 
    199 H199       -0.9519  -27.4152  -44.1354 H         1 UNK         0.0600 
    200 H200       -2.4703  -27.9830  -46.8186 H         1 UNK         0.3000 
    201 H201       -4.8073  -29.3151  -45.8080 H         1 UNK         0.0600 
    202 H202       -3.0296  -30.5004  -47.0720 H         1 UNK         0.0600 
    203 H203       -3.3710  -29.5351  -48.5089 H         1 UNK         0.0600 
    204 H204       -4.5714  -30.6663  -47.8963 H         1 UNK         0.0600 
    205 H205       -4.3345  -26.6895  -48.1031 H         1 UNK         0.3000 
    206 H206       -7.2483  -26.6801  -48.8299 H         1 UNK         0.0600 
    207 H207       -5.7576  -27.0264  -50.7874 H         1 UNK         0.0600 
    208 H208       -6.5005  -25.4362  -50.8599 H         1 UNK         0.0600 
    209 H209       -4.8195  -25.5971  -50.3608 H         1 UNK         0.0600 
    210 H210       -4.4821  -24.8500  -47.6168 H         1 UNK         0.3000 
    211 H211       -4.1603  -22.9476  -46.5900 H         1 UNK         0.0600 
    212 H212       -7.1883  -22.7065  -46.1714 H         1 UNK         0.0600 
    213 H213       -5.9580  -21.7841  -45.3337 H         1 UNK         0.0600 
    214 H214       -6.0628  -23.5189  -45.0843 H         1 UNK         0.0600 
    215 H215       -4.7635  -23.1693  -49.5061 H         1 UNK         0.3000 
    216 H216       -6.0391  -20.7754  -50.4051 H         1 UNK         0.0600 
    217 H217       -5.2206  -21.6016  -52.6584 H         1 UNK         0.0600 
    218 H218       -6.0738  -22.8287  -51.7385 H         1 UNK         0.0600 
    219 H219       -4.3160  -22.8644  -51.8338 H         1 UNK         0.0600 
    220 H220       -2.6105  -21.7419  -50.2306 H         1 UNK         0.3000 
    221 H221       -0.6538  -20.7222  -50.5517 H         1 UNK         0.0600 
    222 H222       -2.0894  -18.3759  -49.1891 H         1 UNK         0.0600 
    223 H223       -1.2384  -19.7055  -48.4109 H         1 UNK         0.0600 
    224 H224       -0.3397  -18.5513  -49.3645 H         1 UNK         0.0600 
    225 H225       -1.5363  -17.4482  -50.9829 H         1 UNK         0.3000 
    226 H226       -0.5389  -17.1448  -53.5572 H         1 UNK         0.0600 
    227 H227       -1.7603  -14.9176  -53.4826 H         1 UNK         0.0600 
    228 H228       -2.5503  -15.4471  -52.0023 H         1 UNK         0.0600 
    229 H229       -0.8000  -15.2392  -52.0554 H         1 UNK         0.0600 
    230 H230       -3.8300  -18.1119  -52.6393 H         1 UNK         0.3000 
    231 H231       -5.0173  -17.6281  -55.2348 H         1 UNK         0.0600 
    232 H232       -6.3682  -17.6791  -53.1504 H         1 UNK         0.0600 
    233 H233       -5.9748  -19.3792  -52.9135 H         1 UNK         0.0600 
    234 H234       -6.9328  -18.8825  -54.2989 H         1 UNK         0.0600 
    235 H235       -3.0121  -20.1950  -53.9447 H         1 UNK         0.3000 
    236 H236       -3.6944  -22.0706  -56.1419 H         1 UNK         0.0600 
    237 H237       -2.0225  -23.5442  -55.0296 H         1 UNK         0.0600 
    238 H238       -1.7408  -22.3250  -53.7969 H         1 UNK         0.0600 
    239 H239       -3.3216  -23.0941  -53.9429 H         1 UNK         0.0600 
    240 H240       -1.1310  -19.8378  -55.0150 H         1 UNK         0.3000 
    241 H241        0.7519  -20.3738  -57.0647 H         1 UNK         0.0600 
    242 H242       -1.8040  -17.5692  -58.7381 H         1 UNK         0.3800 
    243 H243       -1.9118  -17.8752  -57.0184 H         1 UNK         0.3800 
    244 H244        1.8199  -18.2480  -56.4705 H         1 UNK         0.0800 
    245 H245        0.3969  -17.7098  -55.6167 H         1 UNK         0.0800 
    246 H246        3.6255  -18.0648  -53.9572 H         1 UNK         0.0800 
    247 H247        2.2466  -17.0118  -54.1407 H         1 UNK         0.0800 
@<TRIPOS>BOND
     1    1    2 1    
     2    1  127 1    
     3    1  128 1    
     4    1  129 1    
     5    2    3 2    
     6    2    4 am   BACKBONE|DICT|INTERRES
     7    4    5 1    
     8    4  130 1    
     9    5    6 1    
    10    5   65 1    
    11    5  131 1    
    12    6    7 1    
    13    6  132 1    
    14    6  133 1    
    15    7    8 1    
    16    8    9 1    
    17    8  134 1    
    18    8  135 1    
    19    9   10 ar   
    20    9   14 ar   
    21   10   11 ar   
    22   10  136 1    
    23   11   12 ar   
    24   11  126 1    
    25   12   13 ar   
    26   12  137 1    
    27   13   14 ar   
    28   13   15 1    
    29   14  138 1    
    30   15   16 1    
    31   15  139 1    
    32   15  140 1    
    33   16   17 1    
    34   17   18 1    
    35   17  141 1    
    36   17  142 1    
    37   18   19 1    
    38   18   67 1    
    39   18  143 1    
    40   19   20 am   BACKBONE|DICT|INTERRES
    41   19  144 1    
    42   20   21 2    
    43   20   22 1    
    44   22   23 1    
    45   22   24 1    
    46   22  145 1    
    47   23  146 1    
    48   23  147 1    
    49   23  148 1    
    50   24   25 am   BACKBONE|DICT|INTERRES
    51   24  149 1    
    52   25   26 2    
    53   25   27 1    
    54   27   28 1    
    55   27   29 1    
    56   27  150 1    
    57   28  151 1    
    58   28  152 1    
    59   28  153 1    
    60   29   30 am   BACKBONE|DICT|INTERRES
    61   29  154 1    
    62   30   31 2    
    63   30   32 1    
    64   32   33 1    
    65   32   34 1    
    66   32  155 1    
    67   33  156 1    
    68   33  157 1    
    69   33  158 1    
    70   34   35 am   BACKBONE|DICT|INTERRES
    71   34  159 1    
    72   35   36 2    
    73   35   37 1    
    74   37   38 1    
    75   37   39 1    
    76   37  160 1    
    77   38  161 1    
    78   38  162 1    
    79   38  163 1    
    80   39   40 am   BACKBONE|DICT|INTERRES
    81   39  164 1    
    82   40   41 2    
    83   40   42 1    
    84   42   43 1    
    85   42   44 1    
    86   42  165 1    
    87   43  166 1    
    88   43  167 1    
    89   43  168 1    
    90   44   45 am   BACKBONE|DICT|INTERRES
    91   44  169 1    
    92   45   46 2    
    93   45   47 1    
    94   47   48 1    
    95   47   49 1    
    96   47  170 1    
    97   48  171 1    
    98   48  172 1    
    99   48  173 1    
   100   49   50 am   BACKBONE|DICT|INTERRES
   101   49  174 1    
   102   50   51 2    
   103   50   52 1    
   104   52   53 1    
   105   52   54 1    
   106   52  175 1    
   107   53  176 1    
   108   53  177 1    
   109   53  178 1    
   110   54   55 am   BACKBONE|DICT|INTERRES
   111   54  179 1    
   112   55   56 2    
   113   55   57 1    
   114   57   58 1    
   115   57   59 1    
   116   57  180 1    
   117   58  181 1    
   118   58  182 1    
   119   58  183 1    
   120   59   60 am   BACKBONE|DICT|INTERRES
   121   59  184 1    
   122   60   61 2    
   123   60   62 1    
   124   62   63 1    
   125   62   64 1    
   126   62  185 1    
   127   63  186 1    
   128   63  187 1    
   129   63  188 1    
   130   64   65 am   BACKBONE|DICT|INTERRES
   131   64  189 1    
   132   65   66 2    
   133   67   68 2    
   134   67   69 am   BACKBONE|DICT|INTERRES
   135   69   70 1    
   136   69  190 1    
   137   70   71 1    
   138   70   72 1    
   139   70  191 1    
   140   71  192 1    
   141   71  193 1    
   142   71  194 1    
   143   72   73 2    
   144   72   74 am   BACKBONE|DICT|INTERRES
   145   74   75 1    
   146   74  195 1    
   147   75   76 1    
   148   75   77 1    
   149   75  196 1    
   150   76  197 1    
   151   76  198 1    
   152   76  199 1    
   153   77   78 2    
   154   77   79 am   BACKBONE|DICT|INTERRES
   155   79   80 1    
   156   79  200 1    
   157   80   81 1    
   158   80   82 1    
   159   80  201 1    
   160   81  202 1    
   161   81  203 1    
   162   81  204 1    
   163   82   83 2    
   164   82   84 am   BACKBONE|DICT|INTERRES
   165   84   85 1    
   166   84  205 1    
   167   85   86 1    
   168   85   87 1    
   169   85  206 1    
   170   86  207 1    
   171   86  208 1    
   172   86  209 1    
   173   87   88 2    
   174   87   89 am   BACKBONE|DICT|INTERRES
   175   89   90 1    
   176   89  210 1    
   177   90   91 1    
   178   90   92 1    
   179   90  211 1    
   180   91  212 1    
   181   91  213 1    
   182   91  214 1    
   183   92   93 2    
   184   92   94 am   BACKBONE|DICT|INTERRES
   185   94   95 1    
   186   94  215 1    
   187   95   96 1    
   188   95   97 1    
   189   95  216 1    
   190   96  217 1    
   191   96  218 1    
   192   96  219 1    
   193   97   98 2    
   194   97   99 am   BACKBONE|DICT|INTERRES
   195   99  100 1    
   196   99  220 1    
   197  100  101 1    
   198  100  102 1    
   199  100  221 1    
   200  101  222 1    
   201  101  223 1    
   202  101  224 1    
   203  102  103 2    
   204  102  104 am   BACKBONE|DICT|INTERRES
   205  104  105 1    
   206  104  225 1    
   207  105  106 1    
   208  105  107 1    
   209  105  226 1    
   210  106  227 1    
   211  106  228 1    
   212  106  229 1    
   213  107  108 2    
   214  107  109 am   BACKBONE|DICT|INTERRES
   215  109  110 1    
   216  109  230 1    
   217  110  111 1    
   218  110  112 1    
   219  110  231 1    
   220  111  232 1    
   221  111  233 1    
   222  111  234 1    
   223  112  113 2    
   224  112  114 am   BACKBONE|DICT|INTERRES
   225  114  115 1    
   226  114  235 1    
   227  115  116 1    
   228  115  117 1    
   229  115  236 1    
   230  116  237 1    
   231  116  238 1    
   232  116  239 1    
   233  117  118 2    
   234  117  119 am   BACKBONE|DICT|INTERRES
   235  119  120 1    
   236  119  240 1    
   237  120  121 1    
   238  120  124 1    
   239  120  241 1    
   240  121  122 am   BACKBONE|DICT|INTERRES
   241  121  123 2    
   242  122  242 1    
   243  122  243 1    
   244  124  125 1    
   245  124  244 1    
   246  124  245 1    
   247  125  126 1    
   248  126  246 1    
   249  126  247 1    
@<TRIPOS>SUBSTRUCTURE
     1 UNK         1 GROUP             0       ****    0 ROOT    
