@<TRIPOS>MOLECULE
3R540
247   249    1
SMALL
USER_CHARGES


@<TRIPOS>ATOM
      1 CA          4.6642  -13.3890  -50.6008 C.3       0 UNK        -0.1800 
      2 C           3.9235  -13.9416  -49.3920 C.2       0 UNK         0.5000 
      3 O           3.9016  -13.3020  -48.3400 O.2       0 UNK        -0.5000 
      4 N           3.3016  -15.1197  -49.5397 N.am      1 UNK        -0.5000 
      5 CA          2.5449  -15.8173  -48.4899 C.3       1 UNK         0.1400 
      6 C6          2.2005  -17.2789  -48.8737 C.3       23 UNK        -0.0398 
      7 S7          1.3865  -17.4658  -50.5012 S.3       23 UNK        -0.2404 
      8 C8         -0.1526  -18.3410  -50.0814 C.3       23 UNK        -0.0205 
      9 C9         -1.2331  -17.4024  -49.5748 C.ar      23 UNK        -0.0193 
     10 C10        -2.0455  -16.7231  -50.4845 C.ar      23 UNK        -0.1150 
     11 C11        -3.0332  -15.8452  -50.0341 C.ar      23 UNK        -0.0193 
     12 C12        -3.2109  -15.6588  -48.6603 C.ar      23 UNK        -0.1150 
     13 C13        -2.4041  -16.3281  -47.7336 C.ar      23 UNK        -0.0193 
     14 C14        -1.4209  -17.2093  -48.2046 C.ar      23 UNK        -0.1150 
     15 C15        -2.5755  -15.9945  -46.2506 C.3       23 UNK        -0.0205 
     16 S16        -1.7588  -17.1307  -45.0790 S.3       23 UNK        -0.2404 
     17 C17        -3.0062  -18.4428  -44.8631 C.3       23 UNK        -0.0398 
     18 CA         -2.8114  -19.6769  -45.7803 C.3       11 UNK         0.1400 
     19 N          -1.4338  -20.1863  -45.8047 N.am      11 UNK        -0.5000 
     20 C          -0.9977  -21.1372  -46.6445 C.2       10 UNK         0.5000 
     21 O          -1.6894  -21.6236  -47.5346 O.2       10 UNK        -0.5000 
     22 CA          0.4231  -21.6804  -46.4243 C.3       10 UNK         0.1400 
     23 CB          1.4557  -20.8607  -47.2117 C.3       10 UNK        -0.1800 
     24 N           0.7714  -21.7030  -45.0040 N.am      10 UNK        -0.5000 
     25 C           0.3205  -22.6246  -44.1392 C.2       9 UNK         0.5000 
     26 O          -0.3768  -23.5821  -44.4719 O.2       9 UNK        -0.5000 
     27 CA          0.6719  -22.4316  -42.6497 C.3       9 UNK         0.1400 
     28 CB          1.9992  -23.1280  -42.3158 C.3       9 UNK        -0.1800 
     29 N           0.7554  -21.0253  -42.2536 N.am      9 UNK        -0.5000 
     30 C          -0.2707  -20.1634  -42.2753 C.2       8 UNK         0.5000 
     31 O          -1.4243  -20.4895  -42.5540 O.2       8 UNK        -0.5000 
     32 CA          0.0537  -18.6795  -42.0060 C.3       8 UNK         0.1400 
     33 CB         -0.2342  -18.3235  -40.5421 C.3       8 UNK        -0.1800 
     34 N           1.4252  -18.2839  -42.3600 N.am      8 UNK        -0.5000 
     35 C           1.9573  -18.4021  -43.5888 C.2       7 UNK         0.5000 
     36 O           1.3355  -18.8791  -44.5375 O.2       7 UNK        -0.5000 
     37 CA          3.4137  -17.9510  -43.8142 C.3       7 UNK         0.1400 
     38 CB          3.5187  -17.0352  -45.0436 C.3       7 UNK        -0.1800 
     39 N           3.9867  -17.2663  -42.6566 N.am      7 UNK        -0.5000 
     40 C           4.6923  -17.8566  -41.6816 C.2       6 UNK         0.5000 
     41 O           4.9541  -19.0595  -41.6628 O.2       6 UNK        -0.5000 
     42 CA          5.1640  -16.9606  -40.5161 C.3       6 UNK         0.1400 
     43 CB          6.6058  -16.4862  -40.7517 C.3       6 UNK        -0.1800 
     44 N           4.3070  -15.7921  -40.2984 N.am      6 UNK        -0.5000 
     45 C           3.0243  -15.8513  -39.9180 C.2       5 UNK         0.5000 
     46 O           2.4517  -16.9041  -39.6391 O.2       5 UNK        -0.5000 
     47 CA          2.2200  -14.5363  -39.9092 C.3       5 UNK         0.1400 
     48 CB          3.0933  -13.2654  -39.8087 C.3       5 UNK        -0.1800 
     49 N           1.3220  -14.4603  -41.0680 N.am      5 UNK        -0.5000 
     50 C           1.6695  -14.5013  -42.3638 C.2       4 UNK         0.5000 
     51 O           2.8354  -14.6023  -42.7526 O.2       4 UNK        -0.5000 
     52 CA          0.5396  -14.4493  -43.4147 C.3       4 UNK         0.1400 
     53 CB         -0.8664  -14.1776  -42.8358 C.3       4 UNK        -0.1800 
     54 N           0.8501  -13.5097  -44.4948 N.am      4 UNK        -0.5000 
     55 C           1.0857  -12.1915  -44.3843 C.2       3 UNK         0.5000 
     56 O           1.0084  -11.5674  -43.3249 O.2       3 UNK        -0.5000 
     57 CA          1.4796  -11.4263  -45.6674 C.3       3 UNK         0.1400 
     58 CB          2.9929  -11.1613  -45.6850 C.3       3 UNK        -0.1800 
     59 N           1.1122  -12.1200  -46.9021 N.am      3 UNK        -0.5000 
     60 C          -0.1442  -12.3055  -47.3322 C.2       2 UNK         0.5000 
     61 O          -1.1268  -11.7901  -46.7982 O.2       2 UNK        -0.5000 
     62 CA         -0.3506  -13.2457  -48.5387 C.3       2 UNK         0.1400 
     63 CB         -0.6914  -12.4481  -49.8061 C.3       2 UNK        -0.1800 
     64 N           0.7774  -14.1349  -48.8290 N.am      2 UNK        -0.5000 
     65 C           1.3052  -15.0433  -47.9945 C.2       1 UNK         0.5000 
     66 O           0.8937  -15.2398  -46.8515 O.2       1 UNK        -0.5000 
     67 C          -3.8016  -20.7917  -45.3778 C.2       11 UNK         0.5000 
     68 O          -4.8332  -20.9633  -46.0273 O.2       11 UNK        -0.5000 
     69 N          -3.4410  -21.5600  -44.3378 N.am      12 UNK        -0.5000 
     70 CA         -4.1899  -22.7130  -43.8296 C.3       12 UNK         0.1400 
     71 CB         -3.5513  -23.1857  -42.5151 C.3       12 UNK        -0.1800 
     72 C          -4.2881  -23.8795  -44.8334 C.2       12 UNK         0.5000 
     73 O          -5.2691  -24.6226  -44.8045 O.2       12 UNK        -0.5000 
     74 N          -3.2969  -23.9950  -45.7269 N.am      13 UNK        -0.5000 
     75 CA         -3.2631  -24.9412  -46.8450 C.3       13 UNK         0.1400 
     76 CB         -1.7947  -25.2093  -47.2166 C.3       13 UNK        -0.1800 
     77 C          -4.0663  -24.4605  -48.0750 C.2       13 UNK         0.5000 
     78 O          -3.9986  -25.1032  -49.1213 O.2       13 UNK        -0.5000 
     79 N          -4.7813  -23.3332  -47.9443 N.am      14 UNK        -0.5000 
     80 CA         -5.5534  -22.5879  -48.9451 C.3       14 UNK         0.1400 
     81 CB         -6.5019  -23.4820  -49.7669 C.3       14 UNK        -0.1800 
     82 C          -4.6806  -21.7008  -49.8477 C.2       14 UNK         0.5000 
     83 O          -5.1516  -20.6457  -50.2696 O.2       14 UNK        -0.5000 
     84 N          -3.4356  -22.1097  -50.0967 N.am      15 UNK        -0.5000 
     85 CA         -2.3675  -21.3666  -50.7512 C.3       15 UNK         0.1400 
     86 CB         -2.7460  -20.9997  -52.2004 C.3       15 UNK        -0.1800 
     87 C          -1.0905  -22.2224  -50.6965 C.2       15 UNK         0.5000 
     88 O          -1.1646  -23.4148  -50.3886 O.2       15 UNK        -0.5000 
     89 N           0.0604  -21.6113  -51.0160 N.am      16 UNK        -0.5000 
     90 CA          1.3594  -22.2895  -51.1082 C.3       16 UNK         0.1400 
     91 CB          2.4696  -21.2406  -51.2758 C.3       16 UNK        -0.1800 
     92 C           1.3959  -23.3226  -52.2525 C.2       16 UNK         0.5000 
     93 O           1.9705  -24.3997  -52.0932 O.2       16 UNK        -0.5000 
     94 N           0.7182  -22.9869  -53.3559 N.am      17 UNK        -0.5000 
     95 CA          0.2610  -23.9124  -54.3815 C.3       17 UNK         0.1400 
     96 CB          0.6785  -23.3877  -55.7663 C.3       17 UNK        -0.1800 
     97 C          -1.2623  -23.9575  -54.2126 C.2       17 UNK         0.5000 
     98 O          -1.9519  -23.0645  -54.7069 O.2       17 UNK        -0.5000 
     99 N          -1.7452  -24.9391  -53.4376 N.am      18 UNK        -0.5000 
    100 CA        -3.1091  -25.0394  -52.8956 C.3       18 UNK         0.1400 
    101 CB        -3.2476  -26.3713  -52.1448 C.3       18 UNK        -0.1800 
    102 C         -4.2517  -24.8826  -53.9175 C.2       18 UNK         0.5000 
    103 O         -5.3170  -24.3776  -53.5620 O.2       18 UNK        -0.5000 
    104 N         -3.9911  -25.2698  -55.1738 N.am      19 UNK        -0.5000 
    105 CA        -4.8837  -25.1179  -56.3241 C.3       19 UNK         0.1400 
    106 CB        -4.2392  -25.8013  -57.5398 C.3       19 UNK        -0.1800 
    107 C         -5.2550  -23.6576  -56.6623 C.2       19 UNK         0.5000 
    108 O         -6.2770  -23.4428  -57.3153 O.2       19 UNK        -0.5000 
    109 N         -4.4481  -22.6820  -56.2131 N.am      20 UNK        -0.5000 
    110 CA        -4.7388  -21.2506  -56.3370 C.3       20 UNK         0.1400 
    111 CB        -3.4830  -20.4388  -55.9880 C.3       20 UNK        -0.1800 
    112 C         -5.9375  -20.8025  -55.4748 C.2       20 UNK         0.5000 
    113 O         -6.6316  -19.8629  -55.8640 O.2       20 UNK        -0.5000 
    114 N         -6.1696  -21.5064  -54.3537 N.am      21 UNK        -0.5000 
    115 CA        -7.3335  -21.4262  -53.4653 C.3       21 UNK         0.1400 
    116 CB        -8.5316  -22.1378  -54.1255 C.3       21 UNK        -0.1800 
    117 C         -7.6744  -19.9983  -52.9854 C.2       21 UNK         0.5000 
    118 O         -8.8020  -19.5333  -53.1672 O.2       21 UNK        -0.5000 
    119 N         -6.6866  -19.3264  -52.3829 N.am      22 UNK        -0.5000 
    120 CA        -6.8582  -18.0266  -51.7165 C.3       22 UNK         0.1400 
    121 C         -7.6995  -18.1377  -50.4110 C.2       22 UNK         0.5000 
    122 N         -7.4447  -19.1359  -49.5749 N.am      22 UNK        -0.7600 
    123 O         -8.5959  -17.3339  -50.1686 O.2       22 UNK        -0.5000 
    124 C124       -5.4857  -17.3544  -51.4607 C.3       23 UNK        -0.0398 
    125 S125       -5.6244  -15.5875  -51.0234 S.3       23 UNK        -0.2404 
    126 C126       -3.8797  -15.0713  -51.0350 C.3       23 UNK        -0.0205 
    127 H127        4.5920  -14.0560  -51.4604 H         1 UNK         0.0600 
    128 H128        5.7193  -13.2527  -50.3633 H         1 UNK         0.0600 
    129 H129        4.2494  -12.4216  -50.8844 H         1 UNK         0.0600 
    130 H130        3.3351  -15.5934  -50.4320 H         1 UNK         0.3000 
    131 H131        3.2135  -15.8674  -47.6292 H         1 UNK         0.0600 
    132 H132        3.1211  -17.8630  -48.9072 H         1 UNK         0.0800 
    133 H133        1.5961  -17.7439  -48.0941 H         1 UNK         0.0800 
    134 H134       -0.5134  -18.8316  -50.9850 H         1 UNK         0.0800 
    135 H135        0.0448  -19.1300  -49.3551 H         1 UNK         0.0800 
    136 H136       -1.8956  -16.8668  -51.5454 H         1 UNK         0.1150 
    137 H137       -3.9632  -14.9639  -48.3139 H         1 UNK         0.1150 
    138 H138       -0.7701  -17.7230  -47.5131 H         1 UNK         0.1150 
    139 H139       -2.1505  -15.0029  -46.0890 H         1 UNK         0.0800 
    140 H140       -3.6350  -15.9154  -46.0040 H         1 UNK         0.0800 
    141 H141       -4.0008  -18.0196  -45.0120 H         1 UNK         0.0800 
    142 H142       -2.9683  -18.7356  -43.8129 H         1 UNK         0.0800 
    143 H143       -3.0587  -19.3726  -46.7998 H         1 UNK         0.0600 
    144 H144       -0.7937  -19.8028  -45.1221 H         1 UNK         0.3000 
    145 H145        0.4534  -22.7033  -46.8059 H         1 UNK         0.0600 
    146 H146        2.4673  -21.2287  -47.0411 H         1 UNK         0.0600 
    147 H147        1.4306  -19.8065  -46.9398 H         1 UNK         0.0600 
    148 H148        1.2626  -20.9273  -48.2820 H         1 UNK         0.0600 
    149 H149        1.2669  -20.8912  -44.6535 H         1 UNK         0.3000 
    150 H150       -0.1186  -22.9000  -42.0599 H         1 UNK         0.0600 
    151 H151        1.9622  -24.1858  -42.5801 H         1 UNK         0.0600 
    152 H152        2.2189  -23.0683  -41.2497 H         1 UNK         0.0600 
    153 H153        2.8351  -22.6830  -42.8571 H         1 UNK         0.0600 
    154 H154        1.6701  -20.6731  -42.0124 H         1 UNK         0.3000 
    155 H155       -0.6217  -18.0893  -42.6247 H         1 UNK         0.0600 
    156 H156       -1.2485  -18.6101  -40.2609 H         1 UNK         0.0600 
    157 H157       -0.1457  -17.2503  -40.3739 H         1 UNK         0.0600 
    158 H158        0.4514  -18.8312  -39.8627 H         1 UNK         0.0600 
    159 H159        1.9911  -17.9013  -41.6129 H         1 UNK         0.3000 
    160 H160        3.9931  -18.8516  -44.0270 H         1 UNK         0.0600 
    161 H161        2.8854  -16.1527  -44.9494 H         1 UNK         0.0600 
    162 H162        3.2080  -17.5656  -45.9440 H         1 UNK         0.0600 
    163 H163        4.5432  -16.6992  -45.2030 H         1 UNK         0.0600 
    164 H164        3.7862  -16.2715  -42.5874 H         1 UNK         0.3000 
    165 H165        5.1460  -17.5662  -39.6076 H         1 UNK         0.0600 
    166 H166        6.9776  -15.9151  -39.9008 H         1 UNK         0.0600 
    167 H167        7.2781  -17.3338  -40.8915 H         1 UNK         0.0600 
    168 H168        6.6818  -15.8567  -41.6392 H         1 UNK         0.0600 
    169 H169        4.6910  -14.8932  -40.5517 H         1 UNK         0.3000 
    170 H170        1.5859  -14.5707  -39.0220 H         1 UNK         0.0600 
    171 H171        3.7193  -13.1150  -40.6886 H         1 UNK         0.0600 
    172 H172        2.4705  -12.3777  -39.6981 H         1 UNK         0.0600 
    173 H173        3.7485  -13.3079  -38.9377 H         1 UNK         0.0600 
    174 H174        0.3386  -14.3938  -40.8477 H         1 UNK         0.3000 
    175 H175        0.5181  -15.4370  -43.8774 H         1 UNK         0.0600 
    176 H176       -0.9160  -13.2276  -42.3027 H         1 UNK         0.0600 
    177 H177       -1.6121  -14.1481  -43.6303 H         1 UNK         0.0600 
    178 H178       -1.1701  -14.9679  -42.1482 H         1 UNK         0.0600 
    179 H179        0.9459  -13.9411  -45.4099 H         1 UNK         0.3000 
    180 H180        0.9629  -10.4645  -45.6494 H         1 UNK         0.0600 
    181 H181        3.2817  -10.5728  -46.5560 H         1 UNK         0.0600 
    182 H182        3.5618  -12.0920  -45.7056 H         1 UNK         0.0600 
    183 H183        3.3039  -10.6058  -44.7992 H         1 UNK         0.0600 
    184 H184        1.8652  -12.5747  -47.4031 H         1 UNK         0.3000 
    185 H185       -1.2048  -13.8741  -48.2951 H         1 UNK         0.0600 
    186 H186       -0.9490  -13.1128  -50.6311 H         1 UNK         0.0600 
    187 H187       -1.5488  -11.7947  -49.6393 H         1 UNK         0.0600 
    188 H188        0.1436  -11.8222  -50.1231 H         1 UNK         0.0600 
    189 H189        1.1962  -14.0429  -49.7425 H         1 UNK         0.3000 
    190 H190       -2.6007  -21.3097  -43.8227 H         1 UNK         0.3000 
    191 H191       -5.2068  -22.3786  -43.6148 H         1 UNK         0.0600 
    192 H192       -3.5332  -22.3859  -41.7745 H         1 UNK         0.0600 
    193 H193       -2.5264  -23.5249  -42.6665 H         1 UNK         0.0600 
    194 H194       -4.1120  -24.0160  -42.0840 H         1 UNK         0.0600 
    195 H195       -2.5165  -23.3554  -45.6612 H         1 UNK         0.3000 
    196 H196       -3.7057  -25.8851  -46.5211 H         1 UNK         0.0600 
    197 H197       -1.2249  -25.5571  -46.3548 H         1 UNK         0.0600 
    198 H198       -1.3081  -24.3134  -47.6020 H         1 UNK         0.0600 
    199 H199       -1.7173  -25.9774  -47.9870 H         1 UNK         0.0600 
    200 H200       -4.7108  -22.8523  -47.0554 H         1 UNK         0.3000 
    201 H201       -6.1785  -21.9089  -48.3633 H         1 UNK         0.0600 
    202 H202       -7.2178  -22.8738  -50.3199 H         1 UNK         0.0600 
    203 H203       -7.0739  -24.1510  -49.1242 H         1 UNK         0.0600 
    204 H204       -5.9643  -24.0890  -50.4964 H         1 UNK         0.0600 
    205 H205       -3.1291  -23.0000  -49.7191 H         1 UNK         0.3000 
    206 H206       -2.1892  -20.4572  -50.1755 H         1 UNK         0.0600 
    207 H207       -3.1808  -21.8489  -52.7259 H         1 UNK         0.0600 
    208 H208       -3.4733  -20.1890  -52.2272 H         1 UNK         0.0600 
    209 H209       -1.8822  -20.6626  -52.7739 H         1 UNK         0.0600 
    210 H210        0.0501  -20.6362  -51.2706 H         1 UNK         0.3000 
    211 H211        1.5305  -22.8239  -50.1712 H         1 UNK         0.0600 
    212 H212        2.3367  -20.6520  -52.1843 H         1 UNK         0.0600 
    213 H213        3.4493  -21.7164  -51.3333 H         1 UNK         0.0600 
    214 H214        2.4945  -20.5511  -50.4318 H         1 UNK         0.0600 
    215 H215        0.2642  -22.0853  -53.3694 H         1 UNK         0.3000 
    216 H216        0.6752  -24.9131  -54.2410 H         1 UNK         0.0600 
    217 H217        0.2988  -24.0350  -56.5576 H         1 UNK         0.0600 
    218 H218        1.7640  -23.3582  -55.8610 H         1 UNK         0.0600 
    219 H219        0.3016  -22.3814  -55.9546 H         1 UNK         0.0600 
    220 H220       -1.0859  -25.6045  -53.0605 H         1 UNK         0.3000 
    221 H221       -3.2238  -24.2344  -52.1680 H         1 UNK         0.0600 
    222 H222       -3.0871  -27.2252  -52.8039 H         1 UNK         0.0600 
    223 H223       -2.5318  -26.4358  -51.3248 H         1 UNK         0.0600 
    224 H224       -4.2424  -26.4723  -51.7082 H         1 UNK         0.0600 
    225 H225       -3.0770  -25.6522  -55.3646 H         1 UNK         0.3000 
    226 H226       -5.8133  -25.6400  -56.0890 H         1 UNK         0.0600 
    227 H227       -4.0556  -26.8587  -57.3481 H         1 UNK         0.0600 
    228 H228       -4.8887  -25.7398  -58.4141 H         1 UNK         0.0600 
    229 H229       -3.2884  -25.3363  -57.8038 H         1 UNK         0.0600 
    230 H230       -3.6079  -22.9302  -55.6969 H         1 UNK         0.3000 
    231 H231       -4.9902  -21.0484  -57.3803 H         1 UNK         0.0600 
    232 H232       -3.6571  -19.3709  -56.1252 H         1 UNK         0.0600 
    233 H233       -2.6427  -20.7176  -56.6241 H         1 UNK         0.0600 
    234 H234       -3.1818  -20.5911  -54.9527 H         1 UNK         0.0600 
    235 H235       -5.5460  -22.2797  -54.1567 H         1 UNK         0.3000 
    236 H236       -7.0702  -21.9927  -52.5716 H         1 UNK         0.0600 
    237 H237       -8.8498  -21.6298  -55.0367 H         1 UNK         0.0600 
    238 H238       -8.2807  -23.1662  -54.3867 H         1 UNK         0.0600 
    239 H239       -9.3878  -22.1745  -53.4509 H         1 UNK         0.0600 
    240 H240       -5.8183  -19.8090  -52.1931 H         1 UNK         0.3000 
    241 H241       -7.4134  -17.3860  -52.4050 H         1 UNK         0.0600 
    242 H242       -6.6666  -19.7609  -49.7711 H         1 UNK         0.3800 
    243 H243       -7.9792  -19.2325  -48.7270 H         1 UNK         0.3800 
    244 H244       -4.8686  -17.4242  -52.3577 H         1 UNK         0.0800 
    245 H245       -4.9396  -17.8793  -50.6745 H         1 UNK         0.0800 
    246 H246       -3.4831  -15.1791  -52.0458 H         1 UNK         0.0800 
    247 H247       -3.8247  -14.0077  -50.7989 H         1 UNK         0.0800 
@<TRIPOS>BOND
     1    1    2 1    
     2    1  127 1    
     3    1  128 1    
     4    1  129 1    
     5    2    3 2    
     6    2    4 am   BACKBONE|DICT|INTERRES
     7    4    5 1    
     8    4  130 1    
     9    5    6 1    
    10    5   65 1    
    11    5  131 1    
    12    6    7 1    
    13    6  132 1    
    14    6  133 1    
    15    7    8 1    
    16    8    9 1    
    17    8  134 1    
    18    8  135 1    
    19    9   10 ar   
    20    9   14 ar   
    21   10   11 ar   
    22   10  136 1    
    23   11   12 ar   
    24   11  126 1    
    25   12   13 ar   
    26   12  137 1    
    27   13   14 ar   
    28   13   15 1    
    29   14  138 1    
    30   15   16 1    
    31   15  139 1    
    32   15  140 1    
    33   16   17 1    
    34   17   18 1    
    35   17  141 1    
    36   17  142 1    
    37   18   19 1    
    38   18   67 1    
    39   18  143 1    
    40   19   20 am   BACKBONE|DICT|INTERRES
    41   19  144 1    
    42   20   21 2    
    43   20   22 1    
    44   22   23 1    
    45   22   24 1    
    46   22  145 1    
    47   23  146 1    
    48   23  147 1    
    49   23  148 1    
    50   24   25 am   BACKBONE|DICT|INTERRES
    51   24  149 1    
    52   25   26 2    
    53   25   27 1    
    54   27   28 1    
    55   27   29 1    
    56   27  150 1    
    57   28  151 1    
    58   28  152 1    
    59   28  153 1    
    60   29   30 am   BACKBONE|DICT|INTERRES
    61   29  154 1    
    62   30   31 2    
    63   30   32 1    
    64   32   33 1    
    65   32   34 1    
    66   32  155 1    
    67   33  156 1    
    68   33  157 1    
    69   33  158 1    
    70   34   35 am   BACKBONE|DICT|INTERRES
    71   34  159 1    
    72   35   36 2    
    73   35   37 1    
    74   37   38 1    
    75   37   39 1    
    76   37  160 1    
    77   38  161 1    
    78   38  162 1    
    79   38  163 1    
    80   39   40 am   BACKBONE|DICT|INTERRES
    81   39  164 1    
    82   40   41 2    
    83   40   42 1    
    84   42   43 1    
    85   42   44 1    
    86   42  165 1    
    87   43  166 1    
    88   43  167 1    
    89   43  168 1    
    90   44   45 am   BACKBONE|DICT|INTERRES
    91   44  169 1    
    92   45   46 2    
    93   45   47 1    
    94   47   48 1    
    95   47   49 1    
    96   47  170 1    
    97   48  171 1    
    98   48  172 1    
    99   48  173 1    
   100   49   50 am   BACKBONE|DICT|INTERRES
   101   49  174 1    
   102   50   51 2    
   103   50   52 1    
   104   52   53 1    
   105   52   54 1    
   106   52  175 1    
   107   53  176 1    
   108   53  177 1    
   109   53  178 1    
   110   54   55 am   BACKBONE|DICT|INTERRES
   111   54  179 1    
   112   55   56 2    
   113   55   57 1    
   114   57   58 1    
   115   57   59 1    
   116   57  180 1    
   117   58  181 1    
   118   58  182 1    
   119   58  183 1    
   120   59   60 am   BACKBONE|DICT|INTERRES
   121   59  184 1    
   122   60   61 2    
   123   60   62 1    
   124   62   63 1    
   125   62   64 1    
   126   62  185 1    
   127   63  186 1    
   128   63  187 1    
   129   63  188 1    
   130   64   65 am   BACKBONE|DICT|INTERRES
   131   64  189 1    
   132   65   66 2    
   133   67   68 2    
   134   67   69 am   BACKBONE|DICT|INTERRES
   135   69   70 1    
   136   69  190 1    
   137   70   71 1    
   138   70   72 1    
   139   70  191 1    
   140   71  192 1    
   141   71  193 1    
   142   71  194 1    
   143   72   73 2    
   144   72   74 am   BACKBONE|DICT|INTERRES
   145   74   75 1    
   146   74  195 1    
   147   75   76 1    
   148   75   77 1    
   149   75  196 1    
   150   76  197 1    
   151   76  198 1    
   152   76  199 1    
   153   77   78 2    
   154   77   79 am   BACKBONE|DICT|INTERRES
   155   79   80 1    
   156   79  200 1    
   157   80   81 1    
   158   80   82 1    
   159   80  201 1    
   160   81  202 1    
   161   81  203 1    
   162   81  204 1    
   163   82   83 2    
   164   82   84 am   BACKBONE|DICT|INTERRES
   165   84   85 1    
   166   84  205 1    
   167   85   86 1    
   168   85   87 1    
   169   85  206 1    
   170   86  207 1    
   171   86  208 1    
   172   86  209 1    
   173   87   88 2    
   174   87   89 am   BACKBONE|DICT|INTERRES
   175   89   90 1    
   176   89  210 1    
   177   90   91 1    
   178   90   92 1    
   179   90  211 1    
   180   91  212 1    
   181   91  213 1    
   182   91  214 1    
   183   92   93 2    
   184   92   94 am   BACKBONE|DICT|INTERRES
   185   94   95 1    
   186   94  215 1    
   187   95   96 1    
   188   95   97 1    
   189   95  216 1    
   190   96  217 1    
   191   96  218 1    
   192   96  219 1    
   193   97   98 2    
   194   97   99 am   BACKBONE|DICT|INTERRES
   195   99  100 1    
   196   99  220 1    
   197  100  101 1    
   198  100  102 1    
   199  100  221 1    
   200  101  222 1    
   201  101  223 1    
   202  101  224 1    
   203  102  103 2    
   204  102  104 am   BACKBONE|DICT|INTERRES
   205  104  105 1    
   206  104  225 1    
   207  105  106 1    
   208  105  107 1    
   209  105  226 1    
   210  106  227 1    
   211  106  228 1    
   212  106  229 1    
   213  107  108 2    
   214  107  109 am   BACKBONE|DICT|INTERRES
   215  109  110 1    
   216  109  230 1    
   217  110  111 1    
   218  110  112 1    
   219  110  231 1    
   220  111  232 1    
   221  111  233 1    
   222  111  234 1    
   223  112  113 2    
   224  112  114 am   BACKBONE|DICT|INTERRES
   225  114  115 1    
   226  114  235 1    
   227  115  116 1    
   228  115  117 1    
   229  115  236 1    
   230  116  237 1    
   231  116  238 1    
   232  116  239 1    
   233  117  118 2    
   234  117  119 am   BACKBONE|DICT|INTERRES
   235  119  120 1    
   236  119  240 1    
   237  120  121 1    
   238  120  124 1    
   239  120  241 1    
   240  121  122 am   BACKBONE|DICT|INTERRES
   241  121  123 2    
   242  122  242 1    
   243  122  243 1    
   244  124  125 1    
   245  124  244 1    
   246  124  245 1    
   247  125  126 1    
   248  126  246 1    
   249  126  247 1    
@<TRIPOS>SUBSTRUCTURE
     1 UNK         1 GROUP             0       ****    0 ROOT    
