@<TRIPOS>MOLECULE
3R540
247   249    1
SMALL
USER_CHARGES


@<TRIPOS>ATOM
      1 CA         -3.0017  -14.1849  -48.4405 C.3       0 UNK        -0.1800 
      2 C          -1.5941  -13.8649  -48.9219 C.2       0 UNK         0.5000 
      3 O          -1.3889  -12.8425  -49.5752 O.2       0 UNK        -0.5000 
      4 N          -0.6222  -14.7229  -48.5829 N.am      1 UNK        -0.5000 
      5 CA          0.8129  -14.5292  -48.8483 C.3       1 UNK         0.1400 
      6 C6          1.6336  -15.8084  -48.5508 C.3       23 UNK        -0.0398 
      7 S7          1.1633  -17.1987  -49.6370 S.3       23 UNK        -0.2404 
      8 C8          2.7952  -17.7693  -50.2000 C.3       23 UNK        -0.0205 
      9 C9          2.6975  -18.8438  -51.2744 C.ar      23 UNK        -0.0193 
     10 C10         3.1913  -18.5991  -52.5579 C.ar      23 UNK        -0.1150 
     11 C11         3.1452  -19.5918  -53.5403 C.ar      23 UNK        -0.0193 
     12 C12         2.6251  -20.8502  -53.2242 C.ar      23 UNK        -0.1150 
     13 C13         2.1235  -21.1096  -51.9445 C.ar      23 UNK        -0.0193 
     14 C14         2.1431  -20.0929  -50.9826 C.ar      23 UNK        -0.1150 
     15 C15         1.5000  -22.4640  -51.6314 C.3       23 UNK        -0.0205 
     16 S16         2.6371  -23.6333  -50.8023 S.3       23 UNK        -0.2404 
     17 C17         2.7016  -23.0320  -49.0712 C.3       23 UNK        -0.0398 
     18 CA          1.6905  -23.6451  -48.0596 C.3       11 UNK         0.1400 
     19 N           1.7441  -22.9197  -46.7859 N.am      11 UNK        -0.5000 
     20 C           1.0684  -23.2288  -45.6693 C.2       10 UNK         0.5000 
     21 O           0.3738  -24.2348  -45.5404 O.2       10 UNK        -0.5000 
     22 CA          1.1238  -22.1937  -44.5313 C.3       10 UNK         0.1400 
     23 CB          2.3406  -22.4359  -43.6273 C.3       10 UNK        -0.1800 
     24 N           1.1527  -20.8153  -45.0245 N.am      10 UNK        -0.5000 
     25 C           0.1783  -20.2301  -45.7327 C.2       9 UNK         0.5000 
     26 O          -0.8553  -20.8124  -46.0663 O.2       9 UNK        -0.5000 
     27 CA          0.4136  -18.7622  -46.1441 C.3       9 UNK         0.1400 
     28 CB         -0.8185  -18.1325  -46.8173 C.3       9 UNK        -0.1800 
     29 N           0.7920  -17.9282  -45.0064 N.am      9 UNK        -0.5000 
     30 C           2.0035  -17.8501  -44.4426 C.2       8 UNK         0.5000 
     31 O           2.9728  -18.5116  -44.8155 O.2       8 UNK        -0.5000 
     32 CA          2.1341  -16.9045  -43.2402 C.3       8 UNK         0.1400 
     33 CB          2.1635  -15.4422  -43.7081 C.3       8 UNK        -0.1800 
     34 N           1.0173  -17.1019  -42.3167 N.am      8 UNK        -0.5000 
     35 C           1.0526  -17.9030  -41.2426 C.2       7 UNK         0.5000 
     36 O           2.0713  -18.4679  -40.8431 O.2       7 UNK        -0.5000 
     37 CA         -0.2767  -18.1329  -40.4946 C.3       7 UNK         0.1400 
     38 CB         -0.4335  -17.1354  -39.3386 C.3       7 UNK        -0.1800 
     39 N          -1.4448  -18.0445  -41.3727 N.am      7 UNK        -0.5000 
     40 C          -1.7517  -18.9594  -42.3039 C.2       6 UNK         0.5000 
     41 O          -1.1327  -20.0135  -42.4464 O.2       6 UNK        -0.5000 
     42 CA         -2.9316  -18.6515  -43.2489 C.3       6 UNK         0.1400 
     43 CB         -4.1779  -19.4412  -42.8205 C.3       6 UNK        -0.1800 
     44 N          -3.2912  -17.2328  -43.3691 N.am      6 UNK        -0.5000 
     45 C          -2.4865  -16.2388  -43.7705 C.2       5 UNK         0.5000 
     46 O          -1.2933  -16.3946  -44.0322 O.2       5 UNK        -0.5000 
     47 CA         -3.0895  -14.8255  -43.8884 C.3       5 UNK         0.1400 
     48 CB         -4.5773  -14.7252  -43.4836 C.3       5 UNK        -0.1800 
     49 N          -2.2870  -13.8412  -43.1597 N.am      5 UNK        -0.5000 
     50 C          -2.0147  -13.8262  -41.8444 C.2       4 UNK         0.5000 
     51 O          -2.4148  -14.6863  -41.0580 O.2       4 UNK        -0.5000 
     52 CA         -1.1426  -12.6694  -41.3046 C.3       4 UNK         0.1400 
     53 CB          0.2101  -13.1980  -40.8034 C.3       4 UNK        -0.1800 
     54 N          -0.8897  -11.6138  -42.2873 N.am      4 UNK        -0.5000 
     55 C          -1.7832  -10.7041  -42.6999 C.2       3 UNK         0.5000 
     56 O          -2.9116  -10.5912  -42.2202 O.2       3 UNK        -0.5000 
     57 CA         -1.3568   -9.7837  -43.8647 C.3       3 UNK         0.1400 
     58 CB         -0.9861   -8.3890  -43.3372 C.3       3 UNK        -0.1800 
     59 N          -0.2428  -10.2952  -44.6757 N.am      3 UNK        -0.5000 
     60 C          -0.2523  -11.4359  -45.3783 C.2       2 UNK         0.5000 
     61 O          -1.2073  -12.2196  -45.3963 O.2       2 UNK        -0.5000 
     62 CA          1.0333  -11.7771  -46.1479 C.3       2 UNK         0.1400 
     63 CB          2.2122  -12.0327  -45.1911 C.3       2 UNK        -0.1800 
     64 N           0.7699  -12.9637  -46.9509 N.am      2 UNK        -0.5000 
     65 C           1.4008  -13.3258  -48.0732 C.2       1 UNK         0.5000 
     66 O           2.3940  -12.7461  -48.5144 O.2       1 UNK        -0.5000 
     67 C           0.2458  -23.6943  -48.6032 C.2       11 UNK         0.5000 
     68 O          -0.2348  -24.7676  -48.9655 O.2       11 UNK        -0.5000 
     69 N          -0.4266  -22.5336  -48.6231 N.am      12 UNK        -0.5000 
     70 CA         -1.7813  -22.3748  -49.1504 C.3       12 UNK         0.1400 
     71 CB         -2.1073  -20.8814  -49.2863 C.3       12 UNK        -0.1800 
     72 C          -2.8327  -23.0769  -48.2807 C.2       12 UNK         0.5000 
     73 O          -3.7866  -23.6385  -48.8220 O.2       12 UNK        -0.5000 
     74 N          -2.6219  -23.0445  -46.9587 N.am      13 UNK        -0.5000 
     75 CA         -3.4225  -23.7537  -45.9664 C.3       13 UNK         0.1400 
     76 CB         -3.0580  -23.2467  -44.5625 C.3       13 UNK        -0.1800 
     77 C          -3.2533  -25.2805  -46.0706 C.2       13 UNK         0.5000 
     78 O          -4.2545  -25.9960  -46.0852 O.2       13 UNK        -0.5000 
     79 N          -2.0007  -25.7501  -46.1762 N.am      14 UNK        -0.5000 
     80 CA         -1.6465  -27.1667  -46.3067 C.3       14 UNK         0.1400 
     81 CB         -0.1271  -27.3371  -46.1587 C.3       14 UNK        -0.1800 
     82 C          -2.1321  -27.7935  -47.6254 C.2       14 UNK         0.5000 
     83 O          -2.6141  -28.9267  -47.6179 O.2       14 UNK        -0.5000 
     84 N          -2.0241  -27.0378  -48.7267 N.am      15 UNK        -0.5000 
     85 CA         -2.5252  -27.4203  -50.0486 C.3       15 UNK         0.1400 
     86 CB         -1.8865  -26.5034  -51.1050 C.3       15 UNK        -0.1800 
     87 C          -4.0614  -27.3583  -50.1614 C.2       15 UNK         0.5000 
     88 O          -4.6152  -27.9254  -51.1038 O.2       15 UNK        -0.5000 
     89 N          -4.7095  -26.6413  -49.2292 N.am      16 UNK        -0.5000 
     90 CA         -6.1326  -26.2832  -49.2005 C.3       16 UNK         0.1400 
     91 CB         -7.0201  -27.5343  -49.0387 C.3       16 UNK        -0.1800 
     92 C          -6.5459  -25.3943  -50.3948 C.2       16 UNK         0.5000 
     93 O          -7.7054  -25.4094  -50.8115 O.2       16 UNK        -0.5000 
     94 N          -5.5783  -24.6330  -50.9204 N.am      17 UNK        -0.5000 
     95 CA         -5.7460  -23.6907  -52.0221 C.3       17 UNK         0.1400 
     96 CB         -4.3914  -23.5056  -52.7252 C.3       17 UNK        -0.1800 
     97 C          -6.2851  -22.3390  -51.5280 C.2       17 UNK         0.5000 
     98 O          -7.0745  -21.7122  -52.2358 O.2       17 UNK        -0.5000 
     99 N          -5.8522  -21.9402  -50.3204 N.am      18 UNK        -0.5000 
    100 CA        -6.1267  -20.6738  -49.6326 C.3       18 UNK         0.1400 
    101 CB        -7.6357  -20.5248  -49.3464 C.3       18 UNK        -0.1800 
    102 C         -5.5520  -19.4326  -50.3529 C.2       18 UNK         0.5000 
    103 O         -5.0397  -19.5236  -51.4722 O.2       18 UNK        -0.5000 
    104 N         -5.6232  -18.2847  -49.6637 N.am      19 UNK        -0.5000 
    105 CA        -5.1079  -16.9782  -50.0843 C.3       19 UNK         0.1400 
    106 CB        -5.9773  -16.3990  -51.2238 C.3       19 UNK        -0.1800 
    107 C         -3.5958  -17.0319  -50.3983 C.2       19 UNK         0.5000 
    108 O         -2.8327  -17.5325  -49.5725 O.2       19 UNK        -0.5000 
    109 N         -3.1893  -16.5138  -51.5637 N.am      20 UNK        -0.5000 
    110 CA        -1.8060  -16.5308  -52.0428 C.3       20 UNK         0.1400 
    111 CB        -1.5922  -15.3173  -52.9617 C.3       20 UNK        -0.1800 
    112 C         -1.4274  -17.8392  -52.7695 C.2       20 UNK         0.5000 
    113 O         -0.2589  -18.0081  -53.1135 O.2       20 UNK        -0.5000 
    114 N         -2.4124  -18.7181  -53.0170 N.am      21 UNK        -0.5000 
    115 CA        -2.3496  -20.0073  -53.7159 C.3       21 UNK         0.1400 
    116 CB        -1.5052  -21.0311  -52.9391 C.3       21 UNK        -0.1800 
    117 C         -1.9092  -19.9250  -55.1897 C.2       21 UNK         0.5000 
    118 O         -2.7115  -20.2288  -56.0734 O.2       21 UNK        -0.5000 
    119 N         -0.6493  -19.5446  -55.4320 N.am      22 UNK        -0.5000 
    120 CA        -0.0380  -19.4654  -56.7679 C.3       22 UNK         0.1400 
    121 C         -0.4313  -18.2098  -57.6031 C.2       22 UNK         0.5000 
    122 N         -1.1213  -17.2251  -57.0401 N.am      22 UNK        -0.7600 
    123 O         -0.1205  -18.1375  -58.7891 O.2       22 UNK        -0.5000 
    124 C124        1.4950  -19.7006  -56.7187 C.3       23 UNK        -0.0398 
    125 S125        2.4566  -18.3630  -55.9243 S.3       23 UNK        -0.2404 
    126 C126        3.6704  -19.2936  -54.9351 C.3       23 UNK        -0.0205 
    127 H127       -3.0535  -15.1620  -47.9594 H         1 UNK         0.0600 
    128 H128       -3.3262  -13.4351  -47.7187 H         1 UNK         0.0600 
    129 H129       -3.6974  -14.1741  -49.2791 H         1 UNK         0.0600 
    130 H130       -0.8648  -15.5773  -48.1032 H         1 UNK         0.3000 
    131 H131        0.9202  -14.2990  -49.9107 H         1 UNK         0.0600 
    132 H132        1.5098  -16.1164  -47.5114 H         1 UNK         0.0800 
    133 H133        2.6995  -15.6094  -48.6771 H         1 UNK         0.0800 
    134 H134        3.3508  -18.1642  -49.3484 H         1 UNK         0.0800 
    135 H135        3.3625  -16.9150  -50.5725 H         1 UNK         0.0800 
    136 H136        3.6072  -17.6311  -52.7994 H         1 UNK         0.1150 
    137 H137        2.5943  -21.6226  -53.9796 H         1 UNK         0.1150 
    138 H138        1.7177  -20.2580  -50.0049 H         1 UNK         0.1150 
    139 H139        0.5969  -22.3182  -51.0446 H         1 UNK         0.0800 
    140 H140        1.1631  -22.9294  -52.5589 H         1 UNK         0.0800 
    141 H141        2.6233  -21.9491  -49.0695 H         1 UNK         0.0800 
    142 H142        3.7111  -23.2333  -48.7105 H         1 UNK         0.0800 
    143 H143        1.9922  -24.6761  -47.8636 H         1 UNK         0.0600 
    144 H144        2.2915  -22.0721  -46.7750 H         1 UNK         0.3000 
    145 H145        0.2203  -22.3118  -43.9294 H         1 UNK         0.0600 
    146 H146        2.3394  -21.7532  -42.7770 H         1 UNK         0.0600 
    147 H147        2.3347  -23.4513  -43.2286 H         1 UNK         0.0600 
    148 H148        3.2785  -22.2987  -44.1668 H         1 UNK         0.0600 
    149 H149        1.9670  -20.2558  -44.7942 H         1 UNK         0.3000 
    150 H150        1.2316  -18.7524  -46.8671 H         1 UNK         0.0600 
    151 H151       -0.9894  -18.5737  -47.7981 H         1 UNK         0.0600 
    152 H152       -0.6877  -17.0628  -46.9668 H         1 UNK         0.0600 
    153 H153       -1.7259  -18.2696  -46.2306 H         1 UNK         0.0600 
    154 H154        0.0422  -17.3583  -44.6181 H         1 UNK         0.3000 
    155 H155        3.0831  -17.1186  -42.7441 H         1 UNK         0.0600 
    156 H156        2.3983  -14.7749  -42.8798 H         1 UNK         0.0600 
    157 H157        2.9290  -15.2889  -44.4700 H         1 UNK         0.0600 
    158 H158        1.2087  -15.1309  -44.1340 H         1 UNK         0.0600 
    159 H159        0.1236  -16.7231  -42.6083 H         1 UNK         0.3000 
    160 H160       -0.2441  -19.1381  -40.0688 H         1 UNK         0.0600 
    161 H161       -1.3308  -17.3444  -38.7561 H         1 UNK         0.0600 
    162 H162       -0.5019  -16.1112  -39.7016 H         1 UNK         0.0600 
    163 H163        0.4169  -17.1877  -38.6574 H         1 UNK         0.0600 
    164 H164       -1.9979  -17.1995  -41.3167 H         1 UNK         0.3000 
    165 H165       -2.6384  -19.0018  -44.2395 H         1 UNK         0.0600 
    166 H166       -4.9814  -19.3378  -43.5500 H         1 UNK         0.0600 
    167 H167       -3.9578  -20.5060  -42.7326 H         1 UNK         0.0600 
    168 H168       -4.5537  -19.1038  -41.8538 H         1 UNK         0.0600 
    169 H169       -4.2479  -17.0009  -43.1452 H         1 UNK         0.3000 
    170 H170       -3.0158  -14.5557  -44.9429 H         1 UNK         0.0600 
    171 H171       -5.2018  -15.3661  -44.1071 H         1 UNK         0.0600 
    172 H172       -4.7428  -15.0043  -42.4424 H         1 UNK         0.0600 
    173 H173       -4.9435  -13.7063  -43.6108 H         1 UNK         0.0600 
    174 H174       -1.8715  -13.1227  -43.7434 H         1 UNK         0.3000 
    175 H175       -1.6726  -12.2296  -40.4573 H         1 UNK         0.0600 
    176 H176        0.7499  -13.7253  -41.5892 H         1 UNK         0.0600 
    177 H177        0.8444  -12.3879  -40.4430 H         1 UNK         0.0600 
    178 H178        0.0754  -13.8903  -39.9729 H         1 UNK         0.0600 
    179 H179        0.0148  -11.6223  -42.7339 H         1 UNK         0.3000 
    180 H180       -2.2218   -9.6809  -44.5231 H         1 UNK         0.0600 
    181 H181       -0.1068   -8.4240  -42.6927 H         1 UNK         0.0600 
    182 H182       -1.8028   -7.9602  -42.7548 H         1 UNK         0.0600 
    183 H183       -0.7771   -7.6994  -44.1553 H         1 UNK         0.0600 
    184 H184        0.5837   -9.7154  -44.7048 H         1 UNK         0.3000 
    185 H185        1.2674  -10.9411  -46.8102 H         1 UNK         0.0600 
    186 H186        2.5002  -11.1197  -44.6693 H         1 UNK         0.0600 
    187 H187        1.9595  -12.7737  -44.4342 H         1 UNK         0.0600 
    188 H188        3.0933  -12.3867  -45.7263 H         1 UNK         0.0600 
    189 H189       -0.0796  -13.4471  -46.6861 H         1 UNK         0.3000 
    190 H190       -0.0027  -21.7117  -48.2209 H         1 UNK         0.3000 
    191 H191       -1.8090  -22.8285  -50.1429 H         1 UNK         0.0600 
    192 H192       -2.2720  -20.4117  -48.3170 H         1 UNK         0.0600 
    193 H193       -3.0161  -20.7398  -49.8685 H         1 UNK         0.0600 
    194 H194       -1.3116  -20.3355  -49.7946 H         1 UNK         0.0600 
    195 H195       -1.8447  -22.4916  -46.6110 H         1 UNK         0.3000 
    196 H196       -4.4729  -23.5181  -46.1506 H         1 UNK         0.0600 
    197 H197       -3.6803  -23.7202  -43.8024 H         1 UNK         0.0600 
    198 H198       -3.2062  -22.1695  -44.4829 H         1 UNK         0.0600 
    199 H199       -2.0176  -23.4566  -44.3137 H         1 UNK         0.0600 
    200 H200       -1.2221  -25.0985  -46.1198 H         1 UNK         0.3000 
    201 H201       -2.1280  -27.7062  -45.4885 H         1 UNK         0.0600 
    202 H202        0.2140  -26.9929  -45.1823 H         1 UNK         0.0600 
    203 H203        0.4162  -26.7760  -46.9202 H         1 UNK         0.0600 
    204 H204        0.1614  -28.3848  -46.2522 H         1 UNK         0.0600 
    205 H205       -1.5446  -26.1429  -48.6659 H         1 UNK         0.3000 
    206 H206       -2.2184  -28.4480  -50.2536 H         1 UNK         0.0600 
    207 H207       -0.7989  -26.5766  -51.0853 H         1 UNK         0.0600 
    208 H208       -2.2116  -26.7744  -52.1102 H         1 UNK         0.0600 
    209 H209       -2.1541  -25.4582  -50.9441 H         1 UNK         0.0600 
    210 H210       -4.1512  -26.2230  -48.4970 H         1 UNK         0.3000 
    211 H211       -6.2665  -25.6681  -48.3095 H         1 UNK         0.0600 
    212 H212       -7.0034  -28.1635  -49.9288 H         1 UNK         0.0600 
    213 H213       -8.0585  -27.2552  -48.8569 H         1 UNK         0.0600 
    214 H214       -6.6952  -28.1397  -48.1924 H         1 UNK         0.0600 
    215 H215       -4.6812  -24.6337  -50.4511 H         1 UNK         0.3000 
    216 H216       -6.4561  -24.1007  -52.7435 H         1 UNK         0.0600 
    217 H217       -4.4752  -22.8058  -53.5577 H         1 UNK         0.0600 
    218 H218       -4.0246  -24.4498  -53.1282 H         1 UNK         0.0600 
    219 H219       -3.6345  -23.1168  -52.0434 H         1 UNK         0.0600 
    220 H220       -5.2083  -22.5569  -49.8379 H         1 UNK         0.3000 
    221 H221       -5.6088  -20.7458  -48.6749 H         1 UNK         0.0600 
    222 H222       -8.2070  -20.3449  -50.2575 H         1 UNK         0.0600 
    223 H223       -8.0367  -21.4205  -48.8717 H         1 UNK         0.0600 
    224 H224       -7.8315  -19.6905  -48.6725 H         1 UNK         0.0600 
    225 H225       -6.0210  -18.3093  -48.7359 H         1 UNK         0.3000 
    226 H226       -5.2125  -16.3170  -49.2231 H         1 UNK         0.0600 
    227 H227       -7.0271  -16.3684  -50.9317 H         1 UNK         0.0600 
    228 H228       -5.6872  -15.3755  -51.4644 H         1 UNK         0.0600 
    229 H229       -5.9096  -16.9925  -52.1363 H         1 UNK         0.0600 
    230 H230       -3.8789  -16.1212  -52.1879 H         1 UNK         0.3000 
    231 H231       -1.1336  -16.4240  -51.1910 H         1 UNK         0.0600 
    232 H232       -1.7965  -14.3850  -52.4345 H         1 UNK         0.0600 
    233 H233       -0.5603  -15.2690  -53.3122 H         1 UNK         0.0600 
    234 H234       -2.2369  -15.3574  -53.8403 H         1 UNK         0.0600 
    235 H235       -3.3306  -18.4915  -52.6566 H         1 UNK         0.3000 
    236 H236       -3.3742  -20.3832  -53.7233 H         1 UNK         0.0600 
    237 H237       -1.4161  -21.9700  -53.4870 H         1 UNK         0.0600 
    238 H238       -0.4989  -20.6630  -52.7483 H         1 UNK         0.0600 
    239 H239       -1.9673  -21.2608  -51.9835 H         1 UNK         0.0600 
    240 H240       -0.0927  -19.2074  -54.6507 H         1 UNK         0.3000 
    241 H241       -0.4412  -20.3043  -57.3387 H         1 UNK         0.0600 
    242 H242       -1.3703  -17.2761  -56.0661 H         1 UNK         0.3800 
    243 H243       -1.3782  -16.4191  -57.5879 H         1 UNK         0.3800 
    244 H244        1.6932  -20.6420  -56.2051 H         1 UNK         0.0800 
    245 H245        1.8832  -19.8347  -57.7297 H         1 UNK         0.0800 
    246 H246        3.9566  -20.2113  -55.4512 H         1 UNK         0.0800 
    247 H247        4.5816  -18.6990  -54.8544 H         1 UNK         0.0800 
@<TRIPOS>BOND
     1    1    2 1    
     2    1  127 1    
     3    1  128 1    
     4    1  129 1    
     5    2    3 2    
     6    2    4 am   BACKBONE|DICT|INTERRES
     7    4    5 1    
     8    4  130 1    
     9    5    6 1    
    10    5   65 1    
    11    5  131 1    
    12    6    7 1    
    13    6  132 1    
    14    6  133 1    
    15    7    8 1    
    16    8    9 1    
    17    8  134 1    
    18    8  135 1    
    19    9   10 ar   
    20    9   14 ar   
    21   10   11 ar   
    22   10  136 1    
    23   11   12 ar   
    24   11  126 1    
    25   12   13 ar   
    26   12  137 1    
    27   13   14 ar   
    28   13   15 1    
    29   14  138 1    
    30   15   16 1    
    31   15  139 1    
    32   15  140 1    
    33   16   17 1    
    34   17   18 1    
    35   17  141 1    
    36   17  142 1    
    37   18   19 1    
    38   18   67 1    
    39   18  143 1    
    40   19   20 am   BACKBONE|DICT|INTERRES
    41   19  144 1    
    42   20   21 2    
    43   20   22 1    
    44   22   23 1    
    45   22   24 1    
    46   22  145 1    
    47   23  146 1    
    48   23  147 1    
    49   23  148 1    
    50   24   25 am   BACKBONE|DICT|INTERRES
    51   24  149 1    
    52   25   26 2    
    53   25   27 1    
    54   27   28 1    
    55   27   29 1    
    56   27  150 1    
    57   28  151 1    
    58   28  152 1    
    59   28  153 1    
    60   29   30 am   BACKBONE|DICT|INTERRES
    61   29  154 1    
    62   30   31 2    
    63   30   32 1    
    64   32   33 1    
    65   32   34 1    
    66   32  155 1    
    67   33  156 1    
    68   33  157 1    
    69   33  158 1    
    70   34   35 am   BACKBONE|DICT|INTERRES
    71   34  159 1    
    72   35   36 2    
    73   35   37 1    
    74   37   38 1    
    75   37   39 1    
    76   37  160 1    
    77   38  161 1    
    78   38  162 1    
    79   38  163 1    
    80   39   40 am   BACKBONE|DICT|INTERRES
    81   39  164 1    
    82   40   41 2    
    83   40   42 1    
    84   42   43 1    
    85   42   44 1    
    86   42  165 1    
    87   43  166 1    
    88   43  167 1    
    89   43  168 1    
    90   44   45 am   BACKBONE|DICT|INTERRES
    91   44  169 1    
    92   45   46 2    
    93   45   47 1    
    94   47   48 1    
    95   47   49 1    
    96   47  170 1    
    97   48  171 1    
    98   48  172 1    
    99   48  173 1    
   100   49   50 am   BACKBONE|DICT|INTERRES
   101   49  174 1    
   102   50   51 2    
   103   50   52 1    
   104   52   53 1    
   105   52   54 1    
   106   52  175 1    
   107   53  176 1    
   108   53  177 1    
   109   53  178 1    
   110   54   55 am   BACKBONE|DICT|INTERRES
   111   54  179 1    
   112   55   56 2    
   113   55   57 1    
   114   57   58 1    
   115   57   59 1    
   116   57  180 1    
   117   58  181 1    
   118   58  182 1    
   119   58  183 1    
   120   59   60 am   BACKBONE|DICT|INTERRES
   121   59  184 1    
   122   60   61 2    
   123   60   62 1    
   124   62   63 1    
   125   62   64 1    
   126   62  185 1    
   127   63  186 1    
   128   63  187 1    
   129   63  188 1    
   130   64   65 am   BACKBONE|DICT|INTERRES
   131   64  189 1    
   132   65   66 2    
   133   67   68 2    
   134   67   69 am   BACKBONE|DICT|INTERRES
   135   69   70 1    
   136   69  190 1    
   137   70   71 1    
   138   70   72 1    
   139   70  191 1    
   140   71  192 1    
   141   71  193 1    
   142   71  194 1    
   143   72   73 2    
   144   72   74 am   BACKBONE|DICT|INTERRES
   145   74   75 1    
   146   74  195 1    
   147   75   76 1    
   148   75   77 1    
   149   75  196 1    
   150   76  197 1    
   151   76  198 1    
   152   76  199 1    
   153   77   78 2    
   154   77   79 am   BACKBONE|DICT|INTERRES
   155   79   80 1    
   156   79  200 1    
   157   80   81 1    
   158   80   82 1    
   159   80  201 1    
   160   81  202 1    
   161   81  203 1    
   162   81  204 1    
   163   82   83 2    
   164   82   84 am   BACKBONE|DICT|INTERRES
   165   84   85 1    
   166   84  205 1    
   167   85   86 1    
   168   85   87 1    
   169   85  206 1    
   170   86  207 1    
   171   86  208 1    
   172   86  209 1    
   173   87   88 2    
   174   87   89 am   BACKBONE|DICT|INTERRES
   175   89   90 1    
   176   89  210 1    
   177   90   91 1    
   178   90   92 1    
   179   90  211 1    
   180   91  212 1    
   181   91  213 1    
   182   91  214 1    
   183   92   93 2    
   184   92   94 am   BACKBONE|DICT|INTERRES
   185   94   95 1    
   186   94  215 1    
   187   95   96 1    
   188   95   97 1    
   189   95  216 1    
   190   96  217 1    
   191   96  218 1    
   192   96  219 1    
   193   97   98 2    
   194   97   99 am   BACKBONE|DICT|INTERRES
   195   99  100 1    
   196   99  220 1    
   197  100  101 1    
   198  100  102 1    
   199  100  221 1    
   200  101  222 1    
   201  101  223 1    
   202  101  224 1    
   203  102  103 2    
   204  102  104 am   BACKBONE|DICT|INTERRES
   205  104  105 1    
   206  104  225 1    
   207  105  106 1    
   208  105  107 1    
   209  105  226 1    
   210  106  227 1    
   211  106  228 1    
   212  106  229 1    
   213  107  108 2    
   214  107  109 am   BACKBONE|DICT|INTERRES
   215  109  110 1    
   216  109  230 1    
   217  110  111 1    
   218  110  112 1    
   219  110  231 1    
   220  111  232 1    
   221  111  233 1    
   222  111  234 1    
   223  112  113 2    
   224  112  114 am   BACKBONE|DICT|INTERRES
   225  114  115 1    
   226  114  235 1    
   227  115  116 1    
   228  115  117 1    
   229  115  236 1    
   230  116  237 1    
   231  116  238 1    
   232  116  239 1    
   233  117  118 2    
   234  117  119 am   BACKBONE|DICT|INTERRES
   235  119  120 1    
   236  119  240 1    
   237  120  121 1    
   238  120  124 1    
   239  120  241 1    
   240  121  122 am   BACKBONE|DICT|INTERRES
   241  121  123 2    
   242  122  242 1    
   243  122  243 1    
   244  124  125 1    
   245  124  244 1    
   246  124  245 1    
   247  125  126 1    
   248  126  246 1    
   249  126  247 1    
@<TRIPOS>SUBSTRUCTURE
     1 UNK         1 GROUP             0       ****    0 ROOT    
