@<TRIPOS>MOLECULE
3R540
247   249    1
SMALL
USER_CHARGES


@<TRIPOS>ATOM
      1 CA          4.7191  -12.1095  -49.5222 C.3       0 UNK        -0.1800 
      2 C           3.3702  -12.6146  -49.0305 C.2       0 UNK         0.5000 
      3 O           3.3183  -13.3982  -48.0836 O.2       0 UNK        -0.5000 
      4 N           2.2820  -12.1707  -49.6729 N.am      1 UNK        -0.5000 
      5 CA          0.8990  -12.5387  -49.3358 C.3       1 UNK         0.1400 
      6 C6         -0.0930  -12.2117  -50.4793 C.3       23 UNK        -0.0398 
      7 S7          0.4243  -12.8846  -52.0980 S.3       23 UNK        -0.2404 
      8 C8         -0.9297  -14.0452  -52.4913 C.3       23 UNK        -0.0205 
      9 C9         -0.8796  -15.4174  -51.8140 C.ar      23 UNK        -0.0193 
     10 C10        -1.9393  -16.2967  -52.0568 C.ar      23 UNK        -0.1150 
     11 C11        -1.9406  -17.5889  -51.5257 C.ar      23 UNK        -0.0193 
     12 C12        -0.8789  -17.9959  -50.7170 C.ar      23 UNK        -0.1150 
     13 C13         0.1763  -17.1245  -50.4351 C.ar      23 UNK        -0.0193 
     14 C14         0.1796  -15.8447  -50.9992 C.ar      23 UNK        -0.1150 
     15 C15         1.3238  -17.5798  -49.5428 C.3       23 UNK        -0.0205 
     16 S16         1.1309  -17.0635  -47.8001 S.3       23 UNK        -0.2404 
     17 C17        -0.4860  -17.7635  -47.3172 C.3       23 UNK        -0.0398 
     18 CA         -0.5140  -19.3107  -47.2800 C.3       11 UNK         0.1400 
     19 N           0.3131  -19.8878  -46.2145 N.am      11 UNK        -0.5000 
     20 C           0.6164  -21.1925  -46.1373 C.2       10 UNK         0.5000 
     21 O           0.2716  -22.0212  -46.9803 O.2       10 UNK        -0.5000 
     22 CA          1.3853  -21.6672  -44.8912 C.3       10 UNK         0.1400 
     23 CB          2.8846  -21.3601  -45.0180 C.3       10 UNK        -0.1800 
     24 N           0.8580  -21.0951  -43.6518 N.am      10 UNK        -0.5000 
     25 C          -0.3760  -21.3208  -43.1780 C.2       9 UNK         0.5000 
     26 O          -1.1807  -22.0828  -43.7107 O.2       9 UNK        -0.5000 
     27 CA         -0.8092  -20.5248  -41.9330 C.3       9 UNK         0.1400 
     28 CB         -0.3155  -21.2038  -40.6477 C.3       9 UNK        -0.1800 
     29 N          -0.3576  -19.1336  -41.9664 N.am      9 UNK        -0.5000 
     30 C          -0.7160  -18.2416  -42.9014 C.2       8 UNK         0.5000 
     31 O          -1.5058  -18.4817  -43.8140 O.2       8 UNK        -0.5000 
     32 CA         -0.0336  -16.8665  -42.8393 C.3       8 UNK         0.1400 
     33 CB         -0.7329  -15.9584  -41.8193 C.3       8 UNK        -0.1800 
     34 N           1.3942  -16.9802  -42.5339 N.am      8 UNK        -0.5000 
     35 C           2.2882  -17.5257  -43.3723 C.2       7 UNK         0.5000 
     36 O           2.0069  -17.9170  -44.5048 O.2       7 UNK        -0.5000 
     37 CA          3.7159  -17.7275  -42.8335 C.3       7 UNK         0.1400 
     38 CB          4.5657  -16.4577  -42.9838 C.3       7 UNK        -0.1800 
     39 N           3.7185  -18.1618  -41.4364 N.am      7 UNK        -0.5000 
     40 C           3.3455  -19.3874  -41.0422 C.2       6 UNK         0.5000 
     41 O           2.9913  -20.2711  -41.8212 O.2       6 UNK        -0.5000 
     42 CA          3.3346  -19.6728  -39.5290 C.3       6 UNK         0.1400 
     43 CB          4.6924  -20.2321  -39.0796 C.3       6 UNK        -0.1800 
     44 N           2.9981  -18.5101  -38.7063 N.am      6 UNK        -0.5000 
     45 C           1.8416  -17.8349  -38.7509 C.2       5 UNK         0.5000 
     46 O           0.9250  -18.1099  -39.5280 O.2       5 UNK        -0.5000 
     47 CA          1.6772  -16.6453  -37.7781 C.3       5 UNK         0.1400 
     48 CB          2.9142  -16.3800  -36.8896 C.3       5 UNK        -0.1800 
     49 N           1.2821  -15.4064  -38.4572 N.am      5 UNK        -0.5000 
     50 C           1.9094  -14.8174  -39.4838 C.2       4 UNK         0.5000 
     51 O           2.8942  -15.2911  -40.0597 O.2       4 UNK        -0.5000 
     52 CA          1.3413  -13.4639  -39.9359 C.3       4 UNK         0.1400 
     53 CB          1.7277  -12.3430  -38.9559 C.3       4 UNK        -0.1800 
     54 N           1.8738  -13.1548  -41.2576 N.am      4 UNK        -0.5000 
     55 C           1.2220  -12.5219  -42.2358 C.2       3 UNK         0.5000 
     56 O           0.0833  -12.0596  -42.1216 O.2       3 UNK        -0.5000 
     57 CA          1.9673  -12.4167  -43.5731 C.3       3 UNK         0.1400 
     58 CB          2.0863  -13.7925  -44.2540 C.3       3 UNK        -0.1800 
     59 N           1.2574  -11.5127  -44.4692 N.am      3 UNK        -0.5000 
     60 C           1.8306  -10.7768  -45.4230 C.2       2 UNK         0.5000 
     61 O           3.0495  -10.6940  -45.5923 O.2       2 UNK        -0.5000 
     62 CA          0.8811  -10.0596  -46.3961 C.3       2 UNK         0.1400 
     63 CB          1.2285   -8.5684  -46.5364 C.3       2 UNK        -0.1800 
     64 N           0.9915  -10.7063  -47.7000 N.am      2 UNK        -0.5000 
     65 C           0.4345  -11.8844  -48.0171 C.2       1 UNK         0.5000 
     66 O          -0.3958  -12.4585  -47.3114 O.2       1 UNK        -0.5000 
     67 C          -1.9652  -19.8324  -47.2368 C.2       11 UNK         0.5000 
     68 O          -2.5185  -20.1453  -48.2906 O.2       11 UNK        -0.5000 
     69 N          -2.5437  -19.9594  -46.0341 N.am      12 UNK        -0.5000 
     70 CA         -3.8744  -20.5309  -45.8155 C.3       12 UNK         0.1400 
     71 CB         -4.2940  -20.3272  -44.3525 C.3       12 UNK        -0.1800 
     72 C          -3.9546  -22.0176  -46.2094 C.2       12 UNK         0.5000 
     73 O          -4.9312  -22.4264  -46.8375 O.2       12 UNK        -0.5000 
     74 N          -2.9116  -22.7903  -45.8751 N.am      13 UNK        -0.5000 
     75 CA         -2.7538  -24.1867  -46.2792 C.3       13 UNK         0.1400 
     76 CB         -1.5500  -24.8111  -45.5585 C.3       13 UNK        -0.1800 
     77 C          -2.6246  -24.3396  -47.8038 C.2       13 UNK         0.5000 
     78 O          -3.2818  -25.2070  -48.3764 O.2       13 UNK        -0.5000 
     79 N          -1.8294  -23.4676  -48.4406 N.am      14 UNK        -0.5000 
     80 CA         -1.6793  -23.3957  -49.8952 C.3       14 UNK         0.1400 
     81 CB         -0.5703  -22.3972  -50.2557 C.3       14 UNK        -0.1800 
     82 C          -2.9948  -23.0398  -50.6113 C.2       14 UNK         0.5000 
     83 O          -3.3319  -23.6839  -51.6043 O.2       14 UNK        -0.5000 
     84 N          -3.7357  -22.0643  -50.0652 N.am      15 UNK        -0.5000 
     85 CA         -5.0573  -21.6497  -50.5427 C.3       15 UNK         0.1400 
     86 CB         -5.5313  -20.4226  -49.7472 C.3       15 UNK        -0.1800 
     87 C          -6.1135  -22.7673  -50.4550 C.2       15 UNK         0.5000 
     88 O          -7.0003  -22.8315  -51.3047 O.2       15 UNK        -0.5000 
     89 N          -6.0082  -23.6252  -49.4326 N.am      16 UNK        -0.5000 
     90 CA         -6.8634  -24.7946  -49.2559 C.3       16 UNK         0.1400 
     91 CB         -6.8265  -25.2398  -47.7853 C.3       16 UNK        -0.1800 
     92 C          -6.4603  -25.9458  -50.1944 C.2       16 UNK         0.5000 
     93 O          -7.3224  -26.5103  -50.8685 O.2       16 UNK        -0.5000 
     94 N          -5.1637  -26.2820  -50.2106 N.am      17 UNK        -0.5000 
     95 CA         -4.6167  -27.4422  -50.9133 C.3       17 UNK         0.1400 
     96 CB         -3.2090  -27.7437  -50.3758 C.3       17 UNK        -0.1800 
     97 C          -4.5798  -27.2876  -52.4425 C.2       17 UNK         0.5000 
     98 O          -4.8929  -28.2466  -53.1495 O.2       17 UNK        -0.5000 
     99 N          -4.1814  -26.1042  -52.9244 N.am      18 UNK        -0.5000 
    100 CA        -3.9509  -25.8209  -54.3434 C.3       18 UNK         0.1400 
    101 CB        -2.5167  -25.2963  -54.5092 C.3       18 UNK        -0.1800 
    102 C         -4.9814  -24.8372  -54.9261 C.2       18 UNK         0.5000 
    103 O         -4.8004  -24.3756  -56.0544 O.2       18 UNK        -0.5000 
    104 N         -6.0428  -24.5379  -54.1632 N.am      19 UNK        -0.5000 
    105 CA        -7.1311  -23.6142  -54.4967 C.3       19 UNK         0.1400 
    106 CB        -7.9729  -24.1739  -55.6668 C.3       19 UNK        -0.1800 
    107 C         -6.6248  -22.1719  -54.7305 C.2       19 UNK         0.5000 
    108 O         -5.5973  -21.7791  -54.1740 O.2       19 UNK        -0.5000 
    109 N         -7.3440  -21.4059  -55.5617 N.am      20 UNK        -0.5000 
    110 CA        -7.0465  -20.0120  -55.9064 C.3       20 UNK         0.1400 
    111 CB        -8.2360  -19.4367  -56.6915 C.3       20 UNK        -0.1800 
    112 C         -5.7313  -19.8073  -56.6888 C.2       20 UNK         0.5000 
    113 O         -5.2605  -18.6729  -56.7808 O.2       20 UNK        -0.5000 
    114 N         -5.1615  -20.8893  -57.2392 N.am      21 UNK        -0.5000 
    115 CA        -3.8489  -20.8895  -57.8847 C.3       21 UNK         0.1400 
    116 CB        -3.7072  -22.1540  -58.7455 C.3       21 UNK        -0.1800 
    117 C         -2.6902  -20.7869  -56.8728 C.2       21 UNK         0.5000 
    118 O         -1.6344  -20.2618  -57.2275 O.2       21 UNK        -0.5000 
    119 N         -2.9072  -21.2802  -55.6437 N.am      22 UNK        -0.5000 
    120 CA        -1.9814  -21.2211  -54.4953 C.3       22 UNK         0.1400 
    121 C         -0.6397  -22.0010  -54.6741 C.2       22 UNK         0.5000 
    122 N         -0.4892  -22.8522  -55.6811 N.am      22 UNK        -0.7600 
    123 O          0.2779  -21.8550  -53.8721 O.2       22 UNK        -0.5000 
    124 C124       -1.7412  -19.7694  -53.9919 C.3       23 UNK        -0.0398 
    125 S125       -3.2890  -18.8828  -53.5942 S.3       23 UNK        -0.2404 
    126 C126       -3.0900  -18.5439  -51.8167 C.3       23 UNK        -0.0205 
    127 H127        5.3453  -12.9480  -49.8270 H         1 UNK         0.0600 
    128 H128        5.2309  -11.5724  -48.7235 H         1 UNK         0.0600 
    129 H129        4.6149  -11.4360  -50.3731 H         1 UNK         0.0600 
    130 H130        2.3891  -11.5559  -50.4674 H         1 UNK         0.3000 
    131 H131        0.8749  -13.6170  -49.1686 H         1 UNK         0.0600 
    132 H132       -1.0862  -12.5899  -50.2304 H         1 UNK         0.0800 
    133 H133       -0.2015  -11.1317  -50.5938 H         1 UNK         0.0800 
    134 H134       -0.9151  -14.2077  -53.5699 H         1 UNK         0.0800 
    135 H135       -1.8850  -13.5659  -52.2723 H         1 UNK         0.0800 
    136 H136       -2.7611  -15.9838  -52.6861 H         1 UNK         0.1150 
    137 H137       -0.8786  -18.9933  -50.3033 H         1 UNK         0.1150 
    138 H138        1.0205  -15.1976  -50.8029 H         1 UNK         0.1150 
    139 H139        1.4414  -18.6627  -49.5949 H         1 UNK         0.0800 
    140 H140        2.2596  -17.1657  -49.9209 H         1 UNK         0.0800 
    141 H141       -1.2380  -17.3705  -48.0033 H         1 UNK         0.0800 
    142 H142       -0.7468  -17.3624  -46.3365 H         1 UNK         0.0800 
    143 H143       -0.0997  -19.6745  -48.2201 H         1 UNK         0.0600 
    144 H144        0.6678  -19.2511  -45.5091 H         1 UNK         0.3000 
    145 H145        1.2707  -22.7512  -44.8274 H         1 UNK         0.0600 
    146 H146        3.4423  -21.7649  -44.1734 H         1 UNK         0.0600 
    147 H147        3.2979  -21.8054  -45.9238 H         1 UNK         0.0600 
    148 H148        3.0772  -20.2885  -45.0630 H         1 UNK         0.0600 
    149 H149        1.4889  -20.5073  -43.1169 H         1 UNK         0.3000 
    150 H150       -1.9005  -20.5127  -41.9089 H         1 UNK         0.0600 
    151 H151       -0.7235  -22.2115  -40.5608 H         1 UNK         0.0600 
    152 H152       -0.6247  -20.6487  -39.7618 H         1 UNK         0.0600 
    153 H153        0.7700  -21.2898  -40.6292 H         1 UNK         0.0600 
    154 H154        0.2581  -18.8319  -41.2167 H         1 UNK         0.3000 
    155 H155       -0.1350  -16.4047  -43.8240 H         1 UNK         0.0600 
    156 H156       -0.5967  -16.3095  -40.7967 H         1 UNK         0.0600 
    157 H157       -1.8061  -15.9132  -42.0092 H         1 UNK         0.0600 
    158 H158       -0.3569  -14.9403  -41.8844 H         1 UNK         0.0600 
    159 H159        1.6936  -16.7284  -41.6017 H         1 UNK         0.3000 
    160 H160        4.1831  -18.5094  -43.4365 H         1 UNK         0.0600 
    161 H161        4.5507  -16.0963  -44.0130 H         1 UNK         0.0600 
    162 H162        5.6063  -16.6517  -42.7240 H         1 UNK         0.0600 
    163 H163        4.2099  -15.6517  -42.3431 H         1 UNK         0.0600 
    164 H164        3.9484  -17.4677  -40.7378 H         1 UNK         0.3000 
    165 H165        2.5768  -20.4358  -39.3435 H         1 UNK         0.0600 
    166 H166        4.6707  -20.5269  -38.0303 H         1 UNK         0.0600 
    167 H167        4.9612  -21.1169  -39.6585 H         1 UNK         0.0600 
    168 H168        5.4915  -19.5008  -39.2077 H         1 UNK         0.0600 
    169 H169        3.7027  -18.2052  -38.0508 H         1 UNK         0.3000 
    170 H170        0.8499  -16.9128  -37.1193 H         1 UNK         0.0600 
    171 H171        3.1650  -17.2517  -36.2838 H         1 UNK         0.0600 
    172 H172        3.7927  -16.1130  -37.4786 H         1 UNK         0.0600 
    173 H173        2.7244  -15.5598  -36.1971 H         1 UNK         0.0600 
    174 H174        0.4592  -14.9574  -38.0804 H         1 UNK         0.3000 
    175 H175        0.2536  -13.5492  -39.9800 H         1 UNK         0.0600 
    176 H176        1.3380  -12.5400  -37.9566 H         1 UNK         0.0600 
    177 H177        1.3232  -11.3829  -39.2771 H         1 UNK         0.0600 
    178 H178        2.8102  -12.2388  -38.8727 H         1 UNK         0.0600 
    179 H179        2.7796  -13.5691  -41.4376 H         1 UNK         0.3000 
    180 H180        2.9651  -12.0250  -43.3637 H         1 UNK         0.0600 
    181 H181        1.1070  -14.2095  -44.4922 H         1 UNK         0.0600 
    182 H182        2.5978  -14.5059  -43.6123 H         1 UNK         0.0600 
    183 H183        2.6546  -13.7286  -45.1825 H         1 UNK         0.0600 
    184 H184        0.2529  -11.4994  -44.3467 H         1 UNK         0.3000 
    185 H185       -0.1466  -10.1394  -46.0348 H         1 UNK         0.0600 
    186 H186        1.1622   -8.0624  -45.5726 H         1 UNK         0.0600 
    187 H187        2.2400   -8.4199  -46.9167 H         1 UNK         0.0600 
    188 H188        0.5391   -8.0665  -47.2156 H         1 UNK         0.0600 
    189 H189        1.6975  -10.3376  -48.3201 H         1 UNK         0.3000 
    190 H190       -2.0485  -19.6268  -45.2103 H         1 UNK         0.3000 
    191 H191       -4.5773  -19.9838  -46.4471 H         1 UNK         0.0600 
    192 H192       -5.3013  -20.7079  -44.1795 H         1 UNK         0.0600 
    193 H193       -3.6253  -20.8448  -43.6652 H         1 UNK         0.0600 
    194 H194       -4.2946  -19.2701  -44.0859 H         1 UNK         0.0600 
    195 H195       -2.1748  -22.3982  -45.2945 H         1 UNK         0.3000 
    196 H196       -3.6505  -24.7262  -45.9673 H         1 UNK         0.0600 
    197 H197       -1.4280  -25.8582  -45.8383 H         1 UNK         0.0600 
    198 H198       -1.6783  -24.7762  -44.4766 H         1 UNK         0.0600 
    199 H199       -0.6209  -24.2956  -45.8010 H         1 UNK         0.0600 
    200 H200       -1.2826  -22.8111  -47.8911 H         1 UNK         0.3000 
    201 H201       -1.3706  -24.3832  -50.2444 H         1 UNK         0.0600 
    202 H202        0.3808  -22.6847  -49.8076 H         1 UNK         0.0600 
    203 H203       -0.8073  -21.3894  -49.9182 H         1 UNK         0.0600 
    204 H204       -0.4225  -22.3547  -51.3345 H         1 UNK         0.0600 
    205 H205       -3.3595  -21.5521  -49.2716 H         1 UNK         0.3000 
    206 H206       -4.9529  -21.3633  -51.5908 H         1 UNK         0.0600 
    207 H207       -5.7268  -20.6705  -48.7041 H         1 UNK         0.0600 
    208 H208       -4.7952  -19.6212  -49.7590 H         1 UNK         0.0600 
    209 H209       -6.4552  -20.0229  -50.1666 H         1 UNK         0.0600 
    210 H210       -5.2887  -23.4685  -48.7368 H         1 UNK         0.3000 
    211 H211       -7.8926  -24.5144  -49.4911 H         1 UNK         0.0600 
    212 H212       -5.8212  -25.5181  -47.4684 H         1 UNK         0.0600 
    213 H213       -7.4731  -26.1029  -47.6226 H         1 UNK         0.0600 
    214 H214       -7.1731  -24.4438  -47.1260 H         1 UNK         0.0600 
    215 H215       -4.5167  -25.7765  -49.6083 H         1 UNK         0.3000 
    216 H216       -5.2509  -28.3015  -50.6850 H         1 UNK         0.0600 
    217 H217       -2.7811  -28.6197  -50.8649 H         1 UNK         0.0600 
    218 H218       -3.2316  -27.9478  -49.3052 H         1 UNK         0.0600 
    219 H219       -2.5281  -26.9078  -50.5421 H         1 UNK         0.0600 
    220 H220       -3.9515  -25.3477  -52.2828 H         1 UNK         0.3000 
    221 H221       -4.0345  -26.7344  -54.9350 H         1 UNK         0.0600 
    222 H222       -2.2740  -25.1411  -55.5608 H         1 UNK         0.0600 
    223 H223       -1.7885  -26.0026  -54.1107 H         1 UNK         0.0600 
    224 H224       -2.3782  -24.3470  -53.9934 H         1 UNK         0.0600 
    225 H225       -6.0741  -24.9345  -53.2350 H         1 UNK         0.3000 
    226 H226       -7.7812  -23.5769  -53.6233 H         1 UNK         0.0600 
    227 H227       -8.9055  -23.6220  -55.7871 H         1 UNK         0.0600 
    228 H228       -7.4358  -24.1308  -56.6150 H         1 UNK         0.0600 
    229 H229       -8.2450  -25.2145  -55.4887 H         1 UNK         0.0600 
    230 H230       -8.1657  -21.8051  -55.9916 H         1 UNK         0.3000 
    231 H231       -6.9504  -19.4535  -54.9729 H         1 UNK         0.0600 
    232 H232       -9.1574  -19.4937  -56.1116 H         1 UNK         0.0600 
    233 H233       -8.3938  -19.9706  -57.6294 H         1 UNK         0.0600 
    234 H234       -8.0736  -18.3859  -56.9356 H         1 UNK         0.0600 
    235 H235       -5.6069  -21.7867  -57.1126 H         1 UNK         0.3000 
    236 H236       -3.7887  -20.0227  -58.5464 H         1 UNK         0.0600 
    237 H237       -4.4937  -22.2094  -59.4983 H         1 UNK         0.0600 
    238 H238       -2.7524  -22.1611  -59.2727 H         1 UNK         0.0600 
    239 H239       -3.7548  -23.0610  -58.1427 H         1 UNK         0.0600 
    240 H240       -3.8228  -21.6590  -55.4314 H         1 UNK         0.3000 
    241 H241       -2.4973  -21.7523  -53.6944 H         1 UNK         0.0600 
    242 H242        0.3798  -23.3519  -55.7810 H         1 UNK         0.3800 
    243 H243       -1.2245  -22.9783  -56.3567 H         1 UNK         0.3800 
    244 H244       -1.1999  -19.1897  -54.7405 H         1 UNK         0.0800 
    245 H245       -1.1050  -19.7787  -53.1060 H         1 UNK         0.0800 
    246 H246       -2.9531  -19.4895  -51.2902 H         1 UNK         0.0800 
    247 H247       -4.0140  -18.1051  -51.4390 H         1 UNK         0.0800 
@<TRIPOS>BOND
     1    1    2 1    
     2    1  127 1    
     3    1  128 1    
     4    1  129 1    
     5    2    3 2    
     6    2    4 am   BACKBONE|DICT|INTERRES
     7    4    5 1    
     8    4  130 1    
     9    5    6 1    
    10    5   65 1    
    11    5  131 1    
    12    6    7 1    
    13    6  132 1    
    14    6  133 1    
    15    7    8 1    
    16    8    9 1    
    17    8  134 1    
    18    8  135 1    
    19    9   10 ar   
    20    9   14 ar   
    21   10   11 ar   
    22   10  136 1    
    23   11   12 ar   
    24   11  126 1    
    25   12   13 ar   
    26   12  137 1    
    27   13   14 ar   
    28   13   15 1    
    29   14  138 1    
    30   15   16 1    
    31   15  139 1    
    32   15  140 1    
    33   16   17 1    
    34   17   18 1    
    35   17  141 1    
    36   17  142 1    
    37   18   19 1    
    38   18   67 1    
    39   18  143 1    
    40   19   20 am   BACKBONE|DICT|INTERRES
    41   19  144 1    
    42   20   21 2    
    43   20   22 1    
    44   22   23 1    
    45   22   24 1    
    46   22  145 1    
    47   23  146 1    
    48   23  147 1    
    49   23  148 1    
    50   24   25 am   BACKBONE|DICT|INTERRES
    51   24  149 1    
    52   25   26 2    
    53   25   27 1    
    54   27   28 1    
    55   27   29 1    
    56   27  150 1    
    57   28  151 1    
    58   28  152 1    
    59   28  153 1    
    60   29   30 am   BACKBONE|DICT|INTERRES
    61   29  154 1    
    62   30   31 2    
    63   30   32 1    
    64   32   33 1    
    65   32   34 1    
    66   32  155 1    
    67   33  156 1    
    68   33  157 1    
    69   33  158 1    
    70   34   35 am   BACKBONE|DICT|INTERRES
    71   34  159 1    
    72   35   36 2    
    73   35   37 1    
    74   37   38 1    
    75   37   39 1    
    76   37  160 1    
    77   38  161 1    
    78   38  162 1    
    79   38  163 1    
    80   39   40 am   BACKBONE|DICT|INTERRES
    81   39  164 1    
    82   40   41 2    
    83   40   42 1    
    84   42   43 1    
    85   42   44 1    
    86   42  165 1    
    87   43  166 1    
    88   43  167 1    
    89   43  168 1    
    90   44   45 am   BACKBONE|DICT|INTERRES
    91   44  169 1    
    92   45   46 2    
    93   45   47 1    
    94   47   48 1    
    95   47   49 1    
    96   47  170 1    
    97   48  171 1    
    98   48  172 1    
    99   48  173 1    
   100   49   50 am   BACKBONE|DICT|INTERRES
   101   49  174 1    
   102   50   51 2    
   103   50   52 1    
   104   52   53 1    
   105   52   54 1    
   106   52  175 1    
   107   53  176 1    
   108   53  177 1    
   109   53  178 1    
   110   54   55 am   BACKBONE|DICT|INTERRES
   111   54  179 1    
   112   55   56 2    
   113   55   57 1    
   114   57   58 1    
   115   57   59 1    
   116   57  180 1    
   117   58  181 1    
   118   58  182 1    
   119   58  183 1    
   120   59   60 am   BACKBONE|DICT|INTERRES
   121   59  184 1    
   122   60   61 2    
   123   60   62 1    
   124   62   63 1    
   125   62   64 1    
   126   62  185 1    
   127   63  186 1    
   128   63  187 1    
   129   63  188 1    
   130   64   65 am   BACKBONE|DICT|INTERRES
   131   64  189 1    
   132   65   66 2    
   133   67   68 2    
   134   67   69 am   BACKBONE|DICT|INTERRES
   135   69   70 1    
   136   69  190 1    
   137   70   71 1    
   138   70   72 1    
   139   70  191 1    
   140   71  192 1    
   141   71  193 1    
   142   71  194 1    
   143   72   73 2    
   144   72   74 am   BACKBONE|DICT|INTERRES
   145   74   75 1    
   146   74  195 1    
   147   75   76 1    
   148   75   77 1    
   149   75  196 1    
   150   76  197 1    
   151   76  198 1    
   152   76  199 1    
   153   77   78 2    
   154   77   79 am   BACKBONE|DICT|INTERRES
   155   79   80 1    
   156   79  200 1    
   157   80   81 1    
   158   80   82 1    
   159   80  201 1    
   160   81  202 1    
   161   81  203 1    
   162   81  204 1    
   163   82   83 2    
   164   82   84 am   BACKBONE|DICT|INTERRES
   165   84   85 1    
   166   84  205 1    
   167   85   86 1    
   168   85   87 1    
   169   85  206 1    
   170   86  207 1    
   171   86  208 1    
   172   86  209 1    
   173   87   88 2    
   174   87   89 am   BACKBONE|DICT|INTERRES
   175   89   90 1    
   176   89  210 1    
   177   90   91 1    
   178   90   92 1    
   179   90  211 1    
   180   91  212 1    
   181   91  213 1    
   182   91  214 1    
   183   92   93 2    
   184   92   94 am   BACKBONE|DICT|INTERRES
   185   94   95 1    
   186   94  215 1    
   187   95   96 1    
   188   95   97 1    
   189   95  216 1    
   190   96  217 1    
   191   96  218 1    
   192   96  219 1    
   193   97   98 2    
   194   97   99 am   BACKBONE|DICT|INTERRES
   195   99  100 1    
   196   99  220 1    
   197  100  101 1    
   198  100  102 1    
   199  100  221 1    
   200  101  222 1    
   201  101  223 1    
   202  101  224 1    
   203  102  103 2    
   204  102  104 am   BACKBONE|DICT|INTERRES
   205  104  105 1    
   206  104  225 1    
   207  105  106 1    
   208  105  107 1    
   209  105  226 1    
   210  106  227 1    
   211  106  228 1    
   212  106  229 1    
   213  107  108 2    
   214  107  109 am   BACKBONE|DICT|INTERRES
   215  109  110 1    
   216  109  230 1    
   217  110  111 1    
   218  110  112 1    
   219  110  231 1    
   220  111  232 1    
   221  111  233 1    
   222  111  234 1    
   223  112  113 2    
   224  112  114 am   BACKBONE|DICT|INTERRES
   225  114  115 1    
   226  114  235 1    
   227  115  116 1    
   228  115  117 1    
   229  115  236 1    
   230  116  237 1    
   231  116  238 1    
   232  116  239 1    
   233  117  118 2    
   234  117  119 am   BACKBONE|DICT|INTERRES
   235  119  120 1    
   236  119  240 1    
   237  120  121 1    
   238  120  124 1    
   239  120  241 1    
   240  121  122 am   BACKBONE|DICT|INTERRES
   241  121  123 2    
   242  122  242 1    
   243  122  243 1    
   244  124  125 1    
   245  124  244 1    
   246  124  245 1    
   247  125  126 1    
   248  126  246 1    
   249  126  247 1    
@<TRIPOS>SUBSTRUCTURE
     1 UNK         1 GROUP             0       ****    0 ROOT    
