@<TRIPOS>MOLECULE
3R540
247   249    1
SMALL
USER_CHARGES


@<TRIPOS>ATOM
      1 CA          0.3906  -15.3846  -53.8611 C.3       0 UNK        -0.1800 
      2 C           0.5237  -14.5479  -52.5969 C.2       0 UNK         0.5000 
      3 O           0.6254  -13.3235  -52.6765 O.2       0 UNK        -0.5000 
      4 N           0.5358  -15.2082  -51.4348 N.am      1 UNK        -0.5000 
      5 CA          0.6271  -14.5796  -50.1152 C.3       1 UNK         0.1400 
      6 C6          1.0718  -15.5984  -49.0369 C.3       23 UNK        -0.0398 
      7 S7          2.8672  -15.8974  -49.0931 S.3       23 UNK        -0.2404 
      8 C8          2.9722  -17.5413  -48.3115 C.3       23 UNK        -0.0205 
      9 C9          3.0333  -18.7132  -49.2908 C.ar      23 UNK        -0.0193 
     10 C10         2.4026  -18.6884  -50.5423 C.ar      23 UNK        -0.1150 
     11 C11         2.5147  -19.7723  -51.4185 C.ar      23 UNK        -0.0193 
     12 C12         3.2253  -20.9088  -51.0208 C.ar      23 UNK        -0.1150 
     13 C13         3.8453  -20.9565  -49.7700 C.ar      23 UNK        -0.0193 
     14 C14         3.7540  -19.8517  -48.9208 C.ar      23 UNK        -0.1150 
     15 C15         4.6473  -22.1815  -49.3498 C.3       23 UNK        -0.0205 
     16 S16         4.0101  -22.9487  -47.8249 S.3       23 UNK        -0.2404 
     17 C17         2.3799  -23.5387  -48.3847 C.3       23 UNK        -0.0398 
     18 CA          1.6608  -24.3787  -47.3025 C.3       11 UNK         0.1400 
     19 N           1.3941  -23.5966  -46.0906 N.am      11 UNK        -0.5000 
     20 C           0.9367  -24.0933  -44.9329 C.2       10 UNK         0.5000 
     21 O           0.7775  -25.2986  -44.7280 O.2       10 UNK        -0.5000 
     22 CA          0.5909  -23.0688  -43.8291 C.3       10 UNK         0.1400 
     23 CB          0.5884  -23.6839  -42.4144 C.3       10 UNK        -0.1800 
     24 N           1.4186  -21.8589  -43.8637 N.am      10 UNK        -0.5000 
     25 C           2.7512  -21.7825  -43.7244 C.2       9 UNK         0.5000 
     26 O           3.4906  -22.7535  -43.5600 O.2       9 UNK        -0.5000 
     27 CA          3.3578  -20.3698  -43.7639 C.3       9 UNK         0.1400 
     28 CB          3.4628  -19.8690  -45.2110 C.3       9 UNK        -0.1800 
     29 N           2.5955  -19.4116  -42.9641 N.am      9 UNK        -0.5000 
     30 C           2.5356  -19.4264  -41.6249 C.2       8 UNK         0.5000 
     31 O           3.1540  -20.2249  -40.9196 O.2       8 UNK        -0.5000 
     32 CA          1.6315  -18.3756  -40.9565 C.3       8 UNK         0.1400 
     33 CB          2.3471  -17.0189  -40.8714 C.3       8 UNK        -0.1800 
     34 N           0.3465  -18.2161  -41.6379 N.am      8 UNK        -0.5000 
     35 C          -0.6149  -19.1505  -41.6701 C.2       7 UNK         0.5000 
     36 O          -0.5351  -20.2355  -41.0939 O.2       7 UNK        -0.5000 
     37 CA         -1.8769  -18.8266  -42.4918 C.3       7 UNK         0.1400 
     38 CB         -2.8546  -17.9787  -41.6649 C.3       7 UNK        -0.1800 
     39 N          -1.5833  -18.1452  -43.7529 N.am      7 UNK        -0.5000 
     40 C          -0.8848  -18.6857  -44.7622 C.2       6 UNK         0.5000 
     41 O          -0.4336  -19.8316  -44.7519 O.2       6 UNK        -0.5000 
     42 CA         -0.5925  -17.7694  -45.9622 C.3       6 UNK         0.1400 
     43 CB         -1.8421  -17.5789  -46.8309 C.3       6 UNK        -0.1800 
     44 N          -0.0932  -16.4587  -45.5538 N.am      6 UNK        -0.5000 
     45 C           1.0310  -16.2357  -44.8616 C.2       5 UNK         0.5000 
     46 O           1.8261  -17.1179  -44.5424 O.2       5 UNK        -0.5000 
     47 CA          1.2769  -14.7888  -44.4020 C.3       5 UNK         0.1400 
     48 CB          1.9128  -13.9449  -45.5172 C.3       5 UNK        -0.1800 
     49 N           0.0498  -14.1420  -43.9359 N.am      5 UNK        -0.5000 
     50 C          -0.5984  -14.4712  -42.8103 C.2       4 UNK         0.5000 
     51 O          -0.2198  -15.3484  -42.0355 O.2       4 UNK        -0.5000 
     52 CA         -1.9056  -13.7136  -42.5181 C.3       4 UNK         0.1400 
     53 CB         -1.6107  -12.3470  -41.8819 C.3       4 UNK        -0.1800 
     54 N          -2.7298  -13.5263  -43.7126 N.am      4 UNK        -0.5000 
     55 C          -3.3431  -14.5222  -44.3657 C.2       3 UNK         0.5000 
     56 O          -3.2775  -15.7059  -44.0320 O.2       3 UNK        -0.5000 
     57 CA         -4.1232  -14.1321  -45.6351 C.3       3 UNK         0.1400 
     58 CB         -5.5011  -13.5612  -45.2685 C.3       3 UNK        -0.1800 
     59 N          -3.4322  -13.1961  -46.5288 N.am      3 UNK        -0.5000 
     60 C          -2.1997  -13.3703  -47.0212 C.2       2 UNK         0.5000 
     61 O          -1.4424  -14.2736  -46.6611 O.2       2 UNK        -0.5000 
     62 CA         -1.7197  -12.3532  -48.0743 C.3       2 UNK         0.1400 
     63 CB         -1.2522  -11.0590  -47.3908 C.3       2 UNK        -0.1800 
     64 N          -0.6077  -12.8988  -48.8538 N.am      2 UNK        -0.5000 
     65 C          -0.7081  -13.9294  -49.7042 C.2       1 UNK         0.5000 
     66 O          -1.7798  -14.3986  -50.0943 O.2       1 UNK        -0.5000 
     67 C           0.3413  -24.9412  -47.8636 C.2       11 UNK         0.5000 
     68 O          -0.6720  -24.2452  -47.8120 O.2       11 UNK        -0.5000 
     69 N           0.3721  -26.1631  -48.4137 N.am      12 UNK        -0.5000 
     70 CA         -0.8065  -26.9046  -48.8844 C.3       12 UNK         0.1400 
     71 CB         -0.3590  -28.2704  -49.4266 C.3       12 UNK        -0.1800 
     72 C          -1.6625  -26.1644  -49.9325 C.2       12 UNK         0.5000 
     73 O          -2.8873  -26.2833  -49.9124 O.2       12 UNK        -0.5000 
     74 N          -1.0058  -25.3874  -50.8028 N.am      13 UNK        -0.5000 
     75 CA         -1.6486  -24.5615  -51.8256 C.3       13 UNK         0.1400 
     76 CB         -0.6213  -24.2613  -52.9266 C.3       13 UNK        -0.1800 
     77 C          -2.2596  -23.2538  -51.2785 C.2       13 UNK         0.5000 
     78 O          -3.1032  -22.6662  -51.9543 O.2       13 UNK        -0.5000 
     79 N          -1.8356  -22.8298  -50.0805 N.am      14 UNK        -0.5000 
     80 CA         -2.2407  -21.5887  -49.4143 C.3       14 UNK         0.1400 
     81 CB         -0.9639  -20.8067  -49.0563 C.3       14 UNK        -0.1800 
     82 C          -3.0883  -21.8637  -48.1520 C.2       14 UNK         0.5000 
     83 O          -3.4113  -20.9320  -47.4124 O.2       14 UNK        -0.5000 
     84 N          -3.4323  -23.1389  -47.9130 N.am      15 UNK        -0.5000 
     85 CA         -4.0374  -23.6695  -46.6858 C.3       15 UNK         0.1400 
     86 CB         -4.0695  -25.2025  -46.7765 C.3       15 UNK        -0.1800 
     87 C          -5.4339  -23.1149  -46.3425 C.2       15 UNK         0.5000 
     88 O          -5.8828  -23.2668  -45.2061 O.2       15 UNK        -0.5000 
     89 N          -6.0817  -22.4557  -47.3107 N.am      16 UNK        -0.5000 
     90 CA         -7.3255  -21.7046  -47.1398 C.3       16 UNK         0.1400 
     91 CB         -7.9215  -21.4379  -48.5313 C.3       16 UNK        -0.1800 
     92 C          -7.1501  -20.3772  -46.3665 C.2       16 UNK         0.5000 
     93 O          -8.1559  -19.7251  -46.0849 O.2       16 UNK        -0.5000 
     94 N          -5.8982  -19.9925  -46.0630 N.am      17 UNK        -0.5000 
     95 CA         -5.4699  -18.7145  -45.4854 C.3       17 UNK         0.1400 
     96 CB         -6.0819  -18.4655  -44.0910 C.3       17 UNK        -0.1800 
     97 C          -5.7131  -17.5705  -46.4843 C.2       17 UNK         0.5000 
     98 O          -6.3955  -16.5925  -46.1785 O.2       17 UNK        -0.5000 
     99 N          -5.1523  -17.7506  -47.6821 N.am      18 UNK        -0.5000 
    100 CA        -5.1876  -16.8572  -48.8317 C.3       18 UNK         0.1400 
    101 CB        -6.6018  -16.8390  -49.4469 C.3       18 UNK        -0.1800 
    102 C         -4.1527  -17.3805  -49.8400 C.2       18 UNK         0.5000 
    103 O         -3.5711  -18.4446  -49.6144 O.2       18 UNK        -0.5000 
    104 N         -3.9633  -16.6537  -50.9492 N.am      19 UNK        -0.5000 
    105 CA        -3.1250  -17.0749  -52.0775 C.3       19 UNK         0.1400 
    106 CB        -3.0903  -15.9536  -53.1270 C.3       19 UNK        -0.1800 
    107 C         -3.6117  -18.3989  -52.7007 C.2       19 UNK         0.5000 
    108 O         -2.8029  -19.2913  -52.9483 O.2       19 UNK        -0.5000 
    109 N         -4.9403  -18.5064  -52.8620 N.am      20 UNK        -0.5000 
    110 CA        -5.7037  -19.7019  -53.2205 C.3       20 UNK         0.1400 
    111 CB        -5.8271  -20.6260  -51.9916 C.3       20 UNK        -0.1800 
    112 C         -5.1878  -20.3998  -54.4957 C.2       20 UNK         0.5000 
    113 O         -5.4538  -19.9030  -55.5916 O.2       20 UNK        -0.5000 
    114 N         -4.4860  -21.5303  -54.3452 N.am      21 UNK        -0.5000 
    115 CA        -3.9825  -22.3429  -55.4520 C.3       21 UNK         0.1400 
    116 CB        -4.0573  -23.8268  -55.0554 C.3       21 UNK        -0.1800 
    117 C         -2.5621  -21.9521  -55.9085 C.2       21 UNK         0.5000 
    118 O         -2.0471  -22.5887  -56.8297 O.2       21 UNK        -0.5000 
    119 N         -1.9467  -20.9357  -55.2913 N.am      22 UNK        -0.5000 
    120 CA        -0.6155  -20.4260  -55.6494 C.3       22 UNK         0.1400 
    121 C         -0.5562  -18.8729  -55.7092 C.2       22 UNK         0.5000 
    122 N          0.6162  -18.2904  -55.9290 N.am      22 UNK        -0.7600 
    123 O         -1.5659  -18.1797  -55.6191 O.2       22 UNK        -0.5000 
    124 C124        0.5088  -21.0943  -54.8120 C.3       23 UNK        -0.0398 
    125 S125        0.4601  -20.7471  -53.0152 S.3       23 UNK        -0.2404 
    126 C126        1.9340  -19.6980  -52.8223 C.3       23 UNK        -0.0205 
    127 H127        0.1218  -16.4168  -53.6347 H         1 UNK         0.0600 
    128 H128        1.3329  -15.3882  -54.4081 H         1 UNK         0.0600 
    129 H129       -0.3800  -14.9692  -54.5099 H         1 UNK         0.0600 
    130 H130        0.4132  -16.2085  -51.4350 H         1 UNK         0.3000 
    131 H131        1.3713  -13.7814  -50.1701 H         1 UNK         0.0600 
    132 H132        0.8477  -15.2428  -48.0313 H         1 UNK         0.0800 
    133 H133        0.5277  -16.5385  -49.1443 H         1 UNK         0.0800 
    134 H134        3.8700  -17.5421  -47.6914 H         1 UNK         0.0800 
    135 H135        2.1384  -17.6862  -47.6261 H         1 UNK         0.0800 
    136 H136        1.8511  -17.8155  -50.8548 H         1 UNK         0.1150 
    137 H137        3.3107  -21.7470  -51.6982 H         1 UNK         0.1150 
    138 H138        4.2560  -19.8804  -47.9657 H         1 UNK         0.1150 
    139 H139        4.6673  -22.9283  -50.1450 H         1 UNK         0.0800 
    140 H140        5.6831  -21.8821  -49.1849 H         1 UNK         0.0800 
    141 H141        2.5298  -24.1278  -49.2914 H         1 UNK         0.0800 
    142 H142        1.7747  -22.6764  -48.6718 H         1 UNK         0.0800 
    143 H143        2.3024  -25.2178  -47.0254 H         1 UNK         0.0600 
    144 H144        1.4926  -22.5965  -46.1741 H         1 UNK         0.3000 
    145 H145       -0.4263  -22.7367  -44.0416 H         1 UNK         0.0600 
    146 H146        0.3254  -22.9392  -41.6629 H         1 UNK         0.0600 
    147 H147       -0.1411  -24.4909  -42.3385 H         1 UNK         0.0600 
    148 H148        1.5623  -24.0968  -42.1507 H         1 UNK         0.0600 
    149 H149        0.9020  -20.9989  -44.0333 H         1 UNK         0.3000 
    150 H150        4.3682  -20.4269  -43.3534 H         1 UNK         0.0600 
    151 H151        4.0459  -20.5671  -45.8113 H         1 UNK         0.0600 
    152 H152        3.9611  -18.9006  -45.2595 H         1 UNK         0.0600 
    153 H153        2.4827  -19.7650  -45.6786 H         1 UNK         0.0600 
    154 H154        2.1060  -18.6803  -43.4734 H         1 UNK         0.3000 
    155 H155        1.4303  -18.7124  -39.9374 H         1 UNK         0.0600 
    156 H156        3.3057  -17.1137  -40.3600 H         1 UNK         0.0600 
    157 H157        1.7528  -16.2944  -40.3146 H         1 UNK         0.0600 
    158 H158        2.5418  -16.6033  -41.8603 H         1 UNK         0.0600 
    159 H159        0.1753  -17.3189  -42.0802 H         1 UNK         0.3000 
    160 H160       -2.3671  -19.7722  -42.7326 H         1 UNK         0.0600 
    161 H161       -2.4365  -17.0003  -41.4260 H         1 UNK         0.0600 
    162 H162       -3.1009  -18.4710  -40.7234 H         1 UNK         0.0600 
    163 H163       -3.7888  -17.8190  -42.2013 H         1 UNK         0.0600 
    164 H164       -1.9443  -17.2013  -43.8520 H         1 UNK         0.3000 
    165 H165        0.1725  -18.2572  -46.5675 H         1 UNK         0.0600 
    166 H166       -1.6006  -17.0749  -47.7668 H         1 UNK         0.0600 
    167 H167       -2.2952  -18.5368  -47.0821 H         1 UNK         0.0600 
    168 H168       -2.5998  -16.9849  -46.3218 H         1 UNK         0.0600 
    169 H169       -0.6689  -15.6574  -45.8069 H         1 UNK         0.3000 
    170 H170        1.9812  -14.8270  -43.5684 H         1 UNK         0.0600 
    171 H171        2.7759  -14.4514  -45.9519 H         1 UNK         0.0600 
    172 H172        1.2090  -13.7392  -46.3225 H         1 UNK         0.0600 
    173 H173        2.2595  -12.9867  -45.1305 H         1 UNK         0.0600 
    174 H174       -0.3683  -13.4618  -44.5531 H         1 UNK         0.3000 
    175 H175       -2.4779  -14.3058  -41.8007 H         1 UNK         0.0600 
    176 H176       -1.0086  -12.4593  -40.9792 H         1 UNK         0.0600 
    177 H177       -1.0637  -11.6934  -42.5624 H         1 UNK         0.0600 
    178 H178       -2.5317  -11.8388  -41.5956 H         1 UNK         0.0600 
    179 H179       -2.8249  -12.5853  -44.0647 H         1 UNK         0.3000 
    180 H180       -4.2714  -15.0477  -46.2064 H         1 UNK         0.0600 
    181 H181       -6.0392  -14.2377  -44.6029 H         1 UNK         0.0600 
    182 H182       -5.4192  -12.5983  -44.7631 H         1 UNK         0.0600 
    183 H183       -6.1196  -13.4262  -46.1560 H         1 UNK         0.0600 
    184 H184       -3.9776  -12.4115  -46.8552 H         1 UNK         0.3000 
    185 H185       -2.5464  -12.1273  -48.7509 H         1 UNK         0.0600 
    186 H186       -2.0623  -10.5971  -46.8250 H         1 UNK         0.0600 
    187 H187       -0.4309  -11.2433  -46.6967 H         1 UNK         0.0600 
    188 H188       -0.9134  -10.3266  -48.1238 H         1 UNK         0.0600 
    189 H189        0.3117  -12.5879  -48.5777 H         1 UNK         0.3000 
    190 H190        1.2469  -26.6675  -48.4322 H         1 UNK         0.3000 
    191 H191       -1.4435  -27.0803  -48.0155 H         1 UNK         0.0600 
    192 H192        0.3216  -28.1644  -50.2723 H         1 UNK         0.0600 
    193 H193       -1.2146  -28.8565  -49.7651 H         1 UNK         0.0600 
    194 H194        0.1477  -28.8542  -48.6579 H         1 UNK         0.0600 
    195 H195        0.0012  -25.3480  -50.7499 H         1 UNK         0.3000 
    196 H196       -2.4630  -25.1356  -52.2720 H         1 UNK         0.0600 
    197 H197       -1.0538  -23.6321  -53.7046 H         1 UNK         0.0600 
    198 H198       -0.2765  -25.1775  -53.4058 H         1 UNK         0.0600 
    199 H199        0.2507  -23.7402  -52.5302 H         1 UNK         0.0600 
    200 H200       -1.1998  -23.4137  -49.5484 H         1 UNK         0.3000 
    201 H201       -2.8415  -20.9753  -50.0877 H         1 UNK         0.0600 
    202 H202       -1.2070  -19.8156  -48.6763 H         1 UNK         0.0600 
    203 H203       -0.3765  -21.3192  -48.2935 H         1 UNK         0.0600 
    204 H204       -0.3287  -20.6638  -49.9309 H         1 UNK         0.0600 
    205 H205       -3.1076  -23.8304  -48.5734 H         1 UNK         0.3000 
    206 H206       -3.3789  -23.3942  -45.8596 H         1 UNK         0.0600 
    207 H207       -3.0637  -25.6087  -46.8810 H         1 UNK         0.0600 
    208 H208       -4.5024  -25.6431  -45.8774 H         1 UNK         0.0600 
    209 H209       -4.6601  -25.5421  -47.6282 H         1 UNK         0.0600 
    210 H210       -5.6272  -22.3805  -48.2087 H         1 UNK         0.3000 
    211 H211       -8.0279  -22.3222  -46.5764 H         1 UNK         0.0600 
    212 H212       -8.8925  -20.9468  -48.4553 H         1 UNK         0.0600 
    213 H213       -8.0709  -22.3651  -49.0849 H         1 UNK         0.0600 
    214 H214       -7.2737  -20.7911  -49.1227 H         1 UNK         0.0600 
    215 H215       -5.1392  -20.5782  -46.3967 H         1 UNK         0.3000 
    216 H216       -4.3890  -18.7844  -45.3526 H         1 UNK         0.0600 
    217 H217       -5.6773  -17.5519  -43.6542 H         1 UNK         0.0600 
    218 H218       -5.8530  -19.2839  -43.4086 H         1 UNK         0.0600 
    219 H219       -7.1647  -18.3485  -44.1276 H         1 UNK         0.0600 
    220 H220       -4.5861  -18.5765  -47.8520 H         1 UNK         0.3000 
    221 H221       -4.8959  -15.8530  -48.5185 H         1 UNK         0.0600 
    222 H222       -6.9069  -17.8338  -49.7746 H         1 UNK         0.0600 
    223 H223       -7.3444  -16.4826  -48.7333 H         1 UNK         0.0600 
    224 H224       -6.6511  -16.1772  -50.3118 H         1 UNK         0.0600 
    225 H225       -4.4405  -15.7702  -51.0485 H         1 UNK         0.3000 
    226 H226       -2.1106  -17.2315  -51.7049 H         1 UNK         0.0600 
    227 H227       -2.4892  -16.2449  -53.9880 H         1 UNK         0.0600 
    228 H228       -4.0878  -15.7104  -53.4940 H         1 UNK         0.0600 
    229 H229       -2.6521  -15.0437  -52.7167 H         1 UNK         0.0600 
    230 H230       -5.4959  -17.6913  -52.6499 H         1 UNK         0.3000 
    231 H231       -6.7112  -19.3599  -53.4619 H         1 UNK         0.0600 
    232 H232       -6.4154  -20.1429  -51.2128 H         1 UNK         0.0600 
    233 H233       -4.8566  -20.8627  -51.5592 H         1 UNK         0.0600 
    234 H234       -6.3267  -21.5632  -52.2395 H         1 UNK         0.0600 
    235 H235       -4.2128  -21.8277  -53.4120 H         1 UNK         0.3000 
    236 H236       -4.6335  -22.2106  -56.3186 H         1 UNK         0.0600 
    237 H237       -5.0702  -24.1072  -54.7660 H         1 UNK         0.0600 
    238 H238       -3.7688  -24.4714  -55.8864 H         1 UNK         0.0600 
    239 H239       -3.3964  -24.0551  -54.2220 H         1 UNK         0.0600 
    240 H240       -2.4135  -20.4310  -54.5414 H         1 UNK         0.3000 
    241 H241       -0.4295  -20.7042  -56.6882 H         1 UNK         0.0600 
    242 H242        1.4613  -18.8209  -56.0635 H         1 UNK         0.3800 
    243 H243        0.6458  -17.2870  -56.0077 H         1 UNK         0.3800 
    244 H244        0.4437  -22.1756  -54.9339 H         1 UNK         0.0800 
    245 H245        1.4854  -20.8349  -55.2198 H         1 UNK         0.0800 
    246 H246        1.6760  -18.6709  -53.0850 H         1 UNK         0.0800 
    247 H247        2.7111  -20.0069  -53.5222 H         1 UNK         0.0800 
@<TRIPOS>BOND
     1    1    2 1    
     2    1  127 1    
     3    1  128 1    
     4    1  129 1    
     5    2    3 2    
     6    2    4 am   BACKBONE|DICT|INTERRES
     7    4    5 1    
     8    4  130 1    
     9    5    6 1    
    10    5   65 1    
    11    5  131 1    
    12    6    7 1    
    13    6  132 1    
    14    6  133 1    
    15    7    8 1    
    16    8    9 1    
    17    8  134 1    
    18    8  135 1    
    19    9   10 ar   
    20    9   14 ar   
    21   10   11 ar   
    22   10  136 1    
    23   11   12 ar   
    24   11  126 1    
    25   12   13 ar   
    26   12  137 1    
    27   13   14 ar   
    28   13   15 1    
    29   14  138 1    
    30   15   16 1    
    31   15  139 1    
    32   15  140 1    
    33   16   17 1    
    34   17   18 1    
    35   17  141 1    
    36   17  142 1    
    37   18   19 1    
    38   18   67 1    
    39   18  143 1    
    40   19   20 am   BACKBONE|DICT|INTERRES
    41   19  144 1    
    42   20   21 2    
    43   20   22 1    
    44   22   23 1    
    45   22   24 1    
    46   22  145 1    
    47   23  146 1    
    48   23  147 1    
    49   23  148 1    
    50   24   25 am   BACKBONE|DICT|INTERRES
    51   24  149 1    
    52   25   26 2    
    53   25   27 1    
    54   27   28 1    
    55   27   29 1    
    56   27  150 1    
    57   28  151 1    
    58   28  152 1    
    59   28  153 1    
    60   29   30 am   BACKBONE|DICT|INTERRES
    61   29  154 1    
    62   30   31 2    
    63   30   32 1    
    64   32   33 1    
    65   32   34 1    
    66   32  155 1    
    67   33  156 1    
    68   33  157 1    
    69   33  158 1    
    70   34   35 am   BACKBONE|DICT|INTERRES
    71   34  159 1    
    72   35   36 2    
    73   35   37 1    
    74   37   38 1    
    75   37   39 1    
    76   37  160 1    
    77   38  161 1    
    78   38  162 1    
    79   38  163 1    
    80   39   40 am   BACKBONE|DICT|INTERRES
    81   39  164 1    
    82   40   41 2    
    83   40   42 1    
    84   42   43 1    
    85   42   44 1    
    86   42  165 1    
    87   43  166 1    
    88   43  167 1    
    89   43  168 1    
    90   44   45 am   BACKBONE|DICT|INTERRES
    91   44  169 1    
    92   45   46 2    
    93   45   47 1    
    94   47   48 1    
    95   47   49 1    
    96   47  170 1    
    97   48  171 1    
    98   48  172 1    
    99   48  173 1    
   100   49   50 am   BACKBONE|DICT|INTERRES
   101   49  174 1    
   102   50   51 2    
   103   50   52 1    
   104   52   53 1    
   105   52   54 1    
   106   52  175 1    
   107   53  176 1    
   108   53  177 1    
   109   53  178 1    
   110   54   55 am   BACKBONE|DICT|INTERRES
   111   54  179 1    
   112   55   56 2    
   113   55   57 1    
   114   57   58 1    
   115   57   59 1    
   116   57  180 1    
   117   58  181 1    
   118   58  182 1    
   119   58  183 1    
   120   59   60 am   BACKBONE|DICT|INTERRES
   121   59  184 1    
   122   60   61 2    
   123   60   62 1    
   124   62   63 1    
   125   62   64 1    
   126   62  185 1    
   127   63  186 1    
   128   63  187 1    
   129   63  188 1    
   130   64   65 am   BACKBONE|DICT|INTERRES
   131   64  189 1    
   132   65   66 2    
   133   67   68 2    
   134   67   69 am   BACKBONE|DICT|INTERRES
   135   69   70 1    
   136   69  190 1    
   137   70   71 1    
   138   70   72 1    
   139   70  191 1    
   140   71  192 1    
   141   71  193 1    
   142   71  194 1    
   143   72   73 2    
   144   72   74 am   BACKBONE|DICT|INTERRES
   145   74   75 1    
   146   74  195 1    
   147   75   76 1    
   148   75   77 1    
   149   75  196 1    
   150   76  197 1    
   151   76  198 1    
   152   76  199 1    
   153   77   78 2    
   154   77   79 am   BACKBONE|DICT|INTERRES
   155   79   80 1    
   156   79  200 1    
   157   80   81 1    
   158   80   82 1    
   159   80  201 1    
   160   81  202 1    
   161   81  203 1    
   162   81  204 1    
   163   82   83 2    
   164   82   84 am   BACKBONE|DICT|INTERRES
   165   84   85 1    
   166   84  205 1    
   167   85   86 1    
   168   85   87 1    
   169   85  206 1    
   170   86  207 1    
   171   86  208 1    
   172   86  209 1    
   173   87   88 2    
   174   87   89 am   BACKBONE|DICT|INTERRES
   175   89   90 1    
   176   89  210 1    
   177   90   91 1    
   178   90   92 1    
   179   90  211 1    
   180   91  212 1    
   181   91  213 1    
   182   91  214 1    
   183   92   93 2    
   184   92   94 am   BACKBONE|DICT|INTERRES
   185   94   95 1    
   186   94  215 1    
   187   95   96 1    
   188   95   97 1    
   189   95  216 1    
   190   96  217 1    
   191   96  218 1    
   192   96  219 1    
   193   97   98 2    
   194   97   99 am   BACKBONE|DICT|INTERRES
   195   99  100 1    
   196   99  220 1    
   197  100  101 1    
   198  100  102 1    
   199  100  221 1    
   200  101  222 1    
   201  101  223 1    
   202  101  224 1    
   203  102  103 2    
   204  102  104 am   BACKBONE|DICT|INTERRES
   205  104  105 1    
   206  104  225 1    
   207  105  106 1    
   208  105  107 1    
   209  105  226 1    
   210  106  227 1    
   211  106  228 1    
   212  106  229 1    
   213  107  108 2    
   214  107  109 am   BACKBONE|DICT|INTERRES
   215  109  110 1    
   216  109  230 1    
   217  110  111 1    
   218  110  112 1    
   219  110  231 1    
   220  111  232 1    
   221  111  233 1    
   222  111  234 1    
   223  112  113 2    
   224  112  114 am   BACKBONE|DICT|INTERRES
   225  114  115 1    
   226  114  235 1    
   227  115  116 1    
   228  115  117 1    
   229  115  236 1    
   230  116  237 1    
   231  116  238 1    
   232  116  239 1    
   233  117  118 2    
   234  117  119 am   BACKBONE|DICT|INTERRES
   235  119  120 1    
   236  119  240 1    
   237  120  121 1    
   238  120  124 1    
   239  120  241 1    
   240  121  122 am   BACKBONE|DICT|INTERRES
   241  121  123 2    
   242  122  242 1    
   243  122  243 1    
   244  124  125 1    
   245  124  244 1    
   246  124  245 1    
   247  125  126 1    
   248  126  246 1    
   249  126  247 1    
@<TRIPOS>SUBSTRUCTURE
     1 UNK         1 GROUP             0       ****    0 ROOT    
