@<TRIPOS>MOLECULE
3R540
247   249    1
SMALL
USER_CHARGES


@<TRIPOS>ATOM
      1 CA          0.8738  -13.8801  -49.3093 C.3       0 UNK        -0.1800 
      2 C           1.2860  -13.6516  -47.8626 C.2       0 UNK         0.5000 
      3 O           0.8801  -12.6599  -47.2584 O.2       0 UNK        -0.5000 
      4 N           2.0755  -14.5743  -47.2978 N.am      1 UNK        -0.5000 
      5 CA          2.5822  -14.5502  -45.9187 C.3       1 UNK         0.1400 
      6 C6          3.5634  -15.7155  -45.6239 C.3       23 UNK        -0.0398 
      7 S7          2.9110  -17.3709  -46.0537 S.3       23 UNK        -0.2404 
      8 C8          3.6721  -17.6403  -47.6904 C.3       23 UNK        -0.0205 
      9 C9          2.7252  -18.2981  -48.6877 C.ar      23 UNK        -0.0193 
     10 C10         1.4535  -17.7660  -48.9247 C.ar      23 UNK        -0.1150 
     11 C11         0.6061  -18.3311  -49.8804 C.ar      23 UNK        -0.0193 
     12 C12         1.0397  -19.4422  -50.6090 C.ar      23 UNK        -0.1150 
     13 C13         2.3116  -19.9818  -50.3894 C.ar      23 UNK        -0.0193 
     14 C14         3.1445  -19.4104  -49.4228 C.ar      23 UNK        -0.1150 
     15 C15         2.8096  -21.1550  -51.2210 C.3       23 UNK        -0.0205 
     16 S16         2.6420  -22.7438  -50.3481 S.3       23 UNK        -0.2404 
     17 C17         0.8371  -23.0020  -50.4034 C.3       23 UNK        -0.0398 
     18 CA          0.1871  -23.0432  -49.0013 C.3       11 UNK         0.1400 
     19 N           0.5068  -21.8583  -48.1897 N.am      11 UNK        -0.5000 
     20 C           0.2014  -21.7121  -46.8939 C.2       10 UNK         0.5000 
     21 O          -0.4539  -22.5368  -46.2511 O.2       10 UNK        -0.5000 
     22 CA          0.6435  -20.3993  -46.2285 C.3       10 UNK         0.1400 
     23 CB         -0.4468  -19.3284  -46.3831 C.3       10 UNK        -0.1800 
     24 N           0.9107  -20.6012  -44.8077 N.am      10 UNK        -0.5000 
     25 C           1.9861  -21.2240  -44.3155 C.2       9 UNK         0.5000 
     26 O           2.9428  -21.5711  -45.0111 O.2       9 UNK        -0.5000 
     27 CA          1.9826  -21.5146  -42.7976 C.3       9 UNK         0.1400 
     28 CB          3.3230  -22.0875  -42.3012 C.3       9 UNK        -0.1800 
     29 N           1.6498  -20.3467  -41.9792 N.am      9 UNK        -0.5000 
     30 C           0.4291  -19.8288  -41.7846 C.2       8 UNK         0.5000 
     31 O          -0.5848  -20.2537  -42.3397 O.2       8 UNK        -0.5000 
     32 CA          0.3179  -18.6452  -40.8027 C.3       8 UNK         0.1400 
     33 CB         -0.2538  -19.1186  -39.4573 C.3       8 UNK        -0.1800 
     34 N           1.6017  -17.9785  -40.5633 N.am      8 UNK        -0.5000 
     35 C           2.1462  -17.0925  -41.4040 C.2       7 UNK         0.5000 
     36 O           1.6106  -16.7230  -42.4484 O.2       7 UNK        -0.5000 
     37 CA          3.5297  -16.5485  -41.0359 C.3       7 UNK         0.1400 
     38 CB          4.6328  -17.3799  -41.7180 C.3       7 UNK        -0.1800 
     39 N           3.5986  -15.1554  -41.4611 N.am      7 UNK        -0.5000 
     40 C           4.4922  -14.2535  -41.0375 C.2       6 UNK         0.5000 
     41 O           5.4018  -14.5078  -40.2470 O.2       6 UNK        -0.5000 
     42 CA          4.3340  -12.8206  -41.5727 C.3       6 UNK         0.1400 
     43 CB          5.0429  -12.6673  -42.9275 C.3       6 UNK        -0.1800 
     44 N           2.9288  -12.4579  -41.7308 N.am      6 UNK        -0.5000 
     45 C           2.1270  -12.0108  -40.7566 C.2       5 UNK         0.5000 
     46 O           2.5013  -11.8201  -39.5981 O.2       5 UNK        -0.5000 
     47 CA          0.6621  -11.7359  -41.1624 C.3       5 UNK         0.1400 
     48 CB         -0.0789  -10.8010  -40.1842 C.3       5 UNK        -0.1800 
     49 N           0.5430  -11.2612  -42.5456 N.am      5 UNK        -0.5000 
     50 C           1.0315  -10.1284  -43.0743 C.2       4 UNK         0.5000 
     51 O           1.5906   -9.2465  -42.4214 O.2       4 UNK        -0.5000 
     52 CA          0.9027   -9.9626  -44.6029 C.3       4 UNK         0.1400 
     53 CB          2.2609  -10.2168  -45.2763 C.3       4 UNK        -0.1800 
     54 N          -0.0871  -10.8582  -45.2038 N.am      4 UNK        -0.5000 
     55 C          -1.4159  -10.7319  -45.0855 C.2       3 UNK         0.5000 
     56 O          -1.9682   -9.7924  -44.5126 O.2       3 UNK        -0.5000 
     57 CA         -2.2633  -11.8759  -45.6705 C.3       3 UNK         0.1400 
     58 CB         -2.5036  -11.6720  -47.1743 C.3       3 UNK        -0.1800 
     59 N          -1.6383  -13.1812  -45.4443 N.am      3 UNK        -0.5000 
     60 C          -1.6100  -13.8104  -44.2606 C.2       2 UNK         0.5000 
     61 O          -2.1527  -13.3764  -43.2448 O.2       2 UNK        -0.5000 
     62 CA         -0.8170  -15.1272  -44.1853 C.3       2 UNK         0.1400 
     63 CB         -1.7190  -16.3323  -44.4886 C.3       2 UNK        -0.1800 
     64 N           0.3418  -15.1438  -45.0792 N.am      2 UNK        -0.5000 
     65 C           1.4716  -14.4599  -44.8513 C.2       1 UNK         0.5000 
     66 O           1.6492  -13.7433  -43.8662 O.2       1 UNK        -0.5000 
     67 C          -1.3302  -23.3005  -49.1285 C.2       11 UNK         0.5000 
     68 O          -1.7352  -24.4404  -49.3510 O.2       11 UNK        -0.5000 
     69 N          -2.1444  -22.2551  -48.9273 N.am      12 UNK        -0.5000 
     70 CA         -3.6050  -22.3045  -48.8580 C.3       12 UNK         0.1400 
     71 CB         -4.1250  -20.8772  -48.6311 C.3       12 UNK        -0.1800 
     72 C          -4.1562  -23.2496  -47.7700 C.2       12 UNK         0.5000 
     73 O          -5.2686  -23.7550  -47.9160 O.2       12 UNK        -0.5000 
     74 N          -3.3709  -23.4891  -46.7098 N.am      13 UNK        -0.5000 
     75 CA         -3.6874  -24.4578  -45.6614 C.3       13 UNK         0.1400 
     76 CB         -2.8882  -24.1004  -44.3983 C.3       13 UNK        -0.1800 
     77 C          -3.4002  -25.9131  -46.0848 C.2       13 UNK         0.5000 
     78 O          -3.9429  -26.8312  -45.4685 O.2       13 UNK        -0.5000 
     79 N          -2.5463  -26.1071  -47.1002 N.am      14 UNK        -0.5000 
     80 CA         -2.1024  -27.4175  -47.5704 C.3       14 UNK         0.1400 
     81 CB         -0.6268  -27.3330  -47.9937 C.3       14 UNK        -0.1800 
     82 C          -2.9633  -27.9558  -48.7251 C.2       14 UNK         0.5000 
     83 O          -3.1417  -29.1721  -48.8085 O.2       14 UNK        -0.5000 
     84 N          -3.4774  -27.0738  -49.5946 N.am      15 UNK        -0.5000 
     85 CA         -4.2674  -27.4572  -50.7632 C.3       15 UNK         0.1400 
     86 CB         -3.3291  -27.7805  -51.9401 C.3       15 UNK        -0.1800 
     87 C          -5.2515  -26.3495  -51.1558 C.2       15 UNK         0.5000 
     88 O          -4.9085  -25.1673  -51.0943 O.2       15 UNK        -0.5000 
     89 N          -6.4361  -26.7601  -51.6280 N.am      16 UNK        -0.5000 
     90 CA         -7.4811  -25.8744  -52.1484 C.3       16 UNK         0.1400 
     91 CB         -8.7875  -26.6663  -52.3046 C.3       16 UNK        -0.1800 
     92 C          -7.0923  -25.2066  -53.4809 C.2       16 UNK         0.5000 
     93 O          -7.4952  -24.0718  -53.7312 O.2       16 UNK        -0.5000 
     94 N          -6.2819  -25.8981  -54.2955 N.am      17 UNK        -0.5000 
     95 CA         -5.7067  -25.3634  -55.5325 C.3       17 UNK         0.1400 
     96 CB         -5.0306  -26.4994  -56.3143 C.3       17 UNK        -0.1800 
     97 C          -4.7102  -24.2221  -55.2592 C.2       17 UNK         0.5000 
     98 O          -4.6988  -23.2278  -55.9851 O.2       17 UNK        -0.5000 
     99 N          -3.9289  -24.3621  -54.1798 N.am      18 UNK        -0.5000 
    100 CA        -3.0231  -23.3276  -53.6896 C.3       18 UNK         0.1400 
    101 CB        -2.0270  -23.9386  -52.6993 C.3       18 UNK        -0.1800 
    102 C         -3.7814  -22.1449  -53.0631 C.2       18 UNK         0.5000 
    103 O         -3.3537  -21.0070  -53.2383 O.2       18 UNK        -0.5000 
    104 N         -4.9132  -22.4198  -52.3978 N.am      19 UNK        -0.5000 
    105 CA        -5.8219  -21.4040  -51.8568 C.3       19 UNK         0.1400 
    106 CB        -6.8571  -22.0690  -50.9364 C.3       19 UNK        -0.1800 
    107 C         -6.5241  -20.5763  -52.9504 C.2       19 UNK         0.5000 
    108 O         -6.8082  -19.3989  -52.7327 O.2       19 UNK        -0.5000 
    109 N         -6.7850  -21.1955  -54.1093 N.am      20 UNK        -0.5000 
    110 CA        -7.3019  -20.5223  -55.2995 C.3       20 UNK         0.1400 
    111 CB        -7.8580  -21.5661  -56.2800 C.3       20 UNK        -0.1800 
    112 C         -6.2328  -19.6415  -55.9743 C.2       20 UNK         0.5000 
    113 O         -6.5552  -18.5475  -56.4389 O.2       20 UNK        -0.5000 
    114 N         -4.9839  -20.1280  -56.0115 N.am      21 UNK        -0.5000 
    115 CA        -3.8343  -19.4221  -56.5797 C.3       21 UNK         0.1400 
    116 CB        -2.6922  -20.4228  -56.8146 C.3       21 UNK        -0.1800 
    117 C         -3.3533  -18.2461  -55.7072 C.2       21 UNK         0.5000 
    118 O         -3.0091  -17.1933  -56.2459 O.2       21 UNK        -0.5000 
    119 N         -3.3331  -18.4479  -54.3865 N.am      22 UNK        -0.5000 
    120 CA        -2.8885  -17.4915  -53.3717 C.3       22 UNK         0.1400 
    121 C         -3.9589  -17.4274  -52.2519 C.2       22 UNK         0.5000 
    122 N         -4.7882  -16.3923  -52.2332 N.am      22 UNK        -0.7600 
    123 O         -4.0308  -18.2958  -51.3876 O.2       22 UNK        -0.5000 
    124 C124       -1.4752  -17.8735  -52.8553 C.3       23 UNK        -0.0398 
    125 S125       -0.7968  -16.7006  -51.6269 S.3       23 UNK        -0.2404 
    126 C126       -0.7700  -17.7275  -50.1217 C.3       23 UNK        -0.0205 
    127 H127        1.3789  -14.7418  -49.7463 H         1 UNK         0.0600 
    128 H128        1.1169  -13.0043  -49.9106 H         1 UNK         0.0600 
    129 H129       -0.2013  -14.0487  -49.3705 H         1 UNK         0.0600 
    130 H130        2.3761  -15.3641  -47.8481 H         1 UNK         0.3000 
    131 H131        3.1545  -13.6248  -45.8272 H         1 UNK         0.0600 
    132 H132        4.4991  -15.5489  -46.1586 H         1 UNK         0.0800 
    133 H133        3.8419  -15.7235  -44.5685 H         1 UNK         0.0800 
    134 H134        4.0057  -16.6959  -48.1209 H         1 UNK         0.0800 
    135 H135        4.5699  -18.2446  -47.5520 H         1 UNK         0.0800 
    136 H136        1.1170  -16.9074  -48.3650 H         1 UNK         0.1150 
    137 H137        0.3948  -19.8713  -51.3621 H         1 UNK         0.1150 
    138 H138        4.1312  -19.8218  -49.2612 H         1 UNK         0.1150 
    139 H139        2.2852  -21.2020  -52.1768 H         1 UNK         0.0800 
    140 H140        3.8618  -21.0018  -51.4653 H         1 UNK         0.0800 
    141 H141        0.6613  -23.9446  -50.9256 H         1 UNK         0.0800 
    142 H142        0.3755  -22.2285  -51.0171 H         1 UNK         0.0800 
    143 H143        0.6004  -23.9051  -48.4727 H         1 UNK         0.0600 
    144 H144        1.0541  -21.1443  -48.6515 H         1 UNK         0.3000 
    145 H145        1.5560  -20.0503  -46.7148 H         1 UNK         0.0600 
    146 H146       -0.0870  -18.3602  -46.0369 H         1 UNK         0.0600 
    147 H147       -0.7412  -19.2082  -47.4255 H         1 UNK         0.0600 
    148 H148       -1.3445  -19.5798  -45.8168 H         1 UNK         0.0600 
    149 H149        0.1566  -20.3910  -44.1624 H         1 UNK         0.3000 
    150 H150        1.2186  -22.2767  -42.6297 H         1 UNK         0.0600 
    151 H151        4.1402  -21.3795  -42.4450 H         1 UNK         0.0600 
    152 H152        3.5816  -23.0029  -42.8352 H         1 UNK         0.0600 
    153 H153        3.2774  -22.3374  -41.2410 H         1 UNK         0.0600 
    154 H154        2.4233  -19.9043  -41.5072 H         1 UNK         0.3000 
    155 H155       -0.3825  -17.9262  -41.2342 H         1 UNK         0.0600 
    156 H156        0.4024  -19.8424  -38.9724 H         1 UNK         0.0600 
    157 H157       -1.2258  -19.5952  -39.5915 H         1 UNK         0.0600 
    158 H158       -0.3961  -18.2819  -38.7731 H         1 UNK         0.0600 
    159 H159        2.0933  -18.2316  -39.7177 H         1 UNK         0.3000 
    160 H160        3.6520  -16.5947  -39.9518 H         1 UNK         0.0600 
    161 H161        4.5407  -17.3544  -42.8045 H         1 UNK         0.0600 
    162 H162        4.5820  -18.4248  -41.4099 H         1 UNK         0.0600 
    163 H163        5.6269  -17.0166  -41.4583 H         1 UNK         0.0600 
    164 H164        2.8586  -14.8728  -42.0940 H         1 UNK         0.3000 
    165 H165        4.8028  -12.1370  -40.8615 H         1 UNK         0.0600 
    166 H166        6.1036  -12.9065  -42.8421 H         1 UNK         0.0600 
    167 H167        4.6168  -13.3273  -43.6834 H         1 UNK         0.0600 
    168 H168        4.9682  -11.6442  -43.2968 H         1 UNK         0.0600 
    169 H169        2.5037  -12.6668  -42.6308 H         1 UNK         0.3000 
    170 H170        0.1580  -12.7031  -41.1354 H         1 UNK         0.0600 
    171 H171       -0.1216  -11.2368  -39.1854 H         1 UNK         0.0600 
    172 H172        0.4124   -9.8319  -40.0956 H         1 UNK         0.0600 
    173 H173       -1.1059  -10.6293  -40.5065 H         1 UNK         0.0600 
    174 H174        0.1400  -11.9253  -43.1919 H         1 UNK         0.3000 
    175 H175        0.6044   -8.9314  -44.8022 H         1 UNK         0.0600 
    176 H176        2.2027  -10.0622  -46.3539 H         1 UNK         0.0600 
    177 H177        3.0236   -9.5391  -44.8906 H         1 UNK         0.0600 
    178 H178        2.6093  -11.2356  -45.1031 H         1 UNK         0.0600 
    179 H179        0.2768  -11.6243  -45.7648 H         1 UNK         0.3000 
    180 H180       -3.2338  -11.8641  -45.1696 H         1 UNK         0.0600 
    181 H181       -1.5712  -11.6680  -47.7393 H         1 UNK         0.0600 
    182 H182       -3.0032  -10.7208  -47.3620 H         1 UNK         0.0600 
    183 H183       -3.1390  -12.4584  -47.5819 H         1 UNK         0.0600 
    184 H184       -1.1172  -13.5732  -46.2152 H         1 UNK         0.3000 
    185 H185       -0.4630  -15.2276  -43.1572 H         1 UNK         0.0600 
    186 H186       -2.6249  -16.3068  -43.8815 H         1 UNK         0.0600 
    187 H187       -2.0237  -16.3593  -45.5353 H         1 UNK         0.0600 
    188 H188       -1.2071  -17.2663  -44.2570 H         1 UNK         0.0600 
    189 H189        0.2846  -15.7235  -45.9022 H         1 UNK         0.3000 
    190 H190       -1.7204  -21.3594  -48.7407 H         1 UNK         0.3000 
    191 H191       -3.9648  -22.6691  -49.8204 H         1 UNK         0.0600 
    192 H192       -3.7823  -20.2017  -49.4148 H         1 UNK         0.0600 
    193 H193       -5.2153  -20.8517  -48.6322 H         1 UNK         0.0600 
    194 H194       -3.7886  -20.4748  -47.6747 H         1 UNK         0.0600 
    195 H195       -2.4610  -23.0443  -46.6516 H         1 UNK         0.3000 
    196 H196       -4.7501  -24.3850  -45.4207 H         1 UNK         0.0600 
    197 H197       -3.1493  -24.7615  -43.5710 H         1 UNK         0.0600 
    198 H198       -3.0927  -23.0793  -44.0756 H         1 UNK         0.0600 
    199 H199       -1.8138  -24.1908  -44.5626 H         1 UNK         0.0600 
    200 H200       -2.1949  -25.3073  -47.6136 H         1 UNK         0.3000 
    201 H201       -2.1643  -28.1361  -46.7502 H         1 UNK         0.0600 
    202 H202       -0.2459  -28.3177  -48.2676 H         1 UNK         0.0600 
    203 H203       -0.4848  -26.6804  -48.8551 H         1 UNK         0.0600 
    204 H204       -0.0035  -26.9581  -47.1818 H         1 UNK         0.0600 
    205 H205       -3.2959  -26.0820  -49.4858 H         1 UNK         0.3000 
    206 H206       -4.8523  -28.3482  -50.5243 H         1 UNK         0.0600 
    207 H207       -2.6821  -28.6266  -51.7081 H         1 UNK         0.0600 
    208 H208       -3.8930  -28.0427  -52.8361 H         1 UNK         0.0600 
    209 H209       -2.6899  -26.9323  -52.1875 H         1 UNK         0.0600 
    210 H210       -6.6377  -27.7496  -51.6519 H         1 UNK         0.3000 
    211 H211       -7.6486  -25.0828  -51.4156 H         1 UNK         0.0600 
    212 H212       -8.6792  -27.4895  -53.0119 H         1 UNK         0.0600 
    213 H213       -9.5912  -26.0244  -52.6684 H         1 UNK         0.0600 
    214 H214       -9.1129  -27.0824  -51.3510 H         1 UNK         0.0600 
    215 H215       -6.0110  -26.8328  -54.0293 H         1 UNK         0.3000 
    216 H216       -6.5180  -24.9604  -56.1426 H         1 UNK         0.0600 
    217 H217       -4.6052  -26.1298  -57.2483 H         1 UNK         0.0600 
    218 H218       -5.7460  -27.2807  -56.5712 H         1 UNK         0.0600 
    219 H219       -4.2220  -26.9583  -55.7439 H         1 UNK         0.0600 
    220 H220       -4.0238  -25.1906  -53.6127 H         1 UNK         0.3000 
    221 H221       -2.4534  -22.9427  -54.5379 H         1 UNK         0.0600 
    222 H222       -2.5317  -24.3764  -51.8399 H         1 UNK         0.0600 
    223 H223       -1.4262  -24.7172  -53.1692 H         1 UNK         0.0600 
    224 H224       -1.3430  -23.1765  -52.3293 H         1 UNK         0.0600 
    225 H225       -5.1605  -23.3892  -52.2391 H         1 UNK         0.3000 
    226 H226       -5.2261  -20.7146  -51.2585 H         1 UNK         0.0600 
    227 H227       -7.4206  -21.3159  -50.3848 H         1 UNK         0.0600 
    228 H228       -7.5770  -22.6620  -51.4989 H         1 UNK         0.0600 
    229 H229       -6.3855  -22.7237  -50.2047 H         1 UNK         0.0600 
    230 H230       -6.6157  -22.1920  -54.1772 H         1 UNK         0.3000 
    231 H231       -8.1273  -19.8743  -54.9970 H         1 UNK         0.0600 
    232 H232       -7.0826  -22.2447  -56.6348 H         1 UNK         0.0600 
    233 H233       -8.2957  -21.0835  -57.1546 H         1 UNK         0.0600 
    234 H234       -8.6392  -22.1672  -55.8139 H         1 UNK         0.0600 
    235 H235       -4.8156  -21.0595  -55.6521 H         1 UNK         0.3000 
    236 H236       -4.1302  -19.0173  -57.5499 H         1 UNK         0.0600 
    237 H237       -3.0071  -21.2346  -57.4708 H         1 UNK         0.0600 
    238 H238       -1.8375  -19.9357  -57.2855 H         1 UNK         0.0600 
    239 H239       -2.3443  -20.8638  -55.8803 H         1 UNK         0.0600 
    240 H240       -3.5995  -19.3595  -54.0193 H         1 UNK         0.3000 
    241 H241       -2.8164  -16.4967  -53.8157 H         1 UNK         0.0600 
    242 H242       -4.7500  -15.6704  -52.9356 H         1 UNK         0.3800 
    243 H243       -5.4898  -16.3474  -51.5115 H         1 UNK         0.3800 
    244 H244       -0.7791  -17.9028  -53.6944 H         1 UNK         0.0800 
    245 H245       -1.4864  -18.8855  -52.4482 H         1 UNK         0.0800 
    246 H246       -1.5229  -18.5151  -50.1729 H         1 UNK         0.0800 
    247 H247       -1.0579  -17.1004  -49.2766 H         1 UNK         0.0800 
@<TRIPOS>BOND
     1    1    2 1    
     2    1  127 1    
     3    1  128 1    
     4    1  129 1    
     5    2    3 2    
     6    2    4 am   BACKBONE|DICT|INTERRES
     7    4    5 1    
     8    4  130 1    
     9    5    6 1    
    10    5   65 1    
    11    5  131 1    
    12    6    7 1    
    13    6  132 1    
    14    6  133 1    
    15    7    8 1    
    16    8    9 1    
    17    8  134 1    
    18    8  135 1    
    19    9   10 ar   
    20    9   14 ar   
    21   10   11 ar   
    22   10  136 1    
    23   11   12 ar   
    24   11  126 1    
    25   12   13 ar   
    26   12  137 1    
    27   13   14 ar   
    28   13   15 1    
    29   14  138 1    
    30   15   16 1    
    31   15  139 1    
    32   15  140 1    
    33   16   17 1    
    34   17   18 1    
    35   17  141 1    
    36   17  142 1    
    37   18   19 1    
    38   18   67 1    
    39   18  143 1    
    40   19   20 am   BACKBONE|DICT|INTERRES
    41   19  144 1    
    42   20   21 2    
    43   20   22 1    
    44   22   23 1    
    45   22   24 1    
    46   22  145 1    
    47   23  146 1    
    48   23  147 1    
    49   23  148 1    
    50   24   25 am   BACKBONE|DICT|INTERRES
    51   24  149 1    
    52   25   26 2    
    53   25   27 1    
    54   27   28 1    
    55   27   29 1    
    56   27  150 1    
    57   28  151 1    
    58   28  152 1    
    59   28  153 1    
    60   29   30 am   BACKBONE|DICT|INTERRES
    61   29  154 1    
    62   30   31 2    
    63   30   32 1    
    64   32   33 1    
    65   32   34 1    
    66   32  155 1    
    67   33  156 1    
    68   33  157 1    
    69   33  158 1    
    70   34   35 am   BACKBONE|DICT|INTERRES
    71   34  159 1    
    72   35   36 2    
    73   35   37 1    
    74   37   38 1    
    75   37   39 1    
    76   37  160 1    
    77   38  161 1    
    78   38  162 1    
    79   38  163 1    
    80   39   40 am   BACKBONE|DICT|INTERRES
    81   39  164 1    
    82   40   41 2    
    83   40   42 1    
    84   42   43 1    
    85   42   44 1    
    86   42  165 1    
    87   43  166 1    
    88   43  167 1    
    89   43  168 1    
    90   44   45 am   BACKBONE|DICT|INTERRES
    91   44  169 1    
    92   45   46 2    
    93   45   47 1    
    94   47   48 1    
    95   47   49 1    
    96   47  170 1    
    97   48  171 1    
    98   48  172 1    
    99   48  173 1    
   100   49   50 am   BACKBONE|DICT|INTERRES
   101   49  174 1    
   102   50   51 2    
   103   50   52 1    
   104   52   53 1    
   105   52   54 1    
   106   52  175 1    
   107   53  176 1    
   108   53  177 1    
   109   53  178 1    
   110   54   55 am   BACKBONE|DICT|INTERRES
   111   54  179 1    
   112   55   56 2    
   113   55   57 1    
   114   57   58 1    
   115   57   59 1    
   116   57  180 1    
   117   58  181 1    
   118   58  182 1    
   119   58  183 1    
   120   59   60 am   BACKBONE|DICT|INTERRES
   121   59  184 1    
   122   60   61 2    
   123   60   62 1    
   124   62   63 1    
   125   62   64 1    
   126   62  185 1    
   127   63  186 1    
   128   63  187 1    
   129   63  188 1    
   130   64   65 am   BACKBONE|DICT|INTERRES
   131   64  189 1    
   132   65   66 2    
   133   67   68 2    
   134   67   69 am   BACKBONE|DICT|INTERRES
   135   69   70 1    
   136   69  190 1    
   137   70   71 1    
   138   70   72 1    
   139   70  191 1    
   140   71  192 1    
   141   71  193 1    
   142   71  194 1    
   143   72   73 2    
   144   72   74 am   BACKBONE|DICT|INTERRES
   145   74   75 1    
   146   74  195 1    
   147   75   76 1    
   148   75   77 1    
   149   75  196 1    
   150   76  197 1    
   151   76  198 1    
   152   76  199 1    
   153   77   78 2    
   154   77   79 am   BACKBONE|DICT|INTERRES
   155   79   80 1    
   156   79  200 1    
   157   80   81 1    
   158   80   82 1    
   159   80  201 1    
   160   81  202 1    
   161   81  203 1    
   162   81  204 1    
   163   82   83 2    
   164   82   84 am   BACKBONE|DICT|INTERRES
   165   84   85 1    
   166   84  205 1    
   167   85   86 1    
   168   85   87 1    
   169   85  206 1    
   170   86  207 1    
   171   86  208 1    
   172   86  209 1    
   173   87   88 2    
   174   87   89 am   BACKBONE|DICT|INTERRES
   175   89   90 1    
   176   89  210 1    
   177   90   91 1    
   178   90   92 1    
   179   90  211 1    
   180   91  212 1    
   181   91  213 1    
   182   91  214 1    
   183   92   93 2    
   184   92   94 am   BACKBONE|DICT|INTERRES
   185   94   95 1    
   186   94  215 1    
   187   95   96 1    
   188   95   97 1    
   189   95  216 1    
   190   96  217 1    
   191   96  218 1    
   192   96  219 1    
   193   97   98 2    
   194   97   99 am   BACKBONE|DICT|INTERRES
   195   99  100 1    
   196   99  220 1    
   197  100  101 1    
   198  100  102 1    
   199  100  221 1    
   200  101  222 1    
   201  101  223 1    
   202  101  224 1    
   203  102  103 2    
   204  102  104 am   BACKBONE|DICT|INTERRES
   205  104  105 1    
   206  104  225 1    
   207  105  106 1    
   208  105  107 1    
   209  105  226 1    
   210  106  227 1    
   211  106  228 1    
   212  106  229 1    
   213  107  108 2    
   214  107  109 am   BACKBONE|DICT|INTERRES
   215  109  110 1    
   216  109  230 1    
   217  110  111 1    
   218  110  112 1    
   219  110  231 1    
   220  111  232 1    
   221  111  233 1    
   222  111  234 1    
   223  112  113 2    
   224  112  114 am   BACKBONE|DICT|INTERRES
   225  114  115 1    
   226  114  235 1    
   227  115  116 1    
   228  115  117 1    
   229  115  236 1    
   230  116  237 1    
   231  116  238 1    
   232  116  239 1    
   233  117  118 2    
   234  117  119 am   BACKBONE|DICT|INTERRES
   235  119  120 1    
   236  119  240 1    
   237  120  121 1    
   238  120  124 1    
   239  120  241 1    
   240  121  122 am   BACKBONE|DICT|INTERRES
   241  121  123 2    
   242  122  242 1    
   243  122  243 1    
   244  124  125 1    
   245  124  244 1    
   246  124  245 1    
   247  125  126 1    
   248  126  246 1    
   249  126  247 1    
@<TRIPOS>SUBSTRUCTURE
     1 UNK         1 GROUP             0       ****    0 ROOT    
