@<TRIPOS>MOLECULE
3R540
247   249    1
SMALL
USER_CHARGES


@<TRIPOS>ATOM
      1 CA         -4.9053  -18.7264  -49.6948 C.3       0 UNK        -0.1800 
      2 C          -4.0898  -17.4602  -49.9119 C.2       0 UNK         0.5000 
      3 O          -4.5602  -16.5337  -50.5723 O.2       0 UNK        -0.5000 
      4 N          -2.8744  -17.4203  -49.3561 N.am      1 UNK        -0.5000 
      5 CA         -1.9939  -16.2460  -49.2960 C.3       1 UNK         0.1400 
      6 C6         -0.5355  -16.7105  -49.0373 C.3       23 UNK        -0.0398 
      7 S7          0.7840  -15.4771  -49.3499 S.3       23 UNK        -0.2404 
      8 C8          1.3729  -15.8634  -51.0358 C.3       23 UNK        -0.0205 
      9 C9          2.0792  -17.2067  -51.2445 C.ar      23 UNK        -0.0193 
     10 C10         2.4722  -17.5322  -52.5447 C.ar      23 UNK        -0.1150 
     11 C11         2.9917  -18.7935  -52.8457 C.ar      23 UNK        -0.0193 
     12 C12         3.1631  -19.7219  -51.8171 C.ar      23 UNK        -0.1150 
     13 C13         2.8292  -19.4067  -50.4973 C.ar      23 UNK        -0.0193 
     14 C14         2.3092  -18.1337  -50.2182 C.ar      23 UNK        -0.1150 
     15 C15         3.0234  -20.4982  -49.4382 C.3       23 UNK        -0.0205 
     16 S16         2.6025  -20.0685  -47.7138 S.3       23 UNK        -0.2404 
     17 C17         0.7919  -19.8699  -47.7948 C.3       23 UNK        -0.0398 
     18 CA         -0.0157  -21.0186  -47.1442 C.3       11 UNK         0.1400 
     19 N           0.3897  -21.2451  -45.7476 N.am      11 UNK        -0.5000 
     20 C           0.1945  -22.3552  -45.0210 C.2       10 UNK         0.5000 
     21 O          -0.4629  -23.3187  -45.4221 O.2       10 UNK        -0.5000 
     22 CA          0.7707  -22.3753  -43.5909 C.3       10 UNK         0.1400 
     23 CB          1.0812  -23.7966  -43.0842 C.3       10 UNK        -0.1800 
     24 N           1.9192  -21.4910  -43.4039 N.am      10 UNK        -0.5000 
     25 C           3.1387  -21.5635  -43.9579 C.2       9 UNK         0.5000 
     26 O           3.4906  -22.4459  -44.7408 O.2       9 UNK        -0.5000 
     27 CA          4.1402  -20.4637  -43.5455 C.3       9 UNK         0.1400 
     28 CB          4.5936  -19.6211  -44.7481 C.3       9 UNK        -0.1800 
     29 N           3.5669  -19.5703  -42.5348 N.am      9 UNK        -0.5000 
     30 C           3.7860  -19.6721  -41.2184 C.2       8 UNK         0.5000 
     31 O           4.5801  -20.4640  -40.7099 O.2       8 UNK        -0.5000 
     32 CA          2.9531  -18.7473  -40.3165 C.3       8 UNK         0.1400 
     33 CB          3.5605  -17.3360  -40.2855 C.3       8 UNK        -0.1800 
     34 N           1.5427  -18.6694  -40.7120 N.am      8 UNK        -0.5000 
     35 C           0.6557  -19.6645  -40.5571 C.2       7 UNK         0.5000 
     36 O           0.9645  -20.7954  -40.1836 O.2       7 UNK        -0.5000 
     37 CA         -0.8200  -19.3585  -40.8611 C.3       7 UNK         0.1400 
     38 CB         -1.4399  -18.5271  -39.7273 C.3       7 UNK        -0.1800 
     39 N          -0.9759  -18.6341  -42.1182 N.am      7 UNK        -0.5000 
     40 C          -1.5351  -19.1319  -43.2298 C.2       6 UNK         0.5000 
     41 O          -1.9783  -20.2771  -43.3354 O.2       6 UNK        -0.5000 
     42 CA         -1.5960  -18.1941  -44.4498 C.3       6 UNK         0.1400 
     43 CB         -2.9075  -17.3951  -44.4366 C.3       6 UNK        -0.1800 
     44 N          -0.4785  -17.2560  -44.5478 N.am      6 UNK        -0.5000 
     45 C           0.8245  -17.5620  -44.5275 C.2       5 UNK         0.5000 
     46 O           1.2605  -18.7114  -44.4703 O.2       5 UNK        -0.5000 
     47 CA          1.8078  -16.3795  -44.5102 C.3       5 UNK         0.1400 
     48 CB          2.1732  -15.9750  -45.9439 C.3       5 UNK        -0.1800 
     49 N           1.3093  -15.2029  -43.7903 N.am      5 UNK        -0.5000 
     50 C           0.9561  -15.1663  -42.4972 C.2       4 UNK         0.5000 
     51 O           0.9568  -16.1510  -41.7584 O.2       4 UNK        -0.5000 
     52 CA          0.4791  -13.8069  -41.9560 C.3       4 UNK         0.1400 
     53 CB          1.5605  -12.7235  -42.1027 C.3       4 UNK        -0.1800 
     54 N          -0.7469  -13.3741  -42.6235 N.am      4 UNK        -0.5000 
     55 C          -1.9411  -13.9561  -42.4502 C.2       3 UNK         0.5000 
     56 O          -2.1549  -14.8445  -41.6247 O.2       3 UNK        -0.5000 
     57 CA         -3.0960  -13.4837  -43.3565 C.3       3 UNK         0.1400 
     58 CB         -3.9006  -12.3777  -42.6564 C.3       3 UNK        -0.1800 
     59 N          -2.7248  -13.0218  -44.7010 N.am      3 UNK        -0.5000 
     60 C          -1.9832  -13.6883  -45.5966 C.2       2 UNK         0.5000 
     61 O          -1.3294  -14.6997  -45.3382 O.2       2 UNK        -0.5000 
     62 CA         -1.9523  -13.1089  -47.0242 C.3       2 UNK         0.1400 
     63 CB         -0.8372  -12.0593  -47.1455 C.3       2 UNK        -0.1800 
     64 N          -1.7349  -14.1403  -48.0417 N.am      2 UNK        -0.5000 
     65 C          -2.5084  -15.2137  -48.2534 C.2       1 UNK         0.5000 
     66 O          -3.5783  -15.3916  -47.6637 O.2       1 UNK        -0.5000 
     67 C          -1.5407  -20.7806  -47.3014 C.2       11 UNK         0.5000 
     68 O          -1.9572  -19.8656  -48.0159 O.2       11 UNK        -0.5000 
     69 N          -2.3320  -21.5925  -46.5999 N.am      12 UNK        -0.5000 
     70 CA         -3.7871  -21.6688  -46.5589 C.3       12 UNK         0.1400 
     71 CB         -4.4416  -20.3360  -46.1478 C.3       12 UNK        -0.1800 
     72 C          -4.1619  -22.7636  -45.5520 C.2       12 UNK         0.5000 
     73 O          -4.9962  -23.6134  -45.8621 O.2       12 UNK        -0.5000 
     74 N          -3.5226  -22.7281  -44.3704 N.am      13 UNK        -0.5000 
     75 CA         -3.7482  -23.6628  -43.2669 C.3       13 UNK         0.1400 
     76 CB         -3.0029  -23.1699  -42.0170 C.3       13 UNK        -0.1800 
     77 C          -3.3613  -25.1175  -43.5927 C.2       13 UNK         0.5000 
     78 O          -4.0906  -26.0302  -43.2021 O.2       13 UNK        -0.5000 
     79 N          -2.2403  -25.3117  -44.3021 N.am      14 UNK        -0.5000 
     80 CA         -1.8110  -26.6197  -44.7948 C.3       14 UNK         0.1400 
     81 CB         -0.2758  -26.6977  -44.8475 C.3       14 UNK        -0.1800 
     82 C          -2.4308  -26.8934  -46.1715 C.2       14 UNK         0.5000 
     83 O          -3.1266  -27.8963  -46.3370 O.2       14 UNK        -0.5000 
     84 N          -2.1833  -25.9873  -47.1245 N.am      15 UNK        -0.5000 
     85 CA         -2.6720  -26.0454  -48.4979 C.3       15 UNK         0.1400 
     86 CB         -1.9619  -27.1734  -49.2753 C.3       15 UNK        -0.1800 
     87 C          -2.4257  -24.6940  -49.1809 C.2       15 UNK         0.5000 
     88 O          -1.5914  -23.9116  -48.7191 O.2       15 UNK        -0.5000 
     89 N          -3.1305  -24.4712  -50.2919 N.am      16 UNK        -0.5000 
     90 CA         -2.9588  -23.3511  -51.2081 C.3       16 UNK         0.1400 
     91 CB         -3.7421  -22.1286  -50.7041 C.3       16 UNK        -0.1800 
     92 C          -3.4379  -23.8037  -52.5956 C.2       16 UNK         0.5000 
     93 O          -4.2902  -24.6922  -52.6883 O.2       16 UNK        -0.5000 
     94 N          -2.8755  -23.1991  -53.6453 N.am      17 UNK        -0.5000 
     95 CA         -3.1846  -23.4968  -55.0451 C.3       17 UNK         0.1400 
     96 CB         -1.9713  -23.1161  -55.9084 C.3       17 UNK        -0.1800 
     97 C          -4.4404  -22.7589  -55.5433 C.2       17 UNK         0.5000 
     98 O          -5.1135  -23.2469  -56.4521 O.2       17 UNK        -0.5000 
     99 N          -4.7246  -21.5995  -54.9444 N.am      18 UNK        -0.5000 
    100 CA        -5.8227  -20.6904  -55.2532 C.3       18 UNK         0.1400 
    101 CB        -5.5570  -19.9729  -56.5952 C.3       18 UNK        -0.1800 
    102 C         -5.9500  -19.6970  -54.0855 C.2       18 UNK         0.5000 
    103 O         -5.3236  -19.9005  -53.0418 O.2       18 UNK        -0.5000 
    104 N         -6.7268  -18.6276  -54.2838 N.am      19 UNK        -0.5000 
    105 CA        -6.7336  -17.4477  -53.4226 C.3       19 UNK         0.1400 
    106 CB        -8.1696  -16.9153  -53.3044 C.3       19 UNK        -0.1800 
    107 C         -5.8122  -16.3881  -54.0476 C.2       19 UNK         0.5000 
    108 O         -5.8648  -16.1865  -55.2640 O.2       19 UNK        -0.5000 
    109 N         -4.9900  -15.7388  -53.2134 N.am      20 UNK        -0.5000 
    110 CA        -3.9998  -14.6944  -53.5100 C.3       20 UNK         0.1400 
    111 CB        -4.6553  -13.4448  -54.1283 C.3       20 UNK        -0.1800 
    112 C         -2.8047  -15.1812  -54.3517 C.2       20 UNK         0.5000 
    113 O         -1.6584  -15.0160  -53.9319 O.2       20 UNK        -0.5000 
    114 N         -3.0852  -15.8036  -55.5017 N.am      21 UNK        -0.5000 
    115 CA        -2.1230  -16.4018  -56.4265 C.3       21 UNK         0.1400 
    116 CB        -2.7826  -16.5121  -57.8128 C.3       21 UNK        -0.1800 
    117 C         -1.6246  -17.7606  -55.8960 C.2       21 UNK         0.5000 
    118 O         -1.9473  -18.8066  -56.4616 O.2       21 UNK        -0.5000 
    119 N         -0.8826  -17.7095  -54.7834 N.am      22 UNK        -0.5000 
    120 CA        -0.4083  -18.8666  -54.0028 C.3       22 UNK         0.1400 
    121 C         -1.5617  -19.6592  -53.3241 C.2       22 UNK         0.5000 
    122 N         -2.6603  -19.0000  -52.9793 N.am      22 UNK        -0.7600 
    123 O         -1.4691  -20.8643  -53.1118 O.2       22 UNK        -0.5000 
    124 C124        0.6004  -19.7724  -54.7698 C.3       23 UNK        -0.0398 
    125 S125        2.0060  -18.8360  -55.4731 S.3       23 UNK        -0.2404 
    126 C126        3.3470  -19.1710  -54.2798 C.3       23 UNK        -0.0205 
    127 H127       -5.3853  -19.0380  -50.6198 H         1 UNK         0.0600 
    128 H128       -5.6830  -18.5455  -48.9532 H         1 UNK         0.0600 
    129 H129       -4.2843  -19.5493  -49.3437 H         1 UNK         0.0600 
    130 H130       -2.5613  -18.2319  -48.8284 H         1 UNK         0.3000 
    131 H131       -2.0248  -15.7591  -50.2730 H         1 UNK         0.0600 
    132 H132       -0.3290  -17.5854  -49.6538 H         1 UNK         0.0800 
    133 H133       -0.4397  -17.0422  -48.0030 H         1 UNK         0.0800 
    134 H134        2.0571  -15.0691  -51.3372 H         1 UNK         0.0800 
    135 H135        0.5198  -15.8050  -51.7140 H         1 UNK         0.0800 
    136 H136        2.3178  -16.8189  -53.3426 H         1 UNK         0.1150 
    137 H137        3.5558  -20.7033  -52.0447 H         1 UNK         0.1150 
    138 H138        2.0520  -17.8733  -49.2050 H         1 UNK         0.1150 
    139 H139        2.4412  -21.3755  -49.7242 H         1 UNK         0.0800 
    140 H140        4.0695  -20.8071  -49.4537 H         1 UNK         0.0800 
    141 H141        0.4978  -19.7544  -48.8388 H         1 UNK         0.0800 
    142 H142        0.5568  -18.9296  -47.2976 H         1 UNK         0.0800 
    143 H143        0.2078  -21.9304  -47.7020 H         1 UNK         0.0600 
    144 H144        0.8960  -20.4790  -45.3135 H         1 UNK         0.3000 
    145 H145       -0.0086  -21.9702  -42.9470 H         1 UNK         0.0600 
    146 H146        1.5350  -23.7722  -42.0935 H         1 UNK         0.0600 
    147 H147        0.1688  -24.3860  -43.0023 H         1 UNK         0.0600 
    148 H148        1.7592  -24.3268  -43.7536 H         1 UNK         0.0600 
    149 H149        1.7588  -20.7100  -42.7858 H         1 UNK         0.3000 
    150 H150        5.0206  -20.9719  -43.1473 H         1 UNK         0.0600 
    151 H151        5.0045  -20.2512  -45.5378 H         1 UNK         0.0600 
    152 H152        5.3715  -18.9144  -44.4596 H         1 UNK         0.0600 
    153 H153        3.7712  -19.0508  -45.1777 H         1 UNK         0.0600 
    154 H154        2.8775  -18.9099  -42.8685 H         1 UNK         0.3000 
    155 H155        2.9934  -19.1501  -39.3021 H         1 UNK         0.0600 
    156 H156        4.5922  -17.3631  -39.9327 H         1 UNK         0.0600 
    157 H157        3.0043  -16.6817  -39.6139 H         1 UNK         0.0600 
    158 H158        3.5648  -16.8752  -41.2739 H         1 UNK         0.0600 
    159 H159        1.2253  -17.7582  -41.0392 H         1 UNK         0.3000 
    160 H160       -1.3506  -20.3123  -40.9035 H         1 UNK         0.0600 
    161 H161       -0.9715  -17.5453  -39.6428 H         1 UNK         0.0600 
    162 H162       -1.3297  -19.0304  -38.7659 H         1 UNK         0.0600 
    163 H163       -2.5062  -18.3729  -39.8936 H         1 UNK         0.0600 
    164 H164       -0.6136  -17.6888  -42.1440 H         1 UNK         0.3000 
    165 H165       -1.5816  -18.8156  -45.3427 H         1 UNK         0.0600 
    166 H166       -3.0651  -16.8836  -45.3858 H         1 UNK         0.0600 
    167 H167       -3.7728  -18.0333  -44.2642 H         1 UNK         0.0600 
    168 H168       -2.9050  -16.6452  -43.6465 H         1 UNK         0.0600 
    169 H169       -0.7317  -16.2752  -44.6595 H         1 UNK         0.3000 
    170 H170        2.7154  -16.7172  -44.0062 H         1 UNK         0.0600 
    171 H171        2.5163  -16.8337  -46.5234 H         1 UNK         0.0600 
    172 H172        1.3142  -15.5482  -46.4619 H         1 UNK         0.0600 
    173 H173        2.9730  -15.2346  -45.9548 H         1 UNK         0.0600 
    174 H174        1.2027  -14.3621  -44.3375 H         1 UNK         0.3000 
    175 H175        0.2707  -13.9288  -40.8908 H         1 UNK         0.0600 
    176 H176        2.4946  -13.0399  -41.6367 H         1 UNK         0.0600 
    177 H177        1.7746  -12.4941  -43.1471 H         1 UNK         0.0600 
    178 H178        1.2539  -11.7976  -41.6158 H         1 UNK         0.0600 
    179 H179       -0.6615  -12.6604  -43.3315 H         1 UNK         0.3000 
    180 H180       -3.7576  -14.3409  -43.4942 H         1 UNK         0.0600 
    181 H181       -3.3117  -11.4672  -42.5380 H         1 UNK         0.0600 
    182 H182       -4.2198  -12.6937  -41.6621 H         1 UNK         0.0600 
    183 H183       -4.8004  -12.1262  -43.2181 H         1 UNK         0.0600 
    184 H184       -3.1874  -12.1783  -45.0075 H         1 UNK         0.3000 
    185 H185       -2.9136  -12.6342  -47.2302 H         1 UNK         0.0600 
    186 H186       -0.9740  -11.2536  -46.4231 H         1 UNK         0.0600 
    187 H187        0.1462  -12.4971  -46.9675 H         1 UNK         0.0600 
    188 H188       -0.8277  -11.6060  -48.1369 H         1 UNK         0.0600 
    189 H189       -0.8508  -14.0973  -48.5309 H         1 UNK         0.3000 
    190 H190       -1.8536  -22.3323  -46.0917 H         1 UNK         0.3000 
    191 H191       -4.1457  -21.9619  -47.5464 H         1 UNK         0.0600 
    192 H192       -4.1408  -20.0466  -45.1428 H         1 UNK         0.0600 
    193 H193       -5.5284  -20.4261  -46.1468 H         1 UNK         0.0600 
    194 H194       -4.1917  -19.5195  -46.8231 H         1 UNK         0.0600 
    195 H195       -2.9005  -21.9500  -44.1755 H         1 UNK         0.3000 
    196 H196       -4.8173  -23.6516  -43.0446 H         1 UNK         0.0600 
    197 H197       -3.1844  -23.8302  -41.1680 H         1 UNK         0.0600 
    198 H198       -3.3332  -22.1720  -41.7279 H         1 UNK         0.0600 
    199 H199       -1.9262  -23.1326  -42.1781 H         1 UNK         0.0600 
    200 H200       -1.6984  -24.5113  -44.6136 H         1 UNK         0.3000 
    201 H201       -2.1508  -27.4024  -44.1130 H         1 UNK         0.0600 
    202 H202        0.1544  -26.6213  -43.8495 H         1 UNK         0.0600 
    203 H203        0.1572  -25.9087  -45.4626 H         1 UNK         0.0600 
    204 H204        0.0500  -27.6515  -45.2642 H         1 UNK         0.0600 
    205 H205       -1.6178  -25.1715  -46.9192 H         1 UNK         0.3000 
    206 H206       -3.7482  -26.2299  -48.4792 H         1 UNK         0.0600 
    207 H207       -2.1755  -28.1537  -48.8501 H         1 UNK         0.0600 
    208 H208       -2.2875  -27.2024  -50.3158 H         1 UNK         0.0600 
    209 H209       -0.8797  -27.0377  -49.2741 H         1 UNK         0.0600 
    210 H210       -3.7719  -25.1758  -50.6361 H         1 UNK         0.3000 
    211 H211       -1.8981  -23.0986  -51.2759 H         1 UNK         0.0600 
    212 H212       -3.6640  -21.2985  -51.4046 H         1 UNK         0.0600 
    213 H213       -3.3456  -21.7792  -49.7521 H         1 UNK         0.0600 
    214 H214       -4.8014  -22.3509  -50.5722 H         1 UNK         0.0600 
    215 H215       -2.2238  -22.4325  -53.4759 H         1 UNK         0.3000 
    216 H216       -3.3586  -24.5694  -55.1541 H         1 UNK         0.0600 
    217 H217       -1.0780  -23.6567  -55.5954 H         1 UNK         0.0600 
    218 H218       -1.7560  -22.0482  -55.8485 H         1 UNK         0.0600 
    219 H219       -2.1472  -23.3569  -56.9576 H         1 UNK         0.0600 
    220 H220       -4.1556  -21.3001  -54.1628 H         1 UNK         0.3000 
    221 H221       -6.7505  -21.2618  -55.3151 H         1 UNK         0.0600 
    222 H222       -4.6731  -19.3363  -56.5374 H         1 UNK         0.0600 
    223 H223       -5.4004  -20.6824  -57.4073 H         1 UNK         0.0600 
    224 H224       -6.3979  -19.3438  -56.8877 H         1 UNK         0.0600 
    225 H225       -7.1630  -18.5067  -55.1866 H         1 UNK         0.3000 
    226 H226       -6.3767  -17.6964  -52.4215 H         1 UNK         0.0600 
    227 H227       -8.8311  -17.6639  -52.8681 H         1 UNK         0.0600 
    228 H228       -8.2058  -16.0345  -52.6620 H         1 UNK         0.0600 
    229 H229       -8.5780  -16.6318  -54.2753 H         1 UNK         0.0600 
    230 H230       -4.9930  -16.0225  -52.2331 H         1 UNK         0.3000 
    231 H231       -3.5952  -14.3990  -52.5405 H         1 UNK         0.0600 
    232 H232       -5.4544  -13.0649  -53.4917 H         1 UNK         0.0600 
    233 H233       -5.0783  -13.6452  -55.1129 H         1 UNK         0.0600 
    234 H234       -3.9253  -12.6432  -54.2466 H         1 UNK         0.0600 
    235 H235       -4.0695  -15.9414  -55.7182 H         1 UNK         0.3000 
    236 H236       -1.2574  -15.7423  -56.5172 H         1 UNK         0.0600 
    237 H237       -2.0968  -16.9510  -58.5386 H         1 UNK         0.0600 
    238 H238       -3.6777  -17.1352  -57.7849 H         1 UNK         0.0600 
    239 H239       -3.0706  -15.5309  -58.1903 H         1 UNK         0.0600 
    240 H240       -0.7193  -16.7966  -54.3739 H         1 UNK         0.3000 
    241 H241        0.1195  -18.4414  -53.1542 H         1 UNK         0.0600 
    242 H242       -2.7253  -18.0131  -53.1563 H         1 UNK         0.3800 
    243 H243       -3.4674  -19.4924  -52.6165 H         1 UNK         0.3800 
    244 H244        0.9893  -20.5519  -54.1127 H         1 UNK         0.0800 
    245 H245        0.0980  -20.2938  -55.5851 H         1 UNK         0.0800 
    246 H246        3.6146  -20.2266  -54.3476 H         1 UNK         0.0800 
    247 H247        4.2327  -18.6097  -54.5799 H         1 UNK         0.0800 
@<TRIPOS>BOND
     1    1    2 1    
     2    1  127 1    
     3    1  128 1    
     4    1  129 1    
     5    2    3 2    
     6    2    4 am   BACKBONE|DICT|INTERRES
     7    4    5 1    
     8    4  130 1    
     9    5    6 1    
    10    5   65 1    
    11    5  131 1    
    12    6    7 1    
    13    6  132 1    
    14    6  133 1    
    15    7    8 1    
    16    8    9 1    
    17    8  134 1    
    18    8  135 1    
    19    9   10 ar   
    20    9   14 ar   
    21   10   11 ar   
    22   10  136 1    
    23   11   12 ar   
    24   11  126 1    
    25   12   13 ar   
    26   12  137 1    
    27   13   14 ar   
    28   13   15 1    
    29   14  138 1    
    30   15   16 1    
    31   15  139 1    
    32   15  140 1    
    33   16   17 1    
    34   17   18 1    
    35   17  141 1    
    36   17  142 1    
    37   18   19 1    
    38   18   67 1    
    39   18  143 1    
    40   19   20 am   BACKBONE|DICT|INTERRES
    41   19  144 1    
    42   20   21 2    
    43   20   22 1    
    44   22   23 1    
    45   22   24 1    
    46   22  145 1    
    47   23  146 1    
    48   23  147 1    
    49   23  148 1    
    50   24   25 am   BACKBONE|DICT|INTERRES
    51   24  149 1    
    52   25   26 2    
    53   25   27 1    
    54   27   28 1    
    55   27   29 1    
    56   27  150 1    
    57   28  151 1    
    58   28  152 1    
    59   28  153 1    
    60   29   30 am   BACKBONE|DICT|INTERRES
    61   29  154 1    
    62   30   31 2    
    63   30   32 1    
    64   32   33 1    
    65   32   34 1    
    66   32  155 1    
    67   33  156 1    
    68   33  157 1    
    69   33  158 1    
    70   34   35 am   BACKBONE|DICT|INTERRES
    71   34  159 1    
    72   35   36 2    
    73   35   37 1    
    74   37   38 1    
    75   37   39 1    
    76   37  160 1    
    77   38  161 1    
    78   38  162 1    
    79   38  163 1    
    80   39   40 am   BACKBONE|DICT|INTERRES
    81   39  164 1    
    82   40   41 2    
    83   40   42 1    
    84   42   43 1    
    85   42   44 1    
    86   42  165 1    
    87   43  166 1    
    88   43  167 1    
    89   43  168 1    
    90   44   45 am   BACKBONE|DICT|INTERRES
    91   44  169 1    
    92   45   46 2    
    93   45   47 1    
    94   47   48 1    
    95   47   49 1    
    96   47  170 1    
    97   48  171 1    
    98   48  172 1    
    99   48  173 1    
   100   49   50 am   BACKBONE|DICT|INTERRES
   101   49  174 1    
   102   50   51 2    
   103   50   52 1    
   104   52   53 1    
   105   52   54 1    
   106   52  175 1    
   107   53  176 1    
   108   53  177 1    
   109   53  178 1    
   110   54   55 am   BACKBONE|DICT|INTERRES
   111   54  179 1    
   112   55   56 2    
   113   55   57 1    
   114   57   58 1    
   115   57   59 1    
   116   57  180 1    
   117   58  181 1    
   118   58  182 1    
   119   58  183 1    
   120   59   60 am   BACKBONE|DICT|INTERRES
   121   59  184 1    
   122   60   61 2    
   123   60   62 1    
   124   62   63 1    
   125   62   64 1    
   126   62  185 1    
   127   63  186 1    
   128   63  187 1    
   129   63  188 1    
   130   64   65 am   BACKBONE|DICT|INTERRES
   131   64  189 1    
   132   65   66 2    
   133   67   68 2    
   134   67   69 am   BACKBONE|DICT|INTERRES
   135   69   70 1    
   136   69  190 1    
   137   70   71 1    
   138   70   72 1    
   139   70  191 1    
   140   71  192 1    
   141   71  193 1    
   142   71  194 1    
   143   72   73 2    
   144   72   74 am   BACKBONE|DICT|INTERRES
   145   74   75 1    
   146   74  195 1    
   147   75   76 1    
   148   75   77 1    
   149   75  196 1    
   150   76  197 1    
   151   76  198 1    
   152   76  199 1    
   153   77   78 2    
   154   77   79 am   BACKBONE|DICT|INTERRES
   155   79   80 1    
   156   79  200 1    
   157   80   81 1    
   158   80   82 1    
   159   80  201 1    
   160   81  202 1    
   161   81  203 1    
   162   81  204 1    
   163   82   83 2    
   164   82   84 am   BACKBONE|DICT|INTERRES
   165   84   85 1    
   166   84  205 1    
   167   85   86 1    
   168   85   87 1    
   169   85  206 1    
   170   86  207 1    
   171   86  208 1    
   172   86  209 1    
   173   87   88 2    
   174   87   89 am   BACKBONE|DICT|INTERRES
   175   89   90 1    
   176   89  210 1    
   177   90   91 1    
   178   90   92 1    
   179   90  211 1    
   180   91  212 1    
   181   91  213 1    
   182   91  214 1    
   183   92   93 2    
   184   92   94 am   BACKBONE|DICT|INTERRES
   185   94   95 1    
   186   94  215 1    
   187   95   96 1    
   188   95   97 1    
   189   95  216 1    
   190   96  217 1    
   191   96  218 1    
   192   96  219 1    
   193   97   98 2    
   194   97   99 am   BACKBONE|DICT|INTERRES
   195   99  100 1    
   196   99  220 1    
   197  100  101 1    
   198  100  102 1    
   199  100  221 1    
   200  101  222 1    
   201  101  223 1    
   202  101  224 1    
   203  102  103 2    
   204  102  104 am   BACKBONE|DICT|INTERRES
   205  104  105 1    
   206  104  225 1    
   207  105  106 1    
   208  105  107 1    
   209  105  226 1    
   210  106  227 1    
   211  106  228 1    
   212  106  229 1    
   213  107  108 2    
   214  107  109 am   BACKBONE|DICT|INTERRES
   215  109  110 1    
   216  109  230 1    
   217  110  111 1    
   218  110  112 1    
   219  110  231 1    
   220  111  232 1    
   221  111  233 1    
   222  111  234 1    
   223  112  113 2    
   224  112  114 am   BACKBONE|DICT|INTERRES
   225  114  115 1    
   226  114  235 1    
   227  115  116 1    
   228  115  117 1    
   229  115  236 1    
   230  116  237 1    
   231  116  238 1    
   232  116  239 1    
   233  117  118 2    
   234  117  119 am   BACKBONE|DICT|INTERRES
   235  119  120 1    
   236  119  240 1    
   237  120  121 1    
   238  120  124 1    
   239  120  241 1    
   240  121  122 am   BACKBONE|DICT|INTERRES
   241  121  123 2    
   242  122  242 1    
   243  122  243 1    
   244  124  125 1    
   245  124  244 1    
   246  124  245 1    
   247  125  126 1    
   248  126  246 1    
   249  126  247 1    
@<TRIPOS>SUBSTRUCTURE
     1 UNK         1 GROUP             0       ****    0 ROOT    
