@<TRIPOS>MOLECULE
3R540
247   249    1
SMALL
USER_CHARGES


@<TRIPOS>ATOM
      1 CA         -0.6829  -13.4832  -53.2697 C.3       0 UNK        -0.1800 
      2 C          -0.5642  -13.6218  -51.7598 C.2       0 UNK         0.5000 
      3 O           0.5153  -13.9327  -51.2551 O.2       0 UNK        -0.5000 
      4 N          -1.6660  -13.3874  -51.0365 N.am      1 UNK        -0.5000 
      5 CA         -1.7675  -13.4894  -49.5756 C.3       1 UNK         0.1400 
      6 C6         -3.2225  -13.7537  -49.0989 C.3       23 UNK        -0.0398 
      7 S7         -4.0723  -15.1101  -49.9804 S.3       23 UNK        -0.2404 
      8 C8         -3.6312  -16.5726  -48.9827 C.3       23 UNK        -0.0205 
      9 C9         -2.1984  -17.0574  -49.1962 C.ar      23 UNK        -0.0193 
     10 C10        -1.6328  -17.1032  -50.4759 C.ar      23 UNK        -0.1150 
     11 C11        -0.3164  -17.5331  -50.6586 C.ar      23 UNK        -0.0193 
     12 C12         0.4352  -17.9392  -49.5536 C.ar      23 UNK        -0.1150 
     13 C13        -0.1220  -17.9275  -48.2727 C.ar      23 UNK        -0.0193 
     14 C14        -1.4395  -17.4875  -48.1026 C.ar      23 UNK        -0.1150 
     15 C15         0.7096  -18.3648  -47.0726 C.3       23 UNK        -0.0205 
     16 S16         1.2091  -20.1170  -47.1498 S.3       23 UNK        -0.2404 
     17 C17        -0.4189  -20.9235  -47.0601 C.3       23 UNK        -0.0398 
     18 CA         -0.3447  -22.4585  -46.8948 C.3       11 UNK         0.1400 
     19 N           0.3840  -22.8785  -45.6926 N.am      11 UNK        -0.5000 
     20 C           0.7978  -24.1360  -45.4695 C.2       10 UNK         0.5000 
     21 O           0.6062  -25.0623  -46.2559 O.2       10 UNK        -0.5000 
     22 CA          1.4953  -24.4288  -44.1267 C.3       10 UNK         0.1400 
     23 CB          3.0027  -24.1578  -44.2366 C.3       10 UNK        -0.1800 
     24 N           0.9495  -23.6605  -43.0088 N.am      10 UNK        -0.5000 
     25 C          -0.3281  -23.6784  -42.6036 C.2       9 UNK         0.5000 
     26 O          -1.1827  -24.4240  -43.0821 O.2       9 UNK        -0.5000 
     27 CA         -0.7351  -22.6513  -41.5279 C.3       9 UNK         0.1400 
     28 CB         -0.7783  -23.3129  -40.1431 C.3       9 UNK        -0.1800 
     29 N           0.1289  -21.4663  -41.4661 N.am      9 UNK        -0.5000 
     30 C           0.3666  -20.6141  -42.4725 C.2       8 UNK         0.5000 
     31 O          -0.1215  -20.7369  -43.5983 O.2       8 UNK        -0.5000 
     32 CA          1.3129  -19.4426  -42.1519 C.3       8 UNK         0.1400 
     33 CB          1.7986  -18.7230  -43.4189 C.3       8 UNK        -0.1800 
     34 N           0.6623  -18.4783  -41.2648 N.am      8 UNK        -0.5000 
     35 C           0.5676  -18.6076  -39.9331 C.2       7 UNK         0.5000 
     36 O           1.0332  -19.5727  -39.3228 O.2       7 UNK        -0.5000 
     37 CA         -0.1941  -17.5094  -39.1554 C.3       7 UNK         0.1400 
     38 CB          0.3626  -17.2955  -37.7319 C.3       7 UNK        -0.1800 
     39 N          -0.3120  -16.2335  -39.8723 N.am      7 UNK        -0.5000 
     40 C           0.6765  -15.4025  -40.2331 C.2       6 UNK         0.5000 
     41 O           1.8683  -15.5801  -39.9740 O.2       6 UNK        -0.5000 
     42 CA          0.2493  -14.1810  -41.0714 C.3       6 UNK         0.1400 
     43 CB          0.8103  -12.8761  -40.4848 C.3       6 UNK        -0.1800 
     44 N           0.6699  -14.3008  -42.4683 N.am      6 UNK        -0.5000 
     45 C           0.3419  -15.3025  -43.2992 C.2       5 UNK         0.5000 
     46 O          -0.4007  -16.2321  -42.9784 O.2       5 UNK        -0.5000 
     47 CA          0.9150  -15.2719  -44.7308 C.3       5 UNK         0.1400 
     48 CB         -0.2159  -15.0608  -45.7500 C.3       5 UNK        -0.1800 
     49 N           1.9523  -14.2585  -44.9326 N.am      5 UNK        -0.5000 
     50 C           3.2139  -14.3570  -44.4840 C.2       4 UNK         0.5000 
     51 O           3.6386  -15.3416  -43.8793 O.2       4 UNK        -0.5000 
     52 CA          4.1686  -13.1686  -44.7367 C.3       4 UNK         0.1400 
     53 CB          5.1540  -13.5054  -45.8667 C.3       4 UNK        -0.1800 
     54 N           3.4922  -11.9134  -45.0677 N.am      4 UNK        -0.5000 
     55 C           2.6878  -11.2204  -44.2499 C.2       3 UNK         0.5000 
     56 O           2.4860  -11.5270  -43.0749 O.2       3 UNK        -0.5000 
     57 CA          1.9388  -10.0172  -44.8648 C.3       3 UNK         0.1400 
     58 CB          2.6783   -8.7087  -44.5480 C.3       3 UNK        -0.1800 
     59 N           1.7187  -10.1038  -46.3171 N.am      3 UNK        -0.5000 
     60 C           1.0906  -11.1071  -46.9471 C.2       2 UNK         0.5000 
     61 O           0.6612  -12.1006  -46.3599 O.2       2 UNK        -0.5000 
     62 CA          0.9818  -11.0044  -48.4825 C.3       2 UNK         0.1400 
     63 CB          2.3753  -11.0659  -49.1314 C.3       2 UNK        -0.1800 
     64 N           0.1655  -12.0720  -49.0636 N.am      2 UNK        -0.5000 
     65 C          -1.1526  -12.2393  -48.9020 C.2       1 UNK         0.5000 
     66 O          -1.8690  -11.4390  -48.2964 O.2       1 UNK        -0.5000 
     67 C          -1.7678  -23.0473  -46.9320 C.2       11 UNK         0.5000 
     68 O          -2.2661  -23.3542  -48.0152 O.2       11 UNK        -0.5000 
     69 N          -2.3962  -23.1977  -45.7583 N.am      12 UNK        -0.5000 
     70 CA         -3.7045  -23.8303  -45.6076 C.3       12 UNK         0.1400 
     71 CB         -4.3288  -23.4230  -44.2645 C.3       12 UNK        -0.1800 
     72 C          -3.6028  -25.3587  -45.7379 C.2       12 UNK         0.5000 
     73 O          -4.4207  -25.9595  -46.4335 O.2       12 UNK        -0.5000 
     74 N          -2.5771  -25.9520  -45.1095 N.am      13 UNK        -0.5000 
     75 CA         -2.2822  -27.3869  -45.1475 C.3       13 UNK         0.1400 
     76 CB         -1.1383  -27.6985  -44.1713 C.3       13 UNK        -0.1800 
     77 C          -1.9463  -27.9011  -46.5604 C.2       13 UNK         0.5000 
     78 O          -2.4024  -28.9804  -46.9391 O.2       13 UNK        -0.5000 
     79 N          -1.1878  -27.1045  -47.3261 N.am      14 UNK        -0.5000 
     80 CA         -0.8568  -27.3642  -48.7296 C.3       14 UNK         0.1400 
     81 CB          0.3779  -26.5290  -49.1062 C.3       14 UNK        -0.1800 
     82 C          -2.0152  -27.0581  -49.7016 C.2       14 UNK         0.5000 
     83 O          -1.9129  -27.4047  -50.8785 O.2       14 UNK        -0.5000 
     84 N          -3.0655  -26.3820  -49.2097 N.am      15 UNK        -0.5000 
     85 CA         -4.2269  -25.8565  -49.9386 C.3       15 UNK         0.1400 
     86 CB         -5.0390  -26.9878  -50.6007 C.3       15 UNK        -0.1800 
     87 C          -3.8810  -24.7211  -50.9260 C.2       15 UNK         0.5000 
     88 O          -4.7190  -24.3514  -51.7490 O.2       15 UNK        -0.5000 
     89 N          -2.6787  -24.1452  -50.7968 N.am      16 UNK        -0.5000 
     90 CA         -2.1923  -23.0077  -51.5735 C.3       16 UNK         0.1400 
     91 CB         -0.7017  -22.7885  -51.2735 C.3       16 UNK        -0.1800 
     92 C          -3.0002  -21.7332  -51.2867 C.2       16 UNK         0.5000 
     93 O          -3.3520  -21.0174  -52.2228 O.2       16 UNK        -0.5000 
     94 N          -3.3333  -21.5111  -50.0069 N.am      17 UNK        -0.5000 
     95 CA         -4.1824  -20.4048  -49.5634 C.3       17 UNK         0.1400 
     96 CB         -4.0718  -20.2408  -48.0393 C.3       17 UNK        -0.1800 
     97 C          -5.6562  -20.5827  -49.9685 C.2       17 UNK         0.5000 
     98 O          -6.3407  -19.5890  -50.2104 O.2       17 UNK        -0.5000 
     99 N          -6.1146  -21.8410  -50.0299 N.am      18 UNK        -0.5000 
    100 CA        -7.4723  -22.2079  -50.4303 C.3       18 UNK         0.1400 
    101 CB        -7.7694  -23.6497  -49.9884 C.3       18 UNK        -0.1800 
    102 C         -7.6867  -22.0344  -51.9433 C.2       18 UNK         0.5000 
    103 O         -8.7087  -21.4826  -52.3532 O.2       18 UNK        -0.5000 
    104 N         -6.7111  -22.4897  -52.7415 N.am      19 UNK        -0.5000 
    105 CA        -6.6930  -22.3293  -54.1947 C.3       19 UNK         0.1400 
    106 CB        -5.6398  -23.2760  -54.7923 C.3       19 UNK        -0.1800 
    107 C         -6.4115  -20.8785  -54.6256 C.2       19 UNK         0.5000 
    108 O         -6.9771  -20.4226  -55.6195 O.2       19 UNK        -0.5000 
    109 N         -5.5211  -20.2007  -53.8839 N.am      20 UNK        -0.5000 
    110 CA        -4.9882  -18.8521  -54.1165 C.3       20 UNK         0.1400 
    111 CB        -6.1019  -17.7893  -54.0305 C.3       20 UNK        -0.1800 
    112 C         -4.1468  -18.7368  -55.4073 C.2       20 UNK         0.5000 
    113 O         -3.8982  -17.6272  -55.8822 O.2       20 UNK        -0.5000 
    114 N         -3.6969  -19.8822  -55.9423 N.am      21 UNK        -0.5000 
    115 CA        -2.9477  -20.0130  -57.1955 C.3       21 UNK         0.1400 
    116 CB        -2.8082  -21.5052  -57.5335 C.3       21 UNK        -0.1800 
    117 C         -1.5672  -19.3307  -57.1686 C.2       21 UNK         0.5000 
    118 O         -1.0670  -18.9246  -58.2182 O.2       21 UNK        -0.5000 
    119 N         -0.9943  -19.1992  -55.9676 N.am      22 UNK        -0.5000 
    120 CA         0.2189  -18.4232  -55.6833 C.3       22 UNK         0.1400 
    121 C          0.0156  -16.8777  -55.6638 C.2       22 UNK         0.5000 
    122 N         -1.2011  -16.3519  -55.7606 N.am      22 UNK        -0.7600 
    123 O          0.9902  -16.1363  -55.5769 O.2       22 UNK        -0.5000 
    124 C124        0.9354  -18.9405  -54.4085 C.3       23 UNK        -0.0398 
    125 S125       -0.1414  -19.0713  -52.9363 S.3       23 UNK        -0.2404 
    126 C126        0.2979  -17.5491  -52.0473 C.3       23 UNK        -0.0205 
    127 H127       -1.7214  -13.3905  -53.5881 H         1 UNK         0.0600 
    128 H128       -0.2546  -14.3577  -53.7580 H         1 UNK         0.0600 
    129 H129       -0.1383  -12.6024  -53.6095 H         1 UNK         0.0600 
    130 H130       -2.5196  -13.1256  -51.5082 H         1 UNK         0.3000 
    131 H131       -1.1683  -14.3438  -49.2535 H         1 UNK         0.0600 
    132 H132       -3.2374  -13.9595  -48.0272 H         1 UNK         0.0800 
    133 H133       -3.8358  -12.8623  -49.2416 H         1 UNK         0.0800 
    134 H134       -4.3154  -17.3776  -49.2479 H         1 UNK         0.0800 
    135 H135       -3.8140  -16.3529  -47.9297 H         1 UNK         0.0800 
    136 H136       -2.2117  -16.7935  -51.3343 H         1 UNK         0.1150 
    137 H137        1.4542  -18.2733  -49.6893 H         1 UNK         0.1150 
    138 H138       -1.8763  -17.4770  -47.1143 H         1 UNK         0.1150 
    139 H139        0.1592  -18.1961  -46.1469 H         1 UNK         0.0800 
    140 H140        1.6052  -17.7447  -47.0172 H         1 UNK         0.0800 
    141 H141       -0.9411  -20.6772  -47.9860 H         1 UNK         0.0800 
    142 H142       -0.9878  -20.4732  -46.2441 H         1 UNK         0.0800 
    143 H143        0.1888  -22.8599  -47.7592 H         1 UNK         0.0600 
    144 H144        0.5257  -22.1677  -44.9833 H         1 UNK         0.3000 
    145 H145        1.3535  -25.4870  -43.9010 H         1 UNK         0.0600 
    146 H146        3.4444  -24.7353  -45.0499 H         1 UNK         0.0600 
    147 H147        3.5227  -24.4390  -43.3206 H         1 UNK         0.0600 
    148 H148        3.2094  -23.1046  -44.4318 H         1 UNK         0.0600 
    149 H149        1.5787  -23.0167  -42.5534 H         1 UNK         0.3000 
    150 H150       -1.7418  -22.3093  -41.7762 H         1 UNK         0.0600 
    151 H151        0.2103  -23.6487  -39.8275 H         1 UNK         0.0600 
    152 H152       -1.4363  -24.1831  -40.1453 H         1 UNK         0.0600 
    153 H153       -1.1560  -22.6234  -39.3878 H         1 UNK         0.0600 
    154 H154        0.5411  -21.2506  -40.5653 H         1 UNK         0.3000 
    155 H155        2.1944  -19.8519  -41.6537 H         1 UNK         0.0600 
    156 H156        2.4664  -17.8962  -43.1758 H         1 UNK         0.0600 
    157 H157        0.9605  -18.3268  -43.9886 H         1 UNK         0.0600 
    158 H158        2.3443  -19.4046  -44.0725 H         1 UNK         0.0600 
    159 H159        0.2225  -17.6809  -41.7138 H         1 UNK         0.3000 
    160 H160       -1.2134  -17.8831  -39.0495 H         1 UNK         0.0600 
    161 H161        1.4121  -17.0008  -37.7460 H         1 UNK         0.0600 
    162 H162        0.2901  -18.2094  -37.1412 H         1 UNK         0.0600 
    163 H163       -0.1960  -16.5245  -37.2011 H         1 UNK         0.0600 
    164 H164       -1.2473  -16.0077  -40.1826 H         1 UNK         0.3000 
    165 H165       -0.8401  -14.1095  -41.0604 H         1 UNK         0.0600 
    166 H166        0.4395  -12.0074  -41.0294 H         1 UNK         0.0600 
    167 H167        0.5147  -12.7572  -39.4417 H         1 UNK         0.0600 
    168 H168        1.9003  -12.8528  -40.5233 H         1 UNK         0.0600 
    169 H169        1.2957  -13.5829  -42.8088 H         1 UNK         0.3000 
    170 H170        1.3615  -16.2467  -44.9268 H         1 UNK         0.0600 
    171 H171        0.1623  -15.0543  -46.7726 H         1 UNK         0.0600 
    172 H172       -0.7446  -14.1232  -45.5776 H         1 UNK         0.0600 
    173 H173       -0.9543  -15.8587  -45.6781 H         1 UNK         0.0600 
    174 H174        1.6576  -13.4164  -45.4210 H         1 UNK         0.3000 
    175 H175        4.7387  -13.0101  -43.8190 H         1 UNK         0.0600 
    176 H176        5.7069  -14.4193  -45.6450 H         1 UNK         0.0600 
    177 H177        4.6392  -13.6555  -46.8166 H         1 UNK         0.0600 
    178 H178        5.8868  -12.7098  -46.0025 H         1 UNK         0.0600 
    179 H179        3.5901  -11.5878  -46.0176 H         1 UNK         0.3000 
    180 H180        0.9564   -9.9774  -44.3901 H         1 UNK         0.0600 
    181 H181        3.6569   -8.6739  -45.0283 H         1 UNK         0.0600 
    182 H182        2.8355   -8.5980  -43.4741 H         1 UNK         0.0600 
    183 H183        2.1082   -7.8414  -44.8815 H         1 UNK         0.0600 
    184 H184        2.0594   -9.3259  -46.8636 H         1 UNK         0.3000 
    185 H185        0.5171  -10.0471  -48.7259 H         1 UNK         0.0600 
    186 H186        3.0111  -10.2464  -48.7947 H         1 UNK         0.0600 
    187 H187        2.8873  -11.9995  -48.8936 H         1 UNK         0.0600 
    188 H188        2.3069  -10.9912  -50.2170 H         1 UNK         0.0600 
    189 H189        0.6516  -12.7628  -49.6259 H         1 UNK         0.3000 
    190 H190       -1.9067  -22.9530  -44.9093 H         1 UNK         0.3000 
    191 H191       -4.3602  -23.4699  -46.4033 H         1 UNK         0.0600 
    192 H192       -4.4329  -22.3403  -44.1919 H         1 UNK         0.0600 
    193 H193       -5.3248  -23.8534  -44.1538 H         1 UNK         0.0600 
    194 H194       -3.7322  -23.7595  -43.4167 H         1 UNK         0.0600 
    195 H195       -1.9781  -25.3827  -44.5172 H         1 UNK         0.3000 
    196 H196       -3.1744  -27.9155  -44.8056 H         1 UNK         0.0600 
    197 H197       -0.9383  -28.7700  -44.1337 H         1 UNK         0.0600 
    198 H198       -1.3833  -27.3766  -43.1589 H         1 UNK         0.0600 
    199 H199       -0.2138  -27.2026  -44.4663 H         1 UNK         0.0600 
    200 H200       -0.7840  -26.2669  -46.9157 H         1 UNK         0.3000 
    201 H201       -0.6033  -28.4204  -48.8414 H         1 UNK         0.0600 
    202 H202        0.6869  -26.7227  -50.1341 H         1 UNK         0.0600 
    203 H203        1.2257  -26.7673  -48.4636 H         1 UNK         0.0600 
    204 H204        0.1814  -25.4595  -49.0180 H         1 UNK         0.0600 
    205 H205       -3.0573  -26.1681  -48.2207 H         1 UNK         0.3000 
    206 H206       -4.8655  -25.4004  -49.1811 H         1 UNK         0.0600 
    207 H207       -5.2764  -27.7735  -49.8835 H         1 UNK         0.0600 
    208 H208       -5.9846  -26.6127  -50.9935 H         1 UNK         0.0600 
    209 H209       -4.5016  -27.4422  -51.4332 H         1 UNK         0.0600 
    210 H210       -2.0992  -24.4458  -50.0259 H         1 UNK         0.3000 
    211 H211       -2.3021  -23.2471  -52.6333 H         1 UNK         0.0600 
    212 H212       -0.5312  -22.5446  -50.2243 H         1 UNK         0.0600 
    213 H213       -0.3016  -21.9677  -51.8694 H         1 UNK         0.0600 
    214 H214       -0.1167  -23.6773  -51.5105 H         1 UNK         0.0600 
    215 H215       -3.0115  -22.1684  -49.3017 H         1 UNK         0.3000 
    216 H216       -3.8176  -19.4926  -50.0386 H         1 UNK         0.0600 
    217 H217       -4.7516  -19.4680  -47.6778 H         1 UNK         0.0600 
    218 H218       -3.0696  -19.9387  -47.7454 H         1 UNK         0.0600 
    219 H219       -4.3173  -21.1639  -47.5137 H         1 UNK         0.0600 
    220 H220       -5.4731  -22.5950  -49.8405 H         1 UNK         0.3000 
    221 H221       -8.1726  -21.5475  -49.9140 H         1 UNK         0.0600 
    222 H222       -7.1141  -24.3697  -50.4779 H         1 UNK         0.0600 
    223 H223       -7.6500  -23.7654  -48.9110 H         1 UNK         0.0600 
    224 H224       -8.7959  -23.9257  -50.2327 H         1 UNK         0.0600 
    225 H225       -5.9310  -22.9957  -52.3303 H         1 UNK         0.3000 
    226 H226       -7.6714  -22.6140  -54.5876 H         1 UNK         0.0600 
    227 H227       -5.6059  -23.1900  -55.8791 H         1 UNK         0.0600 
    228 H228       -4.6405  -23.0598  -54.4118 H         1 UNK         0.0600 
    229 H229       -5.8669  -24.3155  -54.5549 H         1 UNK         0.0600 
    230 H230       -5.0645  -20.6929  -53.1219 H         1 UNK         0.3000 
    231 H231       -4.2957  -18.6609  -53.2953 H         1 UNK         0.0600 
    232 H232       -6.7971  -17.8592  -54.8674 H         1 UNK         0.0600 
    233 H233       -5.6825  -16.7826  -54.0385 H         1 UNK         0.0600 
    234 H234       -6.6730  -17.8937  -53.1077 H         1 UNK         0.0600 
    235 H235       -3.9289  -20.7401  -55.4652 H         1 UNK         0.3000 
    236 H236       -3.5331  -19.5346  -57.9834 H         1 UNK         0.0600 
    237 H237       -2.2550  -22.0424  -56.7619 H         1 UNK         0.0600 
    238 H238       -3.7843  -21.9791  -57.6392 H         1 UNK         0.0600 
    239 H239       -2.2770  -21.6447  -58.4760 H         1 UNK         0.0600 
    240 H240       -1.4821  -19.5556  -55.1585 H         1 UNK         0.3000 
    241 H241        0.9079  -18.5979  -56.5119 H         1 UNK         0.0600 
    242 H242       -2.0285  -16.9326  -55.8436 H         1 UNK         0.3800 
    243 H243       -1.3013  -15.3504  -55.7688 H         1 UNK         0.3800 
    244 H244        1.8158  -18.3376  -54.1794 H         1 UNK         0.0800 
    245 H245        1.3217  -19.9410  -54.6066 H         1 UNK         0.0800 
    246 H246        1.3830  -17.4623  -51.9752 H         1 UNK         0.0800 
    247 H247       -0.0445  -16.6827  -52.6145 H         1 UNK         0.0800 
@<TRIPOS>BOND
     1    1    2 1    
     2    1  127 1    
     3    1  128 1    
     4    1  129 1    
     5    2    3 2    
     6    2    4 am   BACKBONE|DICT|INTERRES
     7    4    5 1    
     8    4  130 1    
     9    5    6 1    
    10    5   65 1    
    11    5  131 1    
    12    6    7 1    
    13    6  132 1    
    14    6  133 1    
    15    7    8 1    
    16    8    9 1    
    17    8  134 1    
    18    8  135 1    
    19    9   10 ar   
    20    9   14 ar   
    21   10   11 ar   
    22   10  136 1    
    23   11   12 ar   
    24   11  126 1    
    25   12   13 ar   
    26   12  137 1    
    27   13   14 ar   
    28   13   15 1    
    29   14  138 1    
    30   15   16 1    
    31   15  139 1    
    32   15  140 1    
    33   16   17 1    
    34   17   18 1    
    35   17  141 1    
    36   17  142 1    
    37   18   19 1    
    38   18   67 1    
    39   18  143 1    
    40   19   20 am   BACKBONE|DICT|INTERRES
    41   19  144 1    
    42   20   21 2    
    43   20   22 1    
    44   22   23 1    
    45   22   24 1    
    46   22  145 1    
    47   23  146 1    
    48   23  147 1    
    49   23  148 1    
    50   24   25 am   BACKBONE|DICT|INTERRES
    51   24  149 1    
    52   25   26 2    
    53   25   27 1    
    54   27   28 1    
    55   27   29 1    
    56   27  150 1    
    57   28  151 1    
    58   28  152 1    
    59   28  153 1    
    60   29   30 am   BACKBONE|DICT|INTERRES
    61   29  154 1    
    62   30   31 2    
    63   30   32 1    
    64   32   33 1    
    65   32   34 1    
    66   32  155 1    
    67   33  156 1    
    68   33  157 1    
    69   33  158 1    
    70   34   35 am   BACKBONE|DICT|INTERRES
    71   34  159 1    
    72   35   36 2    
    73   35   37 1    
    74   37   38 1    
    75   37   39 1    
    76   37  160 1    
    77   38  161 1    
    78   38  162 1    
    79   38  163 1    
    80   39   40 am   BACKBONE|DICT|INTERRES
    81   39  164 1    
    82   40   41 2    
    83   40   42 1    
    84   42   43 1    
    85   42   44 1    
    86   42  165 1    
    87   43  166 1    
    88   43  167 1    
    89   43  168 1    
    90   44   45 am   BACKBONE|DICT|INTERRES
    91   44  169 1    
    92   45   46 2    
    93   45   47 1    
    94   47   48 1    
    95   47   49 1    
    96   47  170 1    
    97   48  171 1    
    98   48  172 1    
    99   48  173 1    
   100   49   50 am   BACKBONE|DICT|INTERRES
   101   49  174 1    
   102   50   51 2    
   103   50   52 1    
   104   52   53 1    
   105   52   54 1    
   106   52  175 1    
   107   53  176 1    
   108   53  177 1    
   109   53  178 1    
   110   54   55 am   BACKBONE|DICT|INTERRES
   111   54  179 1    
   112   55   56 2    
   113   55   57 1    
   114   57   58 1    
   115   57   59 1    
   116   57  180 1    
   117   58  181 1    
   118   58  182 1    
   119   58  183 1    
   120   59   60 am   BACKBONE|DICT|INTERRES
   121   59  184 1    
   122   60   61 2    
   123   60   62 1    
   124   62   63 1    
   125   62   64 1    
   126   62  185 1    
   127   63  186 1    
   128   63  187 1    
   129   63  188 1    
   130   64   65 am   BACKBONE|DICT|INTERRES
   131   64  189 1    
   132   65   66 2    
   133   67   68 2    
   134   67   69 am   BACKBONE|DICT|INTERRES
   135   69   70 1    
   136   69  190 1    
   137   70   71 1    
   138   70   72 1    
   139   70  191 1    
   140   71  192 1    
   141   71  193 1    
   142   71  194 1    
   143   72   73 2    
   144   72   74 am   BACKBONE|DICT|INTERRES
   145   74   75 1    
   146   74  195 1    
   147   75   76 1    
   148   75   77 1    
   149   75  196 1    
   150   76  197 1    
   151   76  198 1    
   152   76  199 1    
   153   77   78 2    
   154   77   79 am   BACKBONE|DICT|INTERRES
   155   79   80 1    
   156   79  200 1    
   157   80   81 1    
   158   80   82 1    
   159   80  201 1    
   160   81  202 1    
   161   81  203 1    
   162   81  204 1    
   163   82   83 2    
   164   82   84 am   BACKBONE|DICT|INTERRES
   165   84   85 1    
   166   84  205 1    
   167   85   86 1    
   168   85   87 1    
   169   85  206 1    
   170   86  207 1    
   171   86  208 1    
   172   86  209 1    
   173   87   88 2    
   174   87   89 am   BACKBONE|DICT|INTERRES
   175   89   90 1    
   176   89  210 1    
   177   90   91 1    
   178   90   92 1    
   179   90  211 1    
   180   91  212 1    
   181   91  213 1    
   182   91  214 1    
   183   92   93 2    
   184   92   94 am   BACKBONE|DICT|INTERRES
   185   94   95 1    
   186   94  215 1    
   187   95   96 1    
   188   95   97 1    
   189   95  216 1    
   190   96  217 1    
   191   96  218 1    
   192   96  219 1    
   193   97   98 2    
   194   97   99 am   BACKBONE|DICT|INTERRES
   195   99  100 1    
   196   99  220 1    
   197  100  101 1    
   198  100  102 1    
   199  100  221 1    
   200  101  222 1    
   201  101  223 1    
   202  101  224 1    
   203  102  103 2    
   204  102  104 am   BACKBONE|DICT|INTERRES
   205  104  105 1    
   206  104  225 1    
   207  105  106 1    
   208  105  107 1    
   209  105  226 1    
   210  106  227 1    
   211  106  228 1    
   212  106  229 1    
   213  107  108 2    
   214  107  109 am   BACKBONE|DICT|INTERRES
   215  109  110 1    
   216  109  230 1    
   217  110  111 1    
   218  110  112 1    
   219  110  231 1    
   220  111  232 1    
   221  111  233 1    
   222  111  234 1    
   223  112  113 2    
   224  112  114 am   BACKBONE|DICT|INTERRES
   225  114  115 1    
   226  114  235 1    
   227  115  116 1    
   228  115  117 1    
   229  115  236 1    
   230  116  237 1    
   231  116  238 1    
   232  116  239 1    
   233  117  118 2    
   234  117  119 am   BACKBONE|DICT|INTERRES
   235  119  120 1    
   236  119  240 1    
   237  120  121 1    
   238  120  124 1    
   239  120  241 1    
   240  121  122 am   BACKBONE|DICT|INTERRES
   241  121  123 2    
   242  122  242 1    
   243  122  243 1    
   244  124  125 1    
   245  124  244 1    
   246  124  245 1    
   247  125  126 1    
   248  126  246 1    
   249  126  247 1    
@<TRIPOS>SUBSTRUCTURE
     1 UNK         1 GROUP             0       ****    0 ROOT    
