@<TRIPOS>MOLECULE
3R540
247   249    1
SMALL
USER_CHARGES


@<TRIPOS>ATOM
      1 CA          5.7798  -11.0129  -47.4496 C.3       0 UNK        -0.1800 
      2 C           5.7546  -12.4379  -47.9836 C.2       0 UNK         0.5000 
      3 O           6.6831  -12.8493  -48.6789 O.2       0 UNK        -0.5000 
      4 N           4.7002  -13.1947  -47.6534 N.am      1 UNK        -0.5000 
      5 CA          4.4783  -14.5769  -48.1079 C.3       1 UNK         0.1400 
      6 C6          2.9731  -14.9438  -48.1668 C.3       23 UNK        -0.0398 
      7 S7          1.9644  -13.7276  -49.0842 S.3       23 UNK        -0.2404 
      8 C8          2.2066  -14.2508  -50.8111 C.3       23 UNK        -0.0205 
      9 C9          1.2230  -15.3337  -51.2268 C.ar      23 UNK        -0.0193 
     10 C10         0.0038  -14.9876  -51.8145 C.ar      23 UNK        -0.1150 
     11 C11        -0.8887  -15.9775  -52.2345 C.ar      23 UNK        -0.0193 
     12 C12        -0.5718  -17.3230  -52.0271 C.ar      23 UNK        -0.1150 
     13 C13         0.6446  -17.6860  -51.4408 C.ar      23 UNK        -0.0193 
     14 C14         1.5452  -16.6824  -51.0628 C.ar      23 UNK        -0.1150 
     15 C15         0.9769  -19.1661  -51.2609 C.3       23 UNK        -0.0205 
     16 S16         1.9689  -19.5388  -49.7736 S.3       23 UNK        -0.2404 
     17 C17         0.8478  -18.9847  -48.4469 C.3       23 UNK        -0.0398 
     18 CA          0.1960  -20.1668  -47.6988 C.3       11 UNK         0.1400 
     19 N          -0.2463  -19.7804  -46.3612 N.am      11 UNK        -0.5000 
     20 C          -0.6915  -20.6349  -45.4315 C.2       10 UNK         0.5000 
     21 O          -0.7062  -21.8576  -45.5740 O.2       10 UNK        -0.5000 
     22 CA         -1.2682  -20.0114  -44.1521 C.3       10 UNK         0.1400 
     23 CB         -0.1612  -19.7276  -43.1303 C.3       10 UNK        -0.1800 
     24 N          -2.0157  -18.7845  -44.4349 N.am      10 UNK        -0.5000 
     25 C          -3.2174  -18.7671  -45.0277 C.2       9 UNK         0.5000 
     26 O          -3.8324  -19.7850  -45.3476 O.2       9 UNK        -0.5000 
     27 CA         -3.8123  -17.3837  -45.3481 C.3       9 UNK         0.1400 
     28 CB         -4.4613  -16.7683  -44.0994 C.3       9 UNK        -0.1800 
     29 N          -2.8190  -16.4566  -45.8948 N.am      9 UNK        -0.5000 
     30 C          -2.2776  -16.5773  -47.1168 C.2       8 UNK         0.5000 
     31 O          -2.5670  -17.4776  -47.9003 O.2       8 UNK        -0.5000 
     32 CA         -1.2018  -15.5553  -47.5304 C.3       8 UNK         0.1400 
     33 CB         -1.8474  -14.3590  -48.2429 C.3       8 UNK        -0.1800 
     34 N          -0.3798  -15.0688  -46.4228 N.am      8 UNK        -0.5000 
     35 C           0.3318  -15.8352  -45.5865 C.2       7 UNK         0.5000 
     36 O           0.3534  -17.0649  -45.6429 O.2       7 UNK        -0.5000 
     37 CA          1.1403  -15.1183  -44.4888 C.3       7 UNK         0.1400 
     38 CB          1.2657  -13.5909  -44.6852 C.3       7 UNK        -0.1800 
     39 N           0.6202  -15.4030  -43.1530 N.am      7 UNK        -0.5000 
     40 C          -0.6357  -15.2411  -42.7087 C.2       6 UNK         0.5000 
     41 O          -1.5860  -14.9065  -43.4182 O.2       6 UNK        -0.5000 
     42 CA         -0.8612  -15.4686  -41.2023 C.3       6 UNK         0.1400 
     43 CB         -1.1795  -16.9416  -40.9157 C.3       6 UNK        -0.1800 
     44 N           0.2918  -15.0678  -40.3941 N.am      6 UNK        -0.5000 
     45 C           0.7095  -13.8049  -40.2220 C.2       5 UNK         0.5000 
     46 O           0.1092  -12.8206  -40.6546 O.2       5 UNK        -0.5000 
     47 CA          2.0233  -13.6068  -39.4394 C.3       5 UNK         0.1400 
     48 CB          1.7282  -13.2518  -37.9739 C.3       5 UNK        -0.1800 
     49 N           2.9002  -14.7809  -39.4776 N.am      5 UNK        -0.5000 
     50 C           3.5727  -15.1984  -40.5589 C.2       4 UNK         0.5000 
     51 O           3.5679  -14.5920  -41.6330 O.2       4 UNK        -0.5000 
     52 CA          4.3944  -16.4992  -40.4056 C.3       4 UNK         0.1400 
     53 CB          3.7758  -17.4971  -39.4000 C.3       4 UNK        -0.1800 
     54 N           4.6512  -17.1683  -41.6849 N.am      4 UNK        -0.5000 
     55 C           3.7519  -17.6455  -42.5555 C.2       3 UNK         0.5000 
     56 O           2.5335  -17.5723  -42.3859 O.2       3 UNK        -0.5000 
     57 CA          4.3299  -18.3007  -43.8309 C.3       3 UNK         0.1400 
     58 CB          3.2535  -18.9589  -44.7112 C.3       3 UNK        -0.1800 
     59 N           5.0897  -17.3558  -44.6530 N.am      3 UNK        -0.5000 
     60 C           6.3150  -16.8872  -44.3891 C.2       2 UNK         0.5000 
     61 O           6.9542  -17.2090  -43.3857 O.2       2 UNK        -0.5000 
     62 CA          6.9413  -15.8792  -45.3751 C.3       2 UNK         0.1400 
     63 CB          8.0671  -16.5385  -46.1955 C.3       2 UNK        -0.1800 
     64 N           6.0041  -15.1580  -46.2508 N.am      2 UNK        -0.5000 
     65 C           5.2671  -15.6163  -47.2748 C.2       1 UNK         0.5000 
     66 O           5.1756  -16.8091  -47.5620 O.2       1 UNK        -0.5000 
     67 C          -0.9466  -20.8144  -48.5102 C.2       11 UNK         0.5000 
     68 O          -0.7259  -21.8533  -49.1289 O.2       11 UNK        -0.5000 
     69 N          -2.1558  -20.2365  -48.4452 N.am      12 UNK        -0.5000 
     70 CA         -3.3696  -20.7932  -49.0420 C.3       12 UNK         0.1400 
     71 CB         -4.5328  -19.8019  -48.9067 C.3       12 UNK        -0.1800 
     72 C          -3.7519  -22.1529  -48.4400 C.2       12 UNK         0.5000 
     73 O          -4.0662  -23.0740  -49.1906 O.2       12 UNK        -0.5000 
     74 N          -3.6822  -22.2770  -47.1064 N.am      13 UNK        -0.5000 
     75 CA         -3.9189  -23.5324  -46.3902 C.3       13 UNK         0.1400 
     76 CB         -3.8650  -23.2914  -44.8745 C.3       13 UNK        -0.1800 
     77 C          -2.9452  -24.6490  -46.8161 C.2       13 UNK         0.5000 
     78 O          -3.3862  -25.7689  -47.0812 O.2       13 UNK        -0.5000 
     79 N          -1.6543  -24.3031  -46.9305 N.am      14 UNK        -0.5000 
     80 CA         -0.5962  -25.1762  -47.4409 C.3       14 UNK         0.1400 
     81 CB          0.7698  -24.5100  -47.2180 C.3       14 UNK        -0.1800 
     82 C          -0.7876  -25.5563  -48.9227 C.2       14 UNK         0.5000 
     83 O          -0.5365  -26.7055  -49.2897 O.2       14 UNK        -0.5000 
     84 N          -1.2666  -24.6094  -49.7411 N.am      15 UNK        -0.5000 
     85 CA         -1.6231  -24.7811  -51.1514 C.3       15 UNK         0.1400 
     86 CB         -1.6335  -23.4067  -51.8449 C.3       15 UNK        -0.1800 
     87 C          -2.9542  -25.5432  -51.3301 C.2       15 UNK         0.5000 
     88 O          -3.9038  -25.0154  -51.9137 O.2       15 UNK        -0.5000 
     89 N          -2.9821  -26.7818  -50.8181 N.am      16 UNK        -0.5000 
     90 CA         -4.0430  -27.7858  -50.9328 C.3       16 UNK         0.1400 
     91 CB         -4.0499  -28.3780  -52.3567 C.3       16 UNK        -0.1800 
     92 C          -5.4292  -27.2870  -50.4733 C.2       16 UNK         0.5000 
     93 O          -6.4307  -27.5572  -51.1385 O.2       16 UNK        -0.5000 
     94 N          -5.4514  -26.5742  -49.3362 N.am      17 UNK        -0.5000 
     95 CA         -6.6282  -25.9762  -48.6996 C.3       17 UNK         0.1400 
     96 CB         -7.5796  -27.0682  -48.1660 C.3       17 UNK        -0.1800 
     97 C          -7.3286  -24.9456  -49.6096 C.2       17 UNK         0.5000 
     98 O          -8.5125  -25.0892  -49.9216 O.2       17 UNK        -0.5000 
     99 N          -6.5644  -23.9186  -50.0030 N.am      18 UNK        -0.5000 
    100 CA        -6.9561  -22.7629  -50.8097 C.3       18 UNK         0.1400 
    101 CB        -8.0211  -21.9190  -50.0774 C.3       18 UNK        -0.1800 
    102 C         -7.3505  -23.1419  -52.2485 C.2       18 UNK         0.5000 
    103 O         -8.3782  -22.6816  -52.7523 O.2       18 UNK        -0.5000 
    104 N         -6.5151  -23.9611  -52.9025 N.am      19 UNK        -0.5000 
    105 CA        -6.6594  -24.3429  -54.3072 C.3       19 UNK         0.1400 
    106 CB        -5.8571  -25.6276  -54.5701 C.3       19 UNK        -0.1800 
    107 C         -6.2400  -23.1837  -55.2337 C.2       19 UNK         0.5000 
    108 O         -5.1294  -23.1827  -55.7673 O.2       19 UNK        -0.5000 
    109 N         -7.1291  -22.1891  -55.3586 N.am      20 UNK        -0.5000 
    110 CA        -7.0548  -20.9558  -56.1561 C.3       20 UNK         0.1400 
    111 CB        -6.8638  -21.2627  -57.6536 C.3       20 UNK        -0.1800 
    112 C         -6.0227  -19.9195  -55.6661 C.2       20 UNK         0.5000 
    113 O         -6.3003  -18.7216  -55.7337 O.2       20 UNK        -0.5000 
    114 N         -4.8680  -20.3773  -55.1708 N.am      21 UNK        -0.5000 
    115 CA        -3.7865  -19.5653  -54.6171 C.3       21 UNK         0.1400 
    116 CB        -2.5161  -20.4301  -54.5339 C.3       21 UNK        -0.1800 
    117 C         -4.1738  -18.9774  -53.2468 C.2       21 UNK         0.5000 
    118 O         -3.8792  -19.5843  -52.2181 O.2       21 UNK        -0.5000 
    119 N         -4.8467  -17.8191  -53.2656 N.am      22 UNK        -0.5000 
    120 CA        -5.3303  -17.0727  -52.0873 C.3       22 UNK         0.1400 
    121 C         -6.4690  -17.7832  -51.2910 C.2       22 UNK         0.5000 
    122 N         -7.1559  -18.7630  -51.8645 N.am      22 UNK        -0.7600 
    123 O         -6.7785  -17.4105  -50.1631 O.2       22 UNK        -0.5000 
    124 C124       -4.1691  -16.5336  -51.1939 C.3       23 UNK        -0.0398 
    125 S125       -3.4677  -14.9886  -51.8651 S.3       23 UNK        -0.2404 
    126 C126       -2.1587  -15.5885  -52.9744 C.3       23 UNK        -0.0205 
    127 H127        4.8992  -10.7898  -46.8467 H         1 UNK         0.0600 
    128 H128        5.8136  -10.3036  -48.2766 H         1 UNK         0.0600 
    129 H129        6.6638  -10.8592  -46.8308 H         1 UNK         0.0600 
    130 H130        3.9588  -12.7920  -47.0981 H         1 UNK         0.3000 
    131 H131        4.8654  -14.6599  -49.1255 H         1 UNK         0.0600 
    132 H132        2.8280  -15.9317  -48.6043 H         1 UNK         0.0800 
    133 H133        2.5720  -15.0075  -47.1576 H         1 UNK         0.0800 
    134 H134        2.0826  -13.3792  -51.4554 H         1 UNK         0.0800 
    135 H135        3.2325  -14.5890  -50.9621 H         1 UNK         0.0800 
    136 H136       -0.2421  -13.9460  -51.9679 H         1 UNK         0.1150 
    137 H137       -1.2634  -18.0904  -52.3453 H         1 UNK         0.1150 
    138 H138        2.5027  -16.9492  -50.6405 H         1 UNK         0.1150 
    139 H139        0.0608  -19.7584  -51.2235 H         1 UNK         0.0800 
    140 H140        1.5270  -19.5048  -52.1394 H         1 UNK         0.0800 
    141 H141        0.0941  -18.2958  -48.8298 H         1 UNK         0.0800 
    142 H142        1.4587  -18.4009  -47.7569 H         1 UNK         0.0800 
    143 H143        0.9608  -20.9329  -47.5513 H         1 UNK         0.0600 
    144 H144       -0.2129  -18.7894  -46.1352 H         1 UNK         0.3000 
    145 H145       -1.9495  -20.7427  -43.7119 H         1 UNK         0.0600 
    146 H146       -0.5860  -19.5501  -42.1441 H         1 UNK         0.0600 
    147 H147        0.5182  -20.5755  -43.0345 H         1 UNK         0.0600 
    148 H148        0.4319  -18.8569  -43.4105 H         1 UNK         0.0600 
    149 H149       -1.5391  -17.9091  -44.2721 H         1 UNK         0.3000 
    150 H150       -4.5934  -17.5246  -46.0985 H         1 UNK         0.0600 
    151 H151       -5.2366  -17.4238  -43.7007 H         1 UNK         0.0600 
    152 H152       -4.9311  -15.8120  -44.3300 H         1 UNK         0.0600 
    153 H153       -3.7340  -16.6008  -43.3048 H         1 UNK         0.0600 
    154 H154       -2.4928  -15.7176  -45.2826 H         1 UNK         0.3000 
    155 H155       -0.5339  -16.0481  -48.2395 H         1 UNK         0.0600 
    156 H156       -2.4880  -13.7867  -47.5710 H         1 UNK         0.0600 
    157 H157       -1.0934  -13.6845  -48.6483 H         1 UNK         0.0600 
    158 H158       -2.4623  -14.6921  -49.0788 H         1 UNK         0.0600 
    159 H159       -0.3649  -14.0693  -46.2838 H         1 UNK         0.3000 
    160 H160        2.1453  -15.5411  -44.5252 H         1 UNK         0.0600 
    161 H161        0.3049  -13.0833  -44.5924 H         1 UNK         0.0600 
    162 H162        1.6832  -13.3424  -45.6612 H         1 UNK         0.0600 
    163 H163        1.9323  -13.1628  -43.9359 H         1 UNK         0.0600 
    164 H164        1.3057  -15.7782  -42.5081 H         1 UNK         0.3000 
    165 H165       -1.7210  -14.8657  -40.9027 H         1 UNK         0.0600 
    166 H166       -1.5054  -17.0794  -39.8846 H         1 UNK         0.0600 
    167 H167       -1.9774  -17.3106  -41.5615 H         1 UNK         0.0600 
    168 H168       -0.3025  -17.5688  -41.0740 H         1 UNK         0.0600 
    169 H169        0.8488  -15.8108  -39.9999 H         1 UNK         0.3000 
    170 H170        2.5533  -12.7673  -39.8944 H         1 UNK         0.0600 
    171 H171        1.2086  -14.0614  -37.4598 H         1 UNK         0.0600 
    172 H172        2.6467  -13.0398  -37.4264 H         1 UNK         0.0600 
    173 H173        1.0991  -12.3632  -37.9064 H         1 UNK         0.0600 
    174 H174        2.9672  -15.3200  -38.6264 H         1 UNK         0.3000 
    175 H175        5.3702  -16.1989  -40.0219 H         1 UNK         0.0600 
    176 H176        4.3469  -18.4251  -39.3696 H         1 UNK         0.0600 
    177 H177        2.7473  -17.7514  -39.6596 H         1 UNK         0.0600 
    178 H178        3.7744  -17.0969  -38.3859 H         1 UNK         0.0600 
    179 H179        5.6245  -17.2113  -41.9730 H         1 UNK         0.3000 
    180 H180        5.0070  -19.0917  -43.5018 H         1 UNK         0.0600 
    181 H181        3.6989  -19.4746  -45.5621 H         1 UNK         0.0600 
    182 H182        2.5514  -18.2240  -45.0999 H         1 UNK         0.0600 
    183 H183        2.6835  -19.6982  -44.1482 H         1 UNK         0.0600 
    184 H184        4.6740  -17.0841  -45.5341 H         1 UNK         0.3000 
    185 H185        7.4035  -15.1093  -44.7555 H         1 UNK         0.0600 
    186 H186        8.8314  -16.9592  -45.5407 H         1 UNK         0.0600 
    187 H187        7.6945  -17.3503  -46.8207 H         1 UNK         0.0600 
    188 H188        8.5595  -15.8134  -46.8437 H         1 UNK         0.0600 
    189 H189        5.9630  -14.1614  -46.0895 H         1 UNK         0.3000 
    190 H190       -2.2590  -19.3387  -47.9804 H         1 UNK         0.3000 
    191 H191       -3.1740  -20.9444  -50.1040 H         1 UNK         0.0600 
    192 H192       -4.3012  -18.8615  -49.4033 H         1 UNK         0.0600 
    193 H193       -5.4378  -20.1943  -49.3711 H         1 UNK         0.0600 
    194 H194       -4.7646  -19.5813  -47.8651 H         1 UNK         0.0600 
    195 H195       -3.4583  -21.4611  -46.5472 H         1 UNK         0.3000 
    196 H196       -4.9294  -23.8603  -46.6383 H         1 UNK         0.0600 
    197 H197       -4.1039  -24.2043  -44.3278 H         1 UNK         0.0600 
    198 H198       -4.5851  -22.5315  -44.5701 H         1 UNK         0.0600 
    199 H199       -2.8779  -22.9654  -44.5489 H         1 UNK         0.0600 
    200 H200       -1.3768  -23.3645  -46.6575 H         1 UNK         0.3000 
    201 H201       -0.6207  -26.0997  -46.8588 H         1 UNK         0.0600 
    202 H202        0.9384  -24.3009  -46.1614 H         1 UNK         0.0600 
    203 H203        0.8536  -23.5686  -47.7611 H         1 UNK         0.0600 
    204 H204        1.5799  -25.1574  -47.5558 H         1 UNK         0.0600 
    205 H205       -1.4001  -23.6751  -49.3660 H         1 UNK         0.3000 
    206 H206       -0.8458  -25.3801  -51.6299 H         1 UNK         0.0600 
    207 H207       -0.6717  -22.9039  -51.7436 H         1 UNK         0.0600 
    208 H208       -1.8356  -23.5095  -52.9116 H         1 UNK         0.0600 
    209 H209       -2.3988  -22.7520  -51.4286 H         1 UNK         0.0600 
    210 H210       -2.1527  -27.0747  -50.3093 H         1 UNK         0.3000 
    211 H211       -3.7758  -28.5907  -50.2467 H         1 UNK         0.0600 
    212 H212       -4.2865  -27.6232  -53.1053 H         1 UNK         0.0600 
    213 H213       -4.7847  -29.1785  -52.4499 H         1 UNK         0.0600 
    214 H214       -3.0783  -28.8025  -52.6092 H         1 UNK         0.0600 
    215 H215       -4.5699  -26.3902  -48.8707 H         1 UNK         0.3000 
    216 H216       -6.2599  -25.4227  -47.8358 H         1 UNK         0.0600 
    217 H217       -8.4024  -26.6249  -47.6039 H         1 UNK         0.0600 
    218 H218       -7.0583  -27.7498  -47.4939 H         1 UNK         0.0600 
    219 H219       -8.0171  -27.6598  -48.9705 H         1 UNK         0.0600 
    220 H220       -5.5880  -23.8996  -49.7113 H         1 UNK         0.3000 
    221 H221       -6.0631  -22.1433  -50.9047 H         1 UNK         0.0600 
    222 H222       -8.9596  -22.4603  -49.9565 H         1 UNK         0.0600 
    223 H223       -7.6745  -21.6214  -49.0877 H         1 UNK         0.0600 
    224 H224       -8.2464  -21.0076  -50.6288 H         1 UNK         0.0600 
    225 H225       -5.6740  -24.2909  -52.4345 H         1 UNK         0.3000 
    226 H226       -7.7091  -24.5693  -54.5060 H         1 UNK         0.0600 
    227 H227       -6.2043  -26.4403  -53.9320 H         1 UNK         0.0600 
    228 H228       -5.9710  -25.9535  -55.6045 H         1 UNK         0.0600 
    229 H229       -4.7917  -25.4862  -54.3867 H         1 UNK         0.0600 
    230 H230       -7.9533  -22.2611  -54.7708 H         1 UNK         0.3000 
    231 H231       -8.0330  -20.4850  -56.0462 H         1 UNK         0.0600 
    232 H232       -5.8917  -21.7117  -57.8587 H         1 UNK         0.0600 
    233 H233       -6.9303  -20.3504  -58.2477 H         1 UNK         0.0600 
    234 H234       -7.6326  -21.9440  -58.0180 H         1 UNK         0.0600 
    235 H235       -4.7256  -21.3825  -55.1843 H         1 UNK         0.3000 
    236 H236       -3.5829  -18.7376  -55.2997 H         1 UNK         0.0600 
    237 H237       -2.2084  -20.7735  -55.5216 H         1 UNK         0.0600 
    238 H238       -1.6840  -19.8654  -54.1117 H         1 UNK         0.0600 
    239 H239       -2.6679  -21.3102  -53.9077 H         1 UNK         0.0600 
    240 H240       -5.1230  -17.4449  -54.1642 H         1 UNK         0.3000 
    241 H241       -5.8467  -16.2062  -52.5016 H         1 UNK         0.0600 
    242 H242       -6.9403  -19.0518  -52.8042 H         1 UNK         0.3800 
    243 H243       -7.9193  -19.1861  -51.3636 H         1 UNK         0.3800 
    244 H244       -4.5171  -16.2884  -50.1896 H         1 UNK         0.0800 
    245 H245       -3.3823  -17.2740  -51.0495 H         1 UNK         0.0800 
    246 H246       -2.5257  -16.4197  -53.5754 H         1 UNK         0.0800 
    247 H247       -1.9225  -14.7945  -53.6842 H         1 UNK         0.0800 
@<TRIPOS>BOND
     1    1    2 1    
     2    1  127 1    
     3    1  128 1    
     4    1  129 1    
     5    2    3 2    
     6    2    4 am   BACKBONE|DICT|INTERRES
     7    4    5 1    
     8    4  130 1    
     9    5    6 1    
    10    5   65 1    
    11    5  131 1    
    12    6    7 1    
    13    6  132 1    
    14    6  133 1    
    15    7    8 1    
    16    8    9 1    
    17    8  134 1    
    18    8  135 1    
    19    9   10 ar   
    20    9   14 ar   
    21   10   11 ar   
    22   10  136 1    
    23   11   12 ar   
    24   11  126 1    
    25   12   13 ar   
    26   12  137 1    
    27   13   14 ar   
    28   13   15 1    
    29   14  138 1    
    30   15   16 1    
    31   15  139 1    
    32   15  140 1    
    33   16   17 1    
    34   17   18 1    
    35   17  141 1    
    36   17  142 1    
    37   18   19 1    
    38   18   67 1    
    39   18  143 1    
    40   19   20 am   BACKBONE|DICT|INTERRES
    41   19  144 1    
    42   20   21 2    
    43   20   22 1    
    44   22   23 1    
    45   22   24 1    
    46   22  145 1    
    47   23  146 1    
    48   23  147 1    
    49   23  148 1    
    50   24   25 am   BACKBONE|DICT|INTERRES
    51   24  149 1    
    52   25   26 2    
    53   25   27 1    
    54   27   28 1    
    55   27   29 1    
    56   27  150 1    
    57   28  151 1    
    58   28  152 1    
    59   28  153 1    
    60   29   30 am   BACKBONE|DICT|INTERRES
    61   29  154 1    
    62   30   31 2    
    63   30   32 1    
    64   32   33 1    
    65   32   34 1    
    66   32  155 1    
    67   33  156 1    
    68   33  157 1    
    69   33  158 1    
    70   34   35 am   BACKBONE|DICT|INTERRES
    71   34  159 1    
    72   35   36 2    
    73   35   37 1    
    74   37   38 1    
    75   37   39 1    
    76   37  160 1    
    77   38  161 1    
    78   38  162 1    
    79   38  163 1    
    80   39   40 am   BACKBONE|DICT|INTERRES
    81   39  164 1    
    82   40   41 2    
    83   40   42 1    
    84   42   43 1    
    85   42   44 1    
    86   42  165 1    
    87   43  166 1    
    88   43  167 1    
    89   43  168 1    
    90   44   45 am   BACKBONE|DICT|INTERRES
    91   44  169 1    
    92   45   46 2    
    93   45   47 1    
    94   47   48 1    
    95   47   49 1    
    96   47  170 1    
    97   48  171 1    
    98   48  172 1    
    99   48  173 1    
   100   49   50 am   BACKBONE|DICT|INTERRES
   101   49  174 1    
   102   50   51 2    
   103   50   52 1    
   104   52   53 1    
   105   52   54 1    
   106   52  175 1    
   107   53  176 1    
   108   53  177 1    
   109   53  178 1    
   110   54   55 am   BACKBONE|DICT|INTERRES
   111   54  179 1    
   112   55   56 2    
   113   55   57 1    
   114   57   58 1    
   115   57   59 1    
   116   57  180 1    
   117   58  181 1    
   118   58  182 1    
   119   58  183 1    
   120   59   60 am   BACKBONE|DICT|INTERRES
   121   59  184 1    
   122   60   61 2    
   123   60   62 1    
   124   62   63 1    
   125   62   64 1    
   126   62  185 1    
   127   63  186 1    
   128   63  187 1    
   129   63  188 1    
   130   64   65 am   BACKBONE|DICT|INTERRES
   131   64  189 1    
   132   65   66 2    
   133   67   68 2    
   134   67   69 am   BACKBONE|DICT|INTERRES
   135   69   70 1    
   136   69  190 1    
   137   70   71 1    
   138   70   72 1    
   139   70  191 1    
   140   71  192 1    
   141   71  193 1    
   142   71  194 1    
   143   72   73 2    
   144   72   74 am   BACKBONE|DICT|INTERRES
   145   74   75 1    
   146   74  195 1    
   147   75   76 1    
   148   75   77 1    
   149   75  196 1    
   150   76  197 1    
   151   76  198 1    
   152   76  199 1    
   153   77   78 2    
   154   77   79 am   BACKBONE|DICT|INTERRES
   155   79   80 1    
   156   79  200 1    
   157   80   81 1    
   158   80   82 1    
   159   80  201 1    
   160   81  202 1    
   161   81  203 1    
   162   81  204 1    
   163   82   83 2    
   164   82   84 am   BACKBONE|DICT|INTERRES
   165   84   85 1    
   166   84  205 1    
   167   85   86 1    
   168   85   87 1    
   169   85  206 1    
   170   86  207 1    
   171   86  208 1    
   172   86  209 1    
   173   87   88 2    
   174   87   89 am   BACKBONE|DICT|INTERRES
   175   89   90 1    
   176   89  210 1    
   177   90   91 1    
   178   90   92 1    
   179   90  211 1    
   180   91  212 1    
   181   91  213 1    
   182   91  214 1    
   183   92   93 2    
   184   92   94 am   BACKBONE|DICT|INTERRES
   185   94   95 1    
   186   94  215 1    
   187   95   96 1    
   188   95   97 1    
   189   95  216 1    
   190   96  217 1    
   191   96  218 1    
   192   96  219 1    
   193   97   98 2    
   194   97   99 am   BACKBONE|DICT|INTERRES
   195   99  100 1    
   196   99  220 1    
   197  100  101 1    
   198  100  102 1    
   199  100  221 1    
   200  101  222 1    
   201  101  223 1    
   202  101  224 1    
   203  102  103 2    
   204  102  104 am   BACKBONE|DICT|INTERRES
   205  104  105 1    
   206  104  225 1    
   207  105  106 1    
   208  105  107 1    
   209  105  226 1    
   210  106  227 1    
   211  106  228 1    
   212  106  229 1    
   213  107  108 2    
   214  107  109 am   BACKBONE|DICT|INTERRES
   215  109  110 1    
   216  109  230 1    
   217  110  111 1    
   218  110  112 1    
   219  110  231 1    
   220  111  232 1    
   221  111  233 1    
   222  111  234 1    
   223  112  113 2    
   224  112  114 am   BACKBONE|DICT|INTERRES
   225  114  115 1    
   226  114  235 1    
   227  115  116 1    
   228  115  117 1    
   229  115  236 1    
   230  116  237 1    
   231  116  238 1    
   232  116  239 1    
   233  117  118 2    
   234  117  119 am   BACKBONE|DICT|INTERRES
   235  119  120 1    
   236  119  240 1    
   237  120  121 1    
   238  120  124 1    
   239  120  241 1    
   240  121  122 am   BACKBONE|DICT|INTERRES
   241  121  123 2    
   242  122  242 1    
   243  122  243 1    
   244  124  125 1    
   245  124  244 1    
   246  124  245 1    
   247  125  126 1    
   248  126  246 1    
   249  126  247 1    
@<TRIPOS>SUBSTRUCTURE
     1 UNK         1 GROUP             0       ****    0 ROOT    
