@<TRIPOS>MOLECULE
3R540
247   249    1
SMALL
USER_CHARGES


@<TRIPOS>ATOM
      1 CA         -4.0004  -10.4360  -46.8201 C.3       0 UNK        -0.1800 
      2 C          -2.8696  -11.4214  -46.5579 C.2       0 UNK         0.5000 
      3 O          -2.3066  -11.4152  -45.4644 O.2       0 UNK        -0.5000 
      4 N          -2.5594  -12.2598  -47.5569 N.am      1 UNK        -0.5000 
      5 CA         -1.4952  -13.2746  -47.6013 C.3       1 UNK         0.1400 
      6 C6         -1.4895  -14.2747  -46.4130 C.3       23 UNK        -0.0398 
      7 S7         -3.0803  -15.1492  -46.2163 S.3       23 UNK        -0.2404 
      8 C8         -2.5826  -16.8944  -46.4239 C.3       23 UNK        -0.0205 
      9 C9         -2.1105  -17.3003  -47.8208 C.ar      23 UNK        -0.0193 
     10 C10        -2.4252  -16.5671  -48.9731 C.ar      23 UNK        -0.1150 
     11 C11        -1.9788  -16.9825  -50.2310 C.ar      23 UNK        -0.0193 
     12 C12        -1.2159  -18.1475  -50.3360 C.ar      23 UNK        -0.1150 
     13 C13        -0.9438  -18.9229  -49.2076 C.ar      23 UNK        -0.0193 
     14 C14        -1.3792  -18.4847  -47.9537 C.ar      23 UNK        -0.1150 
     15 C15        -0.2737  -20.2803  -49.3571 C.3       23 UNK        -0.0205 
     16 S16         1.2869  -20.4019  -48.4326 S.3       23 UNK        -0.2404 
     17 C17         1.3172  -22.1965  -48.0777 C.3       23 UNK        -0.0398 
     18 CA          0.9020  -22.5888  -46.6332 C.3       11 UNK         0.1400 
     19 N           1.8010  -22.0148  -45.6340 N.am      11 UNK        -0.5000 
     20 C           2.9704  -22.5471  -45.2668 C.2       10 UNK         0.5000 
     21 O           3.3878  -23.6263  -45.6904 O.2       10 UNK        -0.5000 
     22 CA          3.8390  -21.7468  -44.2794 C.3       10 UNK         0.1400 
     23 CB          4.7450  -20.7696  -45.0439 C.3       10 UNK        -0.1800 
     24 N           3.0765  -21.0105  -43.2707 N.am      10 UNK        -0.5000 
     25 C           2.4277  -21.5733  -42.2416 C.2       9 UNK         0.5000 
     26 O           2.3659  -22.7891  -42.0550 O.2       9 UNK        -0.5000 
     27 CA          1.7497  -20.6192  -41.2405 C.3       9 UNK         0.1400 
     28 CB          2.7734  -20.0645  -40.2378 C.3       9 UNK        -0.1800 
     29 N           1.0808  -19.5102  -41.9163 N.am      9 UNK        -0.5000 
     30 C          -0.1249  -19.5972  -42.4932 C.2       8 UNK         0.5000 
     31 O          -0.8590  -20.5795  -42.3813 O.2       8 UNK        -0.5000 
     32 CA         -0.5958  -18.3917  -43.3351 C.3       8 UNK         0.1400 
     33 CB         -1.5205  -17.4804  -42.5152 C.3       8 UNK        -0.1800 
     34 N           0.4971  -17.5872  -43.8910 N.am      8 UNK        -0.5000 
     35 C           1.3845  -18.0378  -44.7893 C.2       7 UNK         0.5000 
     36 O           1.3748  -19.1742  -45.2516 O.2       7 UNK        -0.5000 
     37 CA          2.5206  -17.0833  -45.1841 C.3       7 UNK         0.1400 
     38 CB          2.0630  -16.0800  -46.2519 C.3       7 UNK        -0.1800 
     39 N           3.0718  -16.3859  -44.0213 N.am      7 UNK        -0.5000 
     40 C           3.7806  -16.9939  -43.0587 C.2       6 UNK         0.5000 
     41 O           4.0895  -18.1844  -43.0885 O.2       6 UNK        -0.5000 
     42 CA          4.1505  -16.1494  -41.8283 C.3       6 UNK         0.1400 
     43 CB          5.4423  -15.3555  -42.0711 C.3       6 UNK        -0.1800 
     44 N           3.0647  -15.2462  -41.4420 N.am      6 UNK        -0.5000 
     45 C           1.9212  -15.6678  -40.8801 C.2       5 UNK         0.5000 
     46 O           1.6953  -16.8464  -40.6098 O.2       5 UNK        -0.5000 
     47 CA          0.8328  -14.6172  -40.5897 C.3       5 UNK         0.1400 
     48 CB          0.9573  -14.1027  -39.1480 C.3       5 UNK        -0.1800 
     49 N           0.8417  -13.4774  -41.5054 N.am      5 UNK        -0.5000 
     50 C           0.6467  -13.5390  -42.8290 C.2       4 UNK         0.5000 
     51 O           0.4486  -14.5917  -43.4414 O.2       4 UNK        -0.5000 
     52 CA          0.7246  -12.2085  -43.6109 C.3       4 UNK         0.1400 
     53 CB          0.9618  -10.9629  -42.7272 C.3       4 UNK        -0.1800 
     54 N           1.7227  -12.2556  -44.6827 N.am      4 UNK        -0.5000 
     55 C           3.0177  -12.5894  -44.5592 C.2       3 UNK         0.5000 
     56 O           3.5374  -12.9169  -43.4914 O.2       3 UNK        -0.5000 
     57 CA          3.8566  -12.5865  -45.8493 C.3       3 UNK         0.1400 
     58 CB          5.0706  -13.5322  -45.7796 C.3       3 UNK        -0.1800 
     59 N           3.0186  -12.9446  -46.9918 N.am      3 UNK        -0.5000 
     60 C           3.0407  -12.3529  -48.1888 C.2       2 UNK         0.5000 
     61 O           3.8342  -11.4650  -48.5031 O.2       2 UNK        -0.5000 
     62 CA          1.9843  -12.8234  -49.2089 C.3       2 UNK         0.1400 
     63 CB          2.5741  -13.9152  -50.1153 C.3       2 UNK        -0.1800 
     64 N           0.7190  -13.3174  -48.6445 N.am      2 UNK        -0.5000 
     65 C          -0.1057  -12.6402  -47.8306 C.2       1 UNK         0.5000 
     66 O           0.1975  -11.5753  -47.2892 O.2       1 UNK        -0.5000 
     67 C          -0.5582  -22.2360  -46.2836 C.2       11 UNK         0.5000 
     68 O          -0.7987  -21.3110  -45.5064 O.2       11 UNK        -0.5000 
     69 N          -1.5185  -22.9844  -46.8422 N.am      12 UNK        -0.5000 
     70 CA         -2.9406  -22.8437  -46.5345 C.3       12 UNK         0.1400 
     71 CB         -3.2672  -23.6406  -45.2566 C.3       12 UNK        -0.1800 
     72 C          -3.8035  -23.3270  -47.7067 C.2       12 UNK         0.5000 
     73 O          -3.3024  -23.9804  -48.6273 O.2       12 UNK        -0.5000 
     74 N          -5.1038  -23.0143  -47.6364 N.am      13 UNK        -0.5000 
     75 CA         -6.1258  -23.4716  -48.5815 C.3       13 UNK         0.1400 
     76 CB         -7.3920  -22.6181  -48.4176 C.3       13 UNK        -0.1800 
     77 C          -6.4577  -24.9652  -48.4181 C.2       13 UNK         0.5000 
     78 O          -6.8371  -25.6065  -49.3962 O.2       13 UNK        -0.5000 
     79 N          -6.2592  -25.5079  -47.2073 N.am      14 UNK        -0.5000 
     80 CA         -6.4209  -26.9297  -46.8834 C.3       14 UNK         0.1400 
     81 CB         -6.2956  -27.1126  -45.3633 C.3       14 UNK        -0.1800 
     82 C          -5.4164  -27.8390  -47.6206 C.2       14 UNK         0.5000 
     83 O          -5.7303  -28.9965  -47.8983 O.2       14 UNK        -0.5000 
     84 N          -4.2428  -27.2835  -47.9511 N.am      15 UNK        -0.5000 
     85 CA         -3.2075  -27.9162  -48.7690 C.3       15 UNK         0.1400 
     86 CB         -1.8413  -27.3822  -48.3040 C.3       15 UNK        -0.1800 
     87 C          -3.4032  -27.6524  -50.2778 C.2       15 UNK         0.5000 
     88 O          -2.5938  -28.1245  -51.0757 O.2       15 UNK        -0.5000 
     89 N          -4.4291  -26.8617  -50.6362 N.am      16 UNK        -0.5000 
     90 CA         -4.7532  -26.3162  -51.9622 C.3       16 UNK         0.1400 
     91 CB         -4.9955  -27.4364  -52.9931 C.3       16 UNK        -0.1800 
     92 C          -3.7462  -25.2646  -52.4751 C.2       16 UNK         0.5000 
     93 O          -3.9114  -24.7621  -53.5872 O.2       16 UNK        -0.5000 
     94 N          -2.7429  -24.9183  -51.6581 N.am      17 UNK        -0.5000 
     95 CA         -1.6678  -23.9917  -51.9955 C.3       17 UNK         0.1400 
     96 CB         -0.5581  -24.0961  -50.9413 C.3       17 UNK        -0.1800 
     97 C          -2.1743  -22.5506  -52.1281 C.2       17 UNK         0.5000 
     98 O          -1.8885  -21.9002  -53.1324 O.2       17 UNK        -0.5000 
     99 N          -2.9612  -22.0945  -51.1416 N.am      18 UNK        -0.5000 
    100 CA        -3.5846  -20.7681  -51.1737 C.3       18 UNK         0.1400 
    101 CB        -4.1510  -20.3991  -49.7963 C.3       18 UNK        -0.1800 
    102 C         -4.6685  -20.6593  -52.2573 C.2       18 UNK         0.5000 
    103 O         -4.7905  -19.6099  -52.8842 O.2       18 UNK        -0.5000 
    104 N         -5.3980  -21.7588  -52.4971 N.am      19 UNK        -0.5000 
    105 CA        -6.4114  -21.8600  -53.5476 C.3       19 UNK         0.1400 
    106 CB        -7.1655  -23.1922  -53.4148 C.3       19 UNK        -0.1800 
    107 C         -5.8089  -21.6947  -54.9552 C.2       19 UNK         0.5000 
    108 O         -6.3656  -20.9582  -55.7698 O.2       19 UNK        -0.5000 
    109 N         -4.6578  -22.3368  -55.1954 N.am      20 UNK        -0.5000 
    110 CA        -3.8824  -22.2002  -56.4266 C.3       20 UNK         0.1400 
    111 CB        -2.8188  -23.3078  -56.4799 C.3       20 UNK        -0.1800 
    112 C         -3.2304  -20.8115  -56.5729 C.2       20 UNK         0.5000 
    113 O         -3.2480  -20.2479  -57.6680 O.2       20 UNK        -0.5000 
    114 N         -2.6541  -20.2952  -55.4791 N.am      21 UNK        -0.5000 
    115 CA        -1.8975  -19.0435  -55.4587 C.3       21 UNK         0.1400 
    116 CB        -1.0429  -18.9921  -54.1858 C.3       21 UNK        -0.1800 
    117 C         -2.7663  -17.7776  -55.5591 C.2       21 UNK         0.5000 
    118 O         -2.3754  -16.8399  -56.2564 O.2       21 UNK        -0.5000 
    119 N         -3.8981  -17.7490  -54.8469 N.am      22 UNK        -0.5000 
    120 CA        -4.7369  -16.5518  -54.6761 C.3       22 UNK         0.1400 
    121 C         -6.2647  -16.8381  -54.5960 C.2       22 UNK         0.5000 
    122 N         -6.7403  -18.0419  -54.8879 N.am      22 UNK        -0.7600 
    123 O         -7.0488  -15.9389  -54.3034 O.2       22 UNK        -0.5000 
    124 C124       -4.2127  -15.6240  -53.5410 C.3       23 UNK        -0.0398 
    125 S125       -4.1067  -16.4322  -51.9029 S.3       23 UNK        -0.2404 
    126 C126       -2.3518  -16.1945  -51.4787 C.3       23 UNK        -0.0205 
    127 H127       -3.6364   -9.4134  -46.7211 H         1 UNK         0.0600 
    128 H128       -4.4189  -10.5525  -47.8201 H         1 UNK         0.0600 
    129 H129       -4.8023  -10.5851  -46.0970 H         1 UNK         0.0600 
    130 H130       -3.0811  -12.1734  -48.4174 H         1 UNK         0.3000 
    131 H131       -1.7134  -13.8466  -48.5028 H         1 UNK         0.0600 
    132 H132       -0.7052  -15.0176  -46.5546 H         1 UNK         0.0800 
    133 H133       -1.2567  -13.7736  -45.4744 H         1 UNK         0.0800 
    134 H134       -3.4283  -17.5270  -46.1521 H         1 UNK         0.0800 
    135 H135       -1.7939  -17.1053  -45.7022 H         1 UNK         0.0800 
    136 H136       -3.0412  -15.6829  -48.9078 H         1 UNK         0.1150 
    137 H137       -0.8751  -18.4805  -51.3039 H         1 UNK         0.1150 
    138 H138       -1.1651  -19.0850  -47.0795 H         1 UNK         0.1150 
    139 H139       -0.9761  -21.0360  -49.0058 H         1 UNK         0.0800 
    140 H140       -0.0799  -20.5102  -50.4060 H         1 UNK         0.0800 
    141 H141        2.3330  -22.5466  -48.2650 H         1 UNK         0.0800 
    142 H142        0.7028  -22.7240  -48.8038 H         1 UNK         0.0800 
    143 H143        0.9642  -23.6764  -46.5542 H         1 UNK         0.0600 
    144 H144        1.5162  -21.1037  -45.2776 H         1 UNK         0.3000 
    145 H145        4.4817  -22.4592  -43.7579 H         1 UNK         0.0600 
    146 H146        5.4347  -20.2606  -44.3705 H         1 UNK         0.0600 
    147 H147        5.3456  -21.2929  -45.7890 H         1 UNK         0.0600 
    148 H148        4.1627  -20.0101  -45.5664 H         1 UNK         0.0600 
    149 H149        3.1115  -19.9994  -43.3339 H         1 UNK         0.3000 
    150 H150        1.0095  -21.1922  -40.6780 H         1 UNK         0.0600 
    151 H151        3.2780  -20.8731  -39.7075 H         1 UNK         0.0600 
    152 H152        2.2896  -19.4366  -39.4894 H         1 UNK         0.0600 
    153 H153        3.5400  -19.4654  -40.7297 H         1 UNK         0.0600 
    154 H154        1.5860  -18.6358  -41.9753 H         1 UNK         0.3000 
    155 H155       -1.1679  -18.7955  -44.1727 H         1 UNK         0.0600 
    156 H156       -1.8761  -16.6369  -43.1078 H         1 UNK         0.0600 
    157 H157       -1.0117  -17.0848  -41.6367 H         1 UNK         0.0600 
    158 H158       -2.3971  -18.0278  -42.1670 H         1 UNK         0.0600 
    159 H159        0.5631  -16.6233  -43.5802 H         1 UNK         0.3000 
    160 H160        3.3130  -17.6916  -45.6253 H         1 UNK         0.0600 
    161 H161        1.4707  -15.2748  -45.8204 H         1 UNK         0.0600 
    162 H162        1.4577  -16.5665  -47.0188 H         1 UNK         0.0600 
    163 H163        2.9236  -15.6457  -46.7578 H         1 UNK         0.0600 
    164 H164        2.8030  -15.4219  -43.8843 H         1 UNK         0.3000 
    165 H165        4.3343  -16.8350  -40.9980 H         1 UNK         0.0600 
    166 H166        5.3547  -14.6845  -42.9245 H         1 UNK         0.0600 
    167 H167        5.7094  -14.7581  -41.1994 H         1 UNK         0.0600 
    168 H168        6.2768  -16.0283  -42.2728 H         1 UNK         0.0600 
    169 H169        3.1673  -14.2703  -41.6926 H         1 UNK         0.3000 
    170 H170       -0.1353  -15.1104  -40.6906 H         1 UNK         0.0600 
    171 H171        0.9259  -14.9276  -38.4348 H         1 UNK         0.0600 
    172 H172        1.8953  -13.5685  -38.9911 H         1 UNK         0.0600 
    173 H173        0.1389  -13.4276  -38.8970 H         1 UNK         0.0600 
    174 H174        1.0261  -12.5742  -41.0940 H         1 UNK         0.3000 
    175 H175       -0.2433  -12.0873  -44.0932 H         1 UNK         0.0600 
    176 H176        0.9522  -10.0552  -43.3309 H         1 UNK         0.0600 
    177 H177        0.1764  -10.8514  -41.9785 H         1 UNK         0.0600 
    178 H178        1.9209  -11.0008  -42.2092 H         1 UNK         0.0600 
    179 H179        1.3810  -11.9849  -45.5987 H         1 UNK         0.3000 
    180 H180        4.2243  -11.5651  -45.9656 H         1 UNK         0.0600 
    181 H181        4.7716  -14.5624  -45.5868 H         1 UNK         0.0600 
    182 H182        5.7540  -13.2335  -44.9840 H         1 UNK         0.0600 
    183 H183        5.6358  -13.5166  -46.7114 H         1 UNK         0.0600 
    184 H184        2.3243  -13.6583  -46.8290 H         1 UNK         0.3000 
    185 H185        1.7404  -11.9608  -49.8323 H         1 UNK         0.0600 
    186 H186        1.8882  -14.1738  -50.9223 H         1 UNK         0.0600 
    187 H187        3.5041  -13.5816  -50.5778 H         1 UNK         0.0600 
    188 H188        2.7941  -14.8256  -49.5560 H         1 UNK         0.0600 
    189 H189        0.3979  -14.1953  -49.0268 H         1 UNK         0.3000 
    190 H190       -1.2983  -23.7084  -47.5126 H         1 UNK         0.3000 
    191 H191       -3.1752  -21.7887  -46.3755 H         1 UNK         0.0600 
    192 H192       -2.6826  -23.2827  -44.4087 H         1 UNK         0.0600 
    193 H193       -4.3175  -23.5437  -44.9802 H         1 UNK         0.0600 
    194 H194       -3.0549  -24.7034  -45.3814 H         1 UNK         0.0600 
    195 H195       -5.4332  -22.4603  -46.8583 H         1 UNK         0.3000 
    196 H196       -5.7478  -23.3313  -49.5962 H         1 UNK         0.0600 
    197 H197       -8.1582  -22.9159  -49.1349 H         1 UNK         0.0600 
    198 H198       -7.1851  -21.5616  -48.5873 H         1 UNK         0.0600 
    199 H199       -7.8199  -22.7193  -47.4195 H         1 UNK         0.0600 
    200 H200       -5.9603  -24.9056  -46.4552 H         1 UNK         0.3000 
    201 H201       -7.4252  -27.2335  -47.1861 H         1 UNK         0.0600 
    202 H202       -7.0516  -26.5338  -44.8323 H         1 UNK         0.0600 
    203 H203       -5.3156  -26.8009  -44.9991 H         1 UNK         0.0600 
    204 H204       -6.4328  -28.1579  -45.0829 H         1 UNK         0.0600 
    205 H205       -4.0766  -26.3228  -47.6888 H         1 UNK         0.3000 
    206 H206       -3.2251  -28.9973  -48.6166 H         1 UNK         0.0600 
    207 H207       -1.7524  -26.3068  -48.4621 H         1 UNK         0.0600 
    208 H208       -1.6815  -27.5792  -47.2438 H         1 UNK         0.0600 
    209 H209       -1.0257  -27.8617  -48.8469 H         1 UNK         0.0600 
    210 H210       -5.0595  -26.5563  -49.9044 H         1 UNK         0.3000 
    211 H211       -5.6965  -25.7831  -51.8396 H         1 UNK         0.0600 
    212 H212       -4.0765  -27.9655  -53.2455 H         1 UNK         0.0600 
    213 H213       -5.3989  -27.0298  -53.9213 H         1 UNK         0.0600 
    214 H214       -5.7141  -28.1664  -52.6207 H         1 UNK         0.0600 
    215 H215       -2.7131  -25.3319  -50.7380 H         1 UNK         0.3000 
    216 H216       -1.2509  -24.2889  -52.9603 H         1 UNK         0.0600 
    217 H217       -0.9360  -23.8805  -49.9425 H         1 UNK         0.0600 
    218 H218        0.2502  -23.3951  -51.1536 H         1 UNK         0.0600 
    219 H219       -0.1256  -25.0967  -50.9245 H         1 UNK         0.0600 
    220 H220       -3.1561  -22.6966  -50.3508 H         1 UNK         0.3000 
    221 H221       -2.8088  -20.0442  -51.4206 H         1 UNK         0.0600 
    222 H222       -5.0329  -20.9872  -49.5523 H         1 UNK         0.0600 
    223 H223       -3.4156  -20.5412  -49.0057 H         1 UNK         0.0600 
    224 H224       -4.4466  -19.3491  -49.7752 H         1 UNK         0.0600 
    225 H225       -5.1999  -22.5933  -51.9689 H         1 UNK         0.3000 
    226 H226       -7.1274  -21.0494  -53.3954 H         1 UNK         0.0600 
    227 H227       -7.6143  -23.2969  -52.4268 H         1 UNK         0.0600 
    228 H228       -7.9724  -23.2537  -54.1460 H         1 UNK         0.0600 
    229 H229       -6.5122  -24.0485  -53.5803 H         1 UNK         0.0600 
    230 H230       -4.2834  -22.9624  -54.4897 H         1 UNK         0.3000 
    231 H231       -4.5592  -22.3414  -57.2719 H         1 UNK         0.0600 
    232 H232       -2.1290  -23.2450  -55.6372 H         1 UNK         0.0600 
    233 H233       -2.2291  -23.2412  -57.3950 H         1 UNK         0.0600 
    234 H234       -3.2790  -24.2959  -56.4595 H         1 UNK         0.0600 
    235 H235       -2.6367  -20.8471  -54.6268 H         1 UNK         0.3000 
    236 H236       -1.2190  -19.0449  -56.3145 H         1 UNK         0.0600 
    237 H237       -0.4715  -18.0649  -54.1276 H         1 UNK         0.0600 
    238 H238       -0.3314  -19.8173  -54.1520 H         1 UNK         0.0600 
    239 H239       -1.6712  -19.0528  -53.2985 H         1 UNK         0.0600 
    240 H240       -4.1467  -18.5354  -54.2498 H         1 UNK         0.3000 
    241 H241       -4.6628  -15.9735  -55.5987 H         1 UNK         0.0600 
    242 H242       -6.1343  -18.8052  -55.1520 H         1 UNK         0.3800 
    243 H243       -7.7346  -18.1958  -54.8459 H         1 UNK         0.3800 
    244 H244       -3.2278  -15.2461  -53.8173 H         1 UNK         0.0800 
    245 H245       -4.8407  -14.7369  -53.4464 H         1 UNK         0.0800 
    246 H246       -1.7312  -16.5017  -52.3218 H         1 UNK         0.0800 
    247 H247       -2.1568  -15.1335  -51.3163 H         1 UNK         0.0800 
@<TRIPOS>BOND
     1    1    2 1    
     2    1  127 1    
     3    1  128 1    
     4    1  129 1    
     5    2    3 2    
     6    2    4 am   BACKBONE|DICT|INTERRES
     7    4    5 1    
     8    4  130 1    
     9    5    6 1    
    10    5   65 1    
    11    5  131 1    
    12    6    7 1    
    13    6  132 1    
    14    6  133 1    
    15    7    8 1    
    16    8    9 1    
    17    8  134 1    
    18    8  135 1    
    19    9   10 ar   
    20    9   14 ar   
    21   10   11 ar   
    22   10  136 1    
    23   11   12 ar   
    24   11  126 1    
    25   12   13 ar   
    26   12  137 1    
    27   13   14 ar   
    28   13   15 1    
    29   14  138 1    
    30   15   16 1    
    31   15  139 1    
    32   15  140 1    
    33   16   17 1    
    34   17   18 1    
    35   17  141 1    
    36   17  142 1    
    37   18   19 1    
    38   18   67 1    
    39   18  143 1    
    40   19   20 am   BACKBONE|DICT|INTERRES
    41   19  144 1    
    42   20   21 2    
    43   20   22 1    
    44   22   23 1    
    45   22   24 1    
    46   22  145 1    
    47   23  146 1    
    48   23  147 1    
    49   23  148 1    
    50   24   25 am   BACKBONE|DICT|INTERRES
    51   24  149 1    
    52   25   26 2    
    53   25   27 1    
    54   27   28 1    
    55   27   29 1    
    56   27  150 1    
    57   28  151 1    
    58   28  152 1    
    59   28  153 1    
    60   29   30 am   BACKBONE|DICT|INTERRES
    61   29  154 1    
    62   30   31 2    
    63   30   32 1    
    64   32   33 1    
    65   32   34 1    
    66   32  155 1    
    67   33  156 1    
    68   33  157 1    
    69   33  158 1    
    70   34   35 am   BACKBONE|DICT|INTERRES
    71   34  159 1    
    72   35   36 2    
    73   35   37 1    
    74   37   38 1    
    75   37   39 1    
    76   37  160 1    
    77   38  161 1    
    78   38  162 1    
    79   38  163 1    
    80   39   40 am   BACKBONE|DICT|INTERRES
    81   39  164 1    
    82   40   41 2    
    83   40   42 1    
    84   42   43 1    
    85   42   44 1    
    86   42  165 1    
    87   43  166 1    
    88   43  167 1    
    89   43  168 1    
    90   44   45 am   BACKBONE|DICT|INTERRES
    91   44  169 1    
    92   45   46 2    
    93   45   47 1    
    94   47   48 1    
    95   47   49 1    
    96   47  170 1    
    97   48  171 1    
    98   48  172 1    
    99   48  173 1    
   100   49   50 am   BACKBONE|DICT|INTERRES
   101   49  174 1    
   102   50   51 2    
   103   50   52 1    
   104   52   53 1    
   105   52   54 1    
   106   52  175 1    
   107   53  176 1    
   108   53  177 1    
   109   53  178 1    
   110   54   55 am   BACKBONE|DICT|INTERRES
   111   54  179 1    
   112   55   56 2    
   113   55   57 1    
   114   57   58 1    
   115   57   59 1    
   116   57  180 1    
   117   58  181 1    
   118   58  182 1    
   119   58  183 1    
   120   59   60 am   BACKBONE|DICT|INTERRES
   121   59  184 1    
   122   60   61 2    
   123   60   62 1    
   124   62   63 1    
   125   62   64 1    
   126   62  185 1    
   127   63  186 1    
   128   63  187 1    
   129   63  188 1    
   130   64   65 am   BACKBONE|DICT|INTERRES
   131   64  189 1    
   132   65   66 2    
   133   67   68 2    
   134   67   69 am   BACKBONE|DICT|INTERRES
   135   69   70 1    
   136   69  190 1    
   137   70   71 1    
   138   70   72 1    
   139   70  191 1    
   140   71  192 1    
   141   71  193 1    
   142   71  194 1    
   143   72   73 2    
   144   72   74 am   BACKBONE|DICT|INTERRES
   145   74   75 1    
   146   74  195 1    
   147   75   76 1    
   148   75   77 1    
   149   75  196 1    
   150   76  197 1    
   151   76  198 1    
   152   76  199 1    
   153   77   78 2    
   154   77   79 am   BACKBONE|DICT|INTERRES
   155   79   80 1    
   156   79  200 1    
   157   80   81 1    
   158   80   82 1    
   159   80  201 1    
   160   81  202 1    
   161   81  203 1    
   162   81  204 1    
   163   82   83 2    
   164   82   84 am   BACKBONE|DICT|INTERRES
   165   84   85 1    
   166   84  205 1    
   167   85   86 1    
   168   85   87 1    
   169   85  206 1    
   170   86  207 1    
   171   86  208 1    
   172   86  209 1    
   173   87   88 2    
   174   87   89 am   BACKBONE|DICT|INTERRES
   175   89   90 1    
   176   89  210 1    
   177   90   91 1    
   178   90   92 1    
   179   90  211 1    
   180   91  212 1    
   181   91  213 1    
   182   91  214 1    
   183   92   93 2    
   184   92   94 am   BACKBONE|DICT|INTERRES
   185   94   95 1    
   186   94  215 1    
   187   95   96 1    
   188   95   97 1    
   189   95  216 1    
   190   96  217 1    
   191   96  218 1    
   192   96  219 1    
   193   97   98 2    
   194   97   99 am   BACKBONE|DICT|INTERRES
   195   99  100 1    
   196   99  220 1    
   197  100  101 1    
   198  100  102 1    
   199  100  221 1    
   200  101  222 1    
   201  101  223 1    
   202  101  224 1    
   203  102  103 2    
   204  102  104 am   BACKBONE|DICT|INTERRES
   205  104  105 1    
   206  104  225 1    
   207  105  106 1    
   208  105  107 1    
   209  105  226 1    
   210  106  227 1    
   211  106  228 1    
   212  106  229 1    
   213  107  108 2    
   214  107  109 am   BACKBONE|DICT|INTERRES
   215  109  110 1    
   216  109  230 1    
   217  110  111 1    
   218  110  112 1    
   219  110  231 1    
   220  111  232 1    
   221  111  233 1    
   222  111  234 1    
   223  112  113 2    
   224  112  114 am   BACKBONE|DICT|INTERRES
   225  114  115 1    
   226  114  235 1    
   227  115  116 1    
   228  115  117 1    
   229  115  236 1    
   230  116  237 1    
   231  116  238 1    
   232  116  239 1    
   233  117  118 2    
   234  117  119 am   BACKBONE|DICT|INTERRES
   235  119  120 1    
   236  119  240 1    
   237  120  121 1    
   238  120  124 1    
   239  120  241 1    
   240  121  122 am   BACKBONE|DICT|INTERRES
   241  121  123 2    
   242  122  242 1    
   243  122  243 1    
   244  124  125 1    
   245  124  244 1    
   246  124  245 1    
   247  125  126 1    
   248  126  246 1    
   249  126  247 1    
@<TRIPOS>SUBSTRUCTURE
     1 UNK         1 GROUP             0       ****    0 ROOT    
