@<TRIPOS>MOLECULE
3R540
247   249    1
SMALL
USER_CHARGES


@<TRIPOS>ATOM
      1 CA          1.1838  -10.7410  -44.4580 C.3       0 UNK        -0.1800 
      2 C           1.9484  -10.3816  -45.7246 C.2       0 UNK         0.5000 
      3 O           1.4935   -9.5389  -46.4987 O.2       0 UNK        -0.5000 
      4 N           3.1026  -11.0162  -45.9365 N.am      1 UNK        -0.5000 
      5 CA          3.9721  -10.8388  -47.0979 C.3       1 UNK         0.1400 
      6 C6          3.4483  -11.5789  -48.3635 C.3       23 UNK        -0.0398 
      7 S7          3.1152  -13.3647  -48.1256 S.3       23 UNK        -0.2404 
      8 C8          3.7595  -14.0641  -49.6751 C.3       23 UNK        -0.0205 
      9 C9          3.1482  -15.4276  -49.9538 C.ar      23 UNK        -0.0193 
     10 C10         1.9681  -15.5209  -50.6953 C.ar      23 UNK        -0.1150 
     11 C11         1.4025  -16.7669  -50.9715 C.ar      23 UNK        -0.0193 
     12 C12         2.0283  -17.9259  -50.5060 C.ar      23 UNK        -0.1150 
     13 C13         3.2071  -17.8517  -49.7505 C.ar      23 UNK        -0.0193 
     14 C14         3.7585  -16.5935  -49.4816 C.ar      23 UNK        -0.1150 
     15 C15         3.9337  -19.0934  -49.2258 C.3       23 UNK        -0.0205 
     16 S16         2.9654  -20.6445  -49.2021 S.3       23 UNK        -0.2404 
     17 C17         1.7335  -20.2598  -47.9149 C.3       23 UNK        -0.0398 
     18 CA          0.4971  -21.1906  -47.9349 C.3       11 UNK         0.1400 
     19 N          -0.2778  -21.0612  -46.7004 N.am      11 UNK        -0.5000 
     20 C          -1.2994  -21.8419  -46.3248 C.2       10 UNK         0.5000 
     21 O          -1.6884  -22.8208  -46.9609 O.2       10 UNK        -0.5000 
     22 CA         -2.0442  -21.4263  -45.0426 C.3       10 UNK         0.1400 
     23 CB         -1.2954  -21.9073  -43.7913 C.3       10 UNK        -0.1800 
     24 N          -2.2625  -19.9796  -44.9670 N.am      10 UNK        -0.5000 
     25 C          -3.0216  -19.2902  -45.8317 C.2       9 UNK         0.5000 
     26 O          -3.6579  -19.8145  -46.7461 O.2       9 UNK        -0.5000 
     27 CA         -3.0363  -17.7578  -45.6837 C.3       9 UNK         0.1400 
     28 CB         -3.9841  -17.3251  -44.5556 C.3       9 UNK        -0.1800 
     29 N          -1.7025  -17.1989  -45.4553 N.am      9 UNK        -0.5000 
     30 C          -0.6949  -17.2607  -46.3391 C.2       8 UNK         0.5000 
     31 O          -0.8003  -17.7556  -47.4593 O.2       8 UNK        -0.5000 
     32 CA          0.6758  -16.7381  -45.8769 C.3       8 UNK         0.1400 
     33 CB          0.7352  -15.2058  -45.9663 C.3       8 UNK        -0.1800 
     34 N           0.9966  -17.1627  -44.5162 N.am      8 UNK        -0.5000 
     35 C           1.1318  -18.4299  -44.1062 C.2       7 UNK         0.5000 
     36 O           1.0572  -19.4012  -44.8548 O.2       7 UNK        -0.5000 
     37 CA          1.3234  -18.6541  -42.5974 C.3       7 UNK         0.1400 
     38 CB          2.7896  -18.4621  -42.1823 C.3       7 UNK        -0.1800 
     39 N           0.4682  -17.7735  -41.8037 N.am      7 UNK        -0.5000 
     40 C          -0.8622  -17.8941  -41.7076 C.2       6 UNK         0.5000 
     41 O          -1.5091  -18.7856  -42.2586 O.2       6 UNK        -0.5000 
     42 CA         -1.5906  -16.8187  -40.8793 C.3       6 UNK         0.1400 
     43 CB         -1.5377  -17.1600  -39.3827 C.3       6 UNK        -0.1800 
     44 N          -1.0451  -15.4753  -41.0907 N.am      6 UNK        -0.5000 
     45 C          -1.1777  -14.7868  -42.2325 C.2       5 UNK         0.5000 
     46 O          -1.7871  -15.2091  -43.2153 O.2       5 UNK        -0.5000 
     47 CA         -0.4735  -13.4166  -42.3104 C.3       5 UNK         0.1400 
     48 CB         -1.3380  -12.3241  -41.6643 C.3       5 UNK        -0.1800 
     49 N           0.8801  -13.3683  -41.7391 N.am      5 UNK        -0.5000 
     50 C           1.8795  -14.1968  -42.0684 C.2       4 UNK         0.5000 
     51 O           1.7242  -15.2027  -42.7582 O.2       4 UNK        -0.5000 
     52 CA          3.2870  -13.8715  -41.5337 C.3       4 UNK         0.1400 
     53 CB          3.4591  -14.4337  -40.1146 C.3       4 UNK        -0.1800 
     54 N           4.3238  -14.4458  -42.3990 N.am      4 UNK        -0.5000 
     55 C           4.5317  -14.0824  -43.6715 C.2       3 UNK         0.5000 
     56 O           3.9778  -13.1157  -44.2041 O.2       3 UNK        -0.5000 
     57 CA          5.4796  -14.9737  -44.4936 C.3       3 UNK         0.1400 
     58 CB          4.7339  -16.2171  -45.0077 C.3       3 UNK        -0.1800 
     59 N           5.9586  -14.2252  -45.6491 N.am      3 UNK        -0.5000 
     60 C           7.1636  -13.6563  -45.7717 C.2       2 UNK         0.5000 
     61 O           8.0934  -13.8306  -44.9830 O.2       2 UNK        -0.5000 
     62 CA          7.3471  -12.7061  -46.9742 C.3       2 UNK         0.1400 
     63 CB          7.9489  -13.4598  -48.1701 C.3       2 UNK        -0.1800 
     64 N           6.0839  -12.0871  -47.3868 N.am      2 UNK        -0.5000 
     65 C           5.4092  -11.1846  -46.6606 C.2       1 UNK         0.5000 
     66 O           5.8758  -10.6462  -45.6539 O.2       1 UNK        -0.5000 
     67 C          -0.3842  -20.9810  -49.1857 C.2       11 UNK         0.5000 
     68 O          -0.3128  -21.7872  -50.1136 O.2       11 UNK        -0.5000 
     69 N          -1.2460  -19.9515  -49.1693 N.am      12 UNK        -0.5000 
     70 CA         -2.2346  -19.6749  -50.2148 C.3       12 UNK         0.1400 
     71 CB         -2.9679  -18.3556  -49.9216 C.3       12 UNK        -0.1800 
     72 C          -3.2450  -20.8187  -50.3972 C.2       12 UNK         0.5000 
     73 O          -3.5558  -21.1743  -51.5329 O.2       12 UNK        -0.5000 
     74 N          -3.6891  -21.4008  -49.2779 N.am      13 UNK        -0.5000 
     75 CA         -4.5582  -22.5752  -49.2153 C.3       13 UNK         0.1400 
     76 CB         -5.2211  -22.6020  -47.8298 C.3       13 UNK        -0.1800 
     77 C          -3.8320  -23.9092  -49.4983 C.2       13 UNK         0.5000 
     78 O          -4.4622  -24.9643  -49.3876 O.2       13 UNK        -0.5000 
     79 N          -2.5271  -23.8579  -49.8121 N.am      14 UNK        -0.5000 
     80 CA         -1.6241  -24.9741  -50.1205 C.3       14 UNK         0.1400 
     81 CB         -2.0454  -25.6424  -51.4458 C.3       14 UNK        -0.1800 
     82 C          -1.4760  -25.9964  -48.9723 C.2       14 UNK         0.5000 
     83 O          -1.1152  -27.1472  -49.2236 O.2       14 UNK        -0.5000 
     84 N          -1.7971  -25.5682  -47.7408 N.am      15 UNK        -0.5000 
     85 CA         -1.9555  -26.3674  -46.5207 C.3       15 UNK         0.1400 
     86 CB         -0.5854  -26.8773  -46.0301 C.3       15 UNK        -0.1800 
     87 C          -3.0052  -27.4988  -46.6504 C.2       15 UNK         0.5000 
     88 O          -2.9391  -28.4790  -45.9063 O.2       15 UNK        -0.5000 
     89 N          -3.9448  -27.3527  -47.5958 N.am      16 UNK        -0.5000 
     90 CA         -4.8926  -28.3892  -48.0100 C.3       16 UNK         0.1400 
     91 CB         -4.3967  -28.9912  -49.3375 C.3       16 UNK        -0.1800 
     92 C          -6.3308  -27.8566  -48.1455 C.2       16 UNK         0.5000 
     93 O          -7.1961  -28.5921  -48.6230 O.2       16 UNK        -0.5000 
     94 N          -6.5630  -26.5970  -47.7426 N.am      17 UNK        -0.5000 
     95 CA         -7.8176  -25.8452  -47.8797 C.3       17 UNK         0.1400 
     96 CB         -8.9365  -26.4689  -47.0179 C.3       17 UNK        -0.1800 
     97 C          -8.2280  -25.6380  -49.3554 C.2       17 UNK         0.5000 
     98 O          -9.4164  -25.6894  -49.6795 O.2       17 UNK        -0.5000 
     99 N          -7.2322  -25.4265  -50.2290 N.am      18 UNK        -0.5000 
    100 CA        -7.4120  -25.2189  -51.6649 C.3       18 UNK         0.1400 
    101 CB        -6.0411  -25.2616  -52.3591 C.3       18 UNK        -0.1800 
    102 C         -8.1268  -23.8900  -51.9694 C.2       18 UNK         0.5000 
    103 O         -7.7768  -22.8598  -51.3891 O.2       18 UNK        -0.5000 
    104 N         -9.0947  -23.9368  -52.8939 N.am      19 UNK        -0.5000 
    105 CA        -9.8544  -22.7719  -53.3575 C.3       19 UNK         0.1400 
    106 CB       -11.1465  -23.2534  -54.0350 C.3       19 UNK        -0.1800 
    107 C         -9.0477  -21.8733  -54.3144 C.2       19 UNK         0.5000 
    108 O         -9.3265  -20.6767  -54.4071 O.2       19 UNK        -0.5000 
    109 N         -8.0555  -22.4575  -55.0001 N.am      20 UNK        -0.5000 
    110 CA        -7.1108  -21.7748  -55.8819 C.3       20 UNK         0.1400 
    111 CB        -6.5229  -22.8026  -56.8655 C.3       20 UNK        -0.1800 
    112 C         -6.0255  -21.0614  -55.0528 C.2       20 UNK         0.5000 
    113 O         -4.8854  -21.5274  -54.9950 O.2       20 UNK        -0.5000 
    114 N         -6.4252  -19.9680  -54.3901 N.am      21 UNK        -0.5000 
    115 CA        -5.6204  -19.1586  -53.4759 C.3       21 UNK         0.1400 
    116 CB        -6.4665  -17.9789  -52.9708 C.3       21 UNK        -0.1800 
    117 C         -4.3035  -18.6712  -54.1104 C.2       21 UNK         0.5000 
    118 O         -4.3311  -17.8148  -54.9965 O.2       21 UNK        -0.5000 
    119 N         -3.1867  -19.2467  -53.6508 N.am      22 UNK        -0.5000 
    120 CA        -1.8216  -19.0210  -54.1554 C.3       22 UNK         0.1400 
    121 C         -1.5409  -19.6449  -55.5590 C.2       22 UNK         0.5000 
    122 N         -2.3693  -20.5540  -56.0603 N.am      22 UNK        -0.7600 
    123 O         -0.5432  -19.3256  -56.1996 O.2       22 UNK        -0.5000 
    124 C124       -1.3735  -17.5317  -54.0333 C.3       23 UNK        -0.0398 
    125 S125        0.3575  -17.3467  -53.4777 S.3       23 UNK        -0.2404 
    126 C126        0.0982  -16.8643  -51.7440 C.3       23 UNK        -0.0205 
    127 H127        1.6946  -11.5161  -43.8867 H         1 UNK         0.0600 
    128 H128        0.1887  -11.1057  -44.7119 H         1 UNK         0.0600 
    129 H129        1.0756   -9.8637  -43.8206 H         1 UNK         0.0600 
    130 H130        3.4376  -11.6994  -45.2572 H         1 UNK         0.3000 
    131 H131        4.0014   -9.7732  -47.3347 H         1 UNK         0.0600 
    132 H132        2.5103  -11.1199  -48.6783 H         1 UNK         0.0800 
    133 H133        4.1297  -11.4262  -49.2017 H         1 UNK         0.0800 
    134 H134        3.5356  -13.3913  -50.5047 H         1 UNK         0.0800 
    135 H135        4.8463  -14.1401  -49.6226 H         1 UNK         0.0800 
    136 H136        1.4874  -14.6211  -51.0531 H         1 UNK         0.1150 
    137 H137        1.5826  -18.8815  -50.7395 H         1 UNK         0.1150 
    138 H138        4.6704  -16.5199  -48.9053 H         1 UNK         0.1150 
    139 H139        4.8172  -19.2550  -49.8446 H         1 UNK         0.0800 
    140 H140        4.2972  -18.9019  -48.2148 H         1 UNK         0.0800 
    141 H141        1.4289  -19.2155  -47.9891 H         1 UNK         0.0800 
    142 H142        2.2497  -20.3549  -46.9592 H         1 UNK         0.0800 
    143 H143        0.8571  -22.2214  -47.9643 H         1 UNK         0.0600 
    144 H144        0.0113  -20.3151  -46.0719 H         1 UNK         0.3000 
    145 H145       -3.0227  -21.9105  -45.0568 H         1 UNK         0.0600 
    146 H146       -1.8516  -21.6698  -42.8843 H         1 UNK         0.0600 
    147 H147       -1.1537  -22.9885  -43.8136 H         1 UNK         0.0600 
    148 H148       -0.3101  -21.4488  -43.7074 H         1 UNK         0.0600 
    149 H149       -1.7996  -19.4834  -44.2132 H         1 UNK         0.3000 
    150 H150       -3.4143  -17.3407  -46.6193 H         1 UNK         0.0600 
    151 H151       -4.9860  -17.7271  -44.7110 H         1 UNK         0.0600 
    152 H152       -4.0730  -16.2395  -44.5119 H         1 UNK         0.0600 
    153 H153       -3.6381  -17.6709  -43.5814 H         1 UNK         0.0600 
    154 H154       -1.5511  -16.7286  -44.5692 H         1 UNK         0.3000 
    155 H155        1.4377  -17.1483  -46.5428 H         1 UNK         0.0600 
    156 H156        0.5567  -14.8694  -46.9884 H         1 UNK         0.0600 
    157 H157        1.7118  -14.8268  -45.6651 H         1 UNK         0.0600 
    158 H158       -0.0130  -14.7346  -45.3291 H         1 UNK         0.0600 
    159 H159        1.1303  -16.4200  -43.8297 H         1 UNK         0.3000 
    160 H160        1.0462  -19.6879  -42.3804 H         1 UNK         0.0600 
    161 H161        3.1082  -17.4255  -42.2859 H         1 UNK         0.0600 
    162 H162        3.4535  -19.0751  -42.7933 H         1 UNK         0.0600 
    163 H163        2.9430  -18.7532  -41.1432 H         1 UNK         0.0600 
    164 H164        0.9102  -16.9616  -41.3977 H         1 UNK         0.3000 
    165 H165       -2.6379  -16.8153  -41.1893 H         1 UNK         0.0600 
    166 H166       -2.1182  -16.4481  -38.7955 H         1 UNK         0.0600 
    167 H167       -1.9534  -18.1507  -39.1939 H         1 UNK         0.0600 
    168 H168       -0.5154  -17.1548  -39.0025 H         1 UNK         0.0600 
    169 H169       -0.5186  -15.0640  -40.3341 H         1 UNK         0.3000 
    170 H170       -0.3747  -13.1778  -43.3708 H         1 UNK         0.0600 
    171 H171       -2.3460  -12.3247  -42.0815 H         1 UNK         0.0600 
    172 H172       -1.4280  -12.4667  -40.5868 H         1 UNK         0.0600 
    173 H173       -0.9175  -11.3336  -41.8391 H         1 UNK         0.0600 
    174 H174        1.0801  -12.5821  -41.1379 H         1 UNK         0.3000 
    175 H175        3.4137  -12.7873  -41.5107 H         1 UNK         0.0600 
    176 H176        3.3392  -15.5179  -40.0936 H         1 UNK         0.0600 
    177 H177        4.4450  -14.1974  -39.7139 H         1 UNK         0.0600 
    178 H178        2.7225  -14.0088  -39.4315 H         1 UNK         0.0600 
    179 H179        4.7949  -15.2642  -42.0438 H         1 UNK         0.3000 
    180 H180        6.3126  -15.2884  -43.8617 H         1 UNK         0.0600 
    181 H181        5.3895  -16.8499  -45.6060 H         1 UNK         0.0600 
    182 H182        3.8768  -15.9480  -45.6262 H         1 UNK         0.0600 
    183 H183        4.3637  -16.8244  -44.1828 H         1 UNK         0.0600 
    184 H184        5.2434  -13.9588  -46.3102 H         1 UNK         0.3000 
    185 H185        8.0413  -11.9170  -46.6773 H         1 UNK         0.0600 
    186 H186        7.2944  -14.2626  -48.5124 H         1 UNK         0.0600 
    187 H187        8.1271  -12.7890  -49.0108 H         1 UNK         0.0600 
    188 H188        8.9071  -13.9087  -47.9050 H         1 UNK         0.0600 
    189 H189        5.6383  -12.4802  -48.2020 H         1 UNK         0.3000 
    190 H190       -1.2088  -19.2899  -48.3964 H         1 UNK         0.3000 
    191 H191       -1.6883  -19.5684  -51.1517 H         1 UNK         0.0600 
    192 H192       -3.5869  -18.4280  -49.0276 H         1 UNK         0.0600 
    193 H193       -2.2735  -17.5302  -49.7703 H         1 UNK         0.0600 
    194 H194       -3.6225  -18.0825  -50.7500 H         1 UNK         0.0600 
    195 H195       -3.4097  -21.0040  -48.3859 H         1 UNK         0.3000 
    196 H196       -5.3416  -22.4701  -49.9686 H         1 UNK         0.0600 
    197 H197       -5.7735  -21.6817  -47.6392 H         1 UNK         0.0600 
    198 H198       -5.9279  -23.4243  -47.7480 H         1 UNK         0.0600 
    199 H199       -4.4850  -22.7208  -47.0343 H         1 UNK         0.0600 
    200 H200       -2.0861  -22.9463  -49.8357 H         1 UNK         0.3000 
    201 H201       -0.6359  -24.5368  -50.2662 H         1 UNK         0.0600 
    202 H202       -1.2996  -26.3662  -51.7758 H         1 UNK         0.0600 
    203 H203       -2.1545  -24.9054  -52.2416 H         1 UNK         0.0600 
    204 H204       -2.9935  -26.1720  -51.3474 H         1 UNK         0.0600 
    205 H205       -1.9949  -24.5760  -47.6304 H         1 UNK         0.3000 
    206 H206       -2.3428  -25.6840  -45.7639 H         1 UNK         0.0600 
    207 H207        0.1282  -26.0585  -45.9372 H         1 UNK         0.0600 
    208 H208       -0.1619  -27.6165  -46.7105 H         1 UNK         0.0600 
    209 H209       -0.6685  -27.3455  -45.0487 H         1 UNK         0.0600 
    210 H210       -3.9237  -26.5197  -48.1762 H         1 UNK         0.3000 
    211 H211       -4.9345  -29.1855  -47.2646 H         1 UNK         0.0600 
    212 H212       -3.3900  -29.3968  -49.2337 H         1 UNK         0.0600 
    213 H213       -5.0407  -29.8059  -49.6703 H         1 UNK         0.0600 
    214 H214       -4.3734  -28.2419  -50.1301 H         1 UNK         0.0600 
    215 H215       -5.7802  -26.0795  -47.3703 H         1 UNK         0.3000 
    216 H216       -7.6309  -24.8507  -47.4769 H         1 UNK         0.0600 
    217 H217       -9.8175  -25.8264  -46.9991 H         1 UNK         0.0600 
    218 H218       -9.2521  -27.4407  -47.3982 H         1 UNK         0.0600 
    219 H219       -8.6117  -26.6015  -45.9860 H         1 UNK         0.0600 
    220 H220       -6.2789  -25.3755  -49.8821 H         1 UNK         0.3000 
    221 H221       -8.0149  -26.0456  -52.0465 H         1 UNK         0.0600 
    222 H222       -5.4031  -24.4348  -52.0448 H         1 UNK         0.0600 
    223 H223       -5.5155  -26.1915  -52.1411 H         1 UNK         0.0600 
    224 H224       -6.1494  -25.1944  -53.4423 H         1 UNK         0.0600 
    225 H225       -9.3334  -24.8243  -53.3129 H         1 UNK         0.3000 
    226 H226      -10.1295  -22.1674  -52.4904 H         1 UNK         0.0600 
    227 H227      -11.7590  -23.8363  -53.3468 H         1 UNK         0.0600 
    228 H228      -11.7503  -22.4085  -54.3691 H         1 UNK         0.0600 
    229 H229      -10.9379  -23.8732  -54.9079 H         1 UNK         0.0600 
    230 H230       -7.8853  -23.4386  -54.8392 H         1 UNK         0.3000 
    231 H231       -7.6412  -21.0189  -56.4651 H         1 UNK         0.0600 
    232 H232       -5.8088  -22.3307  -57.5415 H         1 UNK         0.0600 
    233 H233       -7.3040  -23.2504  -57.4801 H         1 UNK         0.0600 
    234 H234       -6.0017  -23.6085  -56.3469 H         1 UNK         0.0600 
    235 H235       -7.4011  -19.7097  -54.4728 H         1 UNK         0.3000 
    236 H236       -5.3913  -19.7848  -52.6139 H         1 UNK         0.0600 
    237 H237       -5.8969  -17.3594  -52.2768 H         1 UNK         0.0600 
    238 H238       -6.7955  -17.3384  -53.7901 H         1 UNK         0.0600 
    239 H239       -7.3534  -18.3279  -52.4413 H         1 UNK         0.0600 
    240 H240       -3.2871  -20.0030  -52.9775 H         1 UNK         0.3000 
    241 H241       -1.1994  -19.6104  -53.4818 H         1 UNK         0.0600 
    242 H242       -2.1698  -20.9568  -56.9617 H         1 UNK         0.3800 
    243 H243       -3.2011  -20.8492  -55.5547 H         1 UNK         0.3800 
    244 H244       -1.5008  -17.0041  -54.9802 H         1 UNK         0.0800 
    245 H245       -2.0109  -16.9983  -53.3269 H         1 UNK         0.0800 
    246 H246       -0.4419  -15.9170  -51.7049 H         1 UNK         0.0800 
    247 H247       -0.5364  -17.6026  -51.2615 H         1 UNK         0.0800 
@<TRIPOS>BOND
     1    1    2 1    
     2    1  127 1    
     3    1  128 1    
     4    1  129 1    
     5    2    3 2    
     6    2    4 am   BACKBONE|DICT|INTERRES
     7    4    5 1    
     8    4  130 1    
     9    5    6 1    
    10    5   65 1    
    11    5  131 1    
    12    6    7 1    
    13    6  132 1    
    14    6  133 1    
    15    7    8 1    
    16    8    9 1    
    17    8  134 1    
    18    8  135 1    
    19    9   10 ar   
    20    9   14 ar   
    21   10   11 ar   
    22   10  136 1    
    23   11   12 ar   
    24   11  126 1    
    25   12   13 ar   
    26   12  137 1    
    27   13   14 ar   
    28   13   15 1    
    29   14  138 1    
    30   15   16 1    
    31   15  139 1    
    32   15  140 1    
    33   16   17 1    
    34   17   18 1    
    35   17  141 1    
    36   17  142 1    
    37   18   19 1    
    38   18   67 1    
    39   18  143 1    
    40   19   20 am   BACKBONE|DICT|INTERRES
    41   19  144 1    
    42   20   21 2    
    43   20   22 1    
    44   22   23 1    
    45   22   24 1    
    46   22  145 1    
    47   23  146 1    
    48   23  147 1    
    49   23  148 1    
    50   24   25 am   BACKBONE|DICT|INTERRES
    51   24  149 1    
    52   25   26 2    
    53   25   27 1    
    54   27   28 1    
    55   27   29 1    
    56   27  150 1    
    57   28  151 1    
    58   28  152 1    
    59   28  153 1    
    60   29   30 am   BACKBONE|DICT|INTERRES
    61   29  154 1    
    62   30   31 2    
    63   30   32 1    
    64   32   33 1    
    65   32   34 1    
    66   32  155 1    
    67   33  156 1    
    68   33  157 1    
    69   33  158 1    
    70   34   35 am   BACKBONE|DICT|INTERRES
    71   34  159 1    
    72   35   36 2    
    73   35   37 1    
    74   37   38 1    
    75   37   39 1    
    76   37  160 1    
    77   38  161 1    
    78   38  162 1    
    79   38  163 1    
    80   39   40 am   BACKBONE|DICT|INTERRES
    81   39  164 1    
    82   40   41 2    
    83   40   42 1    
    84   42   43 1    
    85   42   44 1    
    86   42  165 1    
    87   43  166 1    
    88   43  167 1    
    89   43  168 1    
    90   44   45 am   BACKBONE|DICT|INTERRES
    91   44  169 1    
    92   45   46 2    
    93   45   47 1    
    94   47   48 1    
    95   47   49 1    
    96   47  170 1    
    97   48  171 1    
    98   48  172 1    
    99   48  173 1    
   100   49   50 am   BACKBONE|DICT|INTERRES
   101   49  174 1    
   102   50   51 2    
   103   50   52 1    
   104   52   53 1    
   105   52   54 1    
   106   52  175 1    
   107   53  176 1    
   108   53  177 1    
   109   53  178 1    
   110   54   55 am   BACKBONE|DICT|INTERRES
   111   54  179 1    
   112   55   56 2    
   113   55   57 1    
   114   57   58 1    
   115   57   59 1    
   116   57  180 1    
   117   58  181 1    
   118   58  182 1    
   119   58  183 1    
   120   59   60 am   BACKBONE|DICT|INTERRES
   121   59  184 1    
   122   60   61 2    
   123   60   62 1    
   124   62   63 1    
   125   62   64 1    
   126   62  185 1    
   127   63  186 1    
   128   63  187 1    
   129   63  188 1    
   130   64   65 am   BACKBONE|DICT|INTERRES
   131   64  189 1    
   132   65   66 2    
   133   67   68 2    
   134   67   69 am   BACKBONE|DICT|INTERRES
   135   69   70 1    
   136   69  190 1    
   137   70   71 1    
   138   70   72 1    
   139   70  191 1    
   140   71  192 1    
   141   71  193 1    
   142   71  194 1    
   143   72   73 2    
   144   72   74 am   BACKBONE|DICT|INTERRES
   145   74   75 1    
   146   74  195 1    
   147   75   76 1    
   148   75   77 1    
   149   75  196 1    
   150   76  197 1    
   151   76  198 1    
   152   76  199 1    
   153   77   78 2    
   154   77   79 am   BACKBONE|DICT|INTERRES
   155   79   80 1    
   156   79  200 1    
   157   80   81 1    
   158   80   82 1    
   159   80  201 1    
   160   81  202 1    
   161   81  203 1    
   162   81  204 1    
   163   82   83 2    
   164   82   84 am   BACKBONE|DICT|INTERRES
   165   84   85 1    
   166   84  205 1    
   167   85   86 1    
   168   85   87 1    
   169   85  206 1    
   170   86  207 1    
   171   86  208 1    
   172   86  209 1    
   173   87   88 2    
   174   87   89 am   BACKBONE|DICT|INTERRES
   175   89   90 1    
   176   89  210 1    
   177   90   91 1    
   178   90   92 1    
   179   90  211 1    
   180   91  212 1    
   181   91  213 1    
   182   91  214 1    
   183   92   93 2    
   184   92   94 am   BACKBONE|DICT|INTERRES
   185   94   95 1    
   186   94  215 1    
   187   95   96 1    
   188   95   97 1    
   189   95  216 1    
   190   96  217 1    
   191   96  218 1    
   192   96  219 1    
   193   97   98 2    
   194   97   99 am   BACKBONE|DICT|INTERRES
   195   99  100 1    
   196   99  220 1    
   197  100  101 1    
   198  100  102 1    
   199  100  221 1    
   200  101  222 1    
   201  101  223 1    
   202  101  224 1    
   203  102  103 2    
   204  102  104 am   BACKBONE|DICT|INTERRES
   205  104  105 1    
   206  104  225 1    
   207  105  106 1    
   208  105  107 1    
   209  105  226 1    
   210  106  227 1    
   211  106  228 1    
   212  106  229 1    
   213  107  108 2    
   214  107  109 am   BACKBONE|DICT|INTERRES
   215  109  110 1    
   216  109  230 1    
   217  110  111 1    
   218  110  112 1    
   219  110  231 1    
   220  111  232 1    
   221  111  233 1    
   222  111  234 1    
   223  112  113 2    
   224  112  114 am   BACKBONE|DICT|INTERRES
   225  114  115 1    
   226  114  235 1    
   227  115  116 1    
   228  115  117 1    
   229  115  236 1    
   230  116  237 1    
   231  116  238 1    
   232  116  239 1    
   233  117  118 2    
   234  117  119 am   BACKBONE|DICT|INTERRES
   235  119  120 1    
   236  119  240 1    
   237  120  121 1    
   238  120  124 1    
   239  120  241 1    
   240  121  122 am   BACKBONE|DICT|INTERRES
   241  121  123 2    
   242  122  242 1    
   243  122  243 1    
   244  124  125 1    
   245  124  244 1    
   246  124  245 1    
   247  125  126 1    
   248  126  246 1    
   249  126  247 1    
@<TRIPOS>SUBSTRUCTURE
     1 UNK         1 GROUP             0       ****    0 ROOT    
