@<TRIPOS>MOLECULE
3R540
247   249    1
SMALL
USER_CHARGES


@<TRIPOS>ATOM
      1 CA         -4.7071  -13.5257  -52.1493 C.3       0 UNK        -0.1800 
      2 C          -3.5037  -13.7264  -51.2381 C.2       0 UNK         0.5000 
      3 O          -2.3643  -13.6430  -51.6972 O.2       0 UNK        -0.5000 
      4 N          -3.7525  -13.9834  -49.9513 N.am      1 UNK        -0.5000 
      5 CA         -2.7443  -14.2376  -48.9283 C.3       1 UNK         0.1400 
      6 C6         -2.2389  -15.7019  -48.9771 C.3       23 UNK        -0.0398 
      7 S7         -0.7192  -15.9661  -48.0027 S.3       23 UNK        -0.2404 
      8 C8          0.5691  -16.0174  -49.2825 C.3       23 UNK        -0.0205 
      9 C9          0.5000  -17.2919  -50.1083 C.ar      23 UNK        -0.0193 
     10 C10         0.0919  -17.2447  -51.4434 C.ar      23 UNK        -0.1150 
     11 C11         0.0568  -18.4083  -52.2154 C.ar      23 UNK        -0.0193 
     12 C12         0.3961  -19.6325  -51.6310 C.ar      23 UNK        -0.1150 
     13 C13         0.7945  -19.6962  -50.2921 C.ar      23 UNK        -0.0193 
     14 C14         0.8625  -18.5174  -49.5422 C.ar      23 UNK        -0.1150 
     15 C15         1.1641  -21.0359  -49.6685 C.3       23 UNK        -0.0205 
     16 S16         0.2098  -21.3690  -48.1549 S.3       23 UNK        -0.2404 
     17 C17         0.3813  -23.1818  -48.0312 C.3       23 UNK        -0.0398 
     18 CA         -0.1303  -23.7898  -46.6989 C.3       11 UNK         0.1400 
     19 N           0.7696  -23.4698  -45.5922 N.am      11 UNK        -0.5000 
     20 C           1.7094  -24.2912  -45.1106 C.2       10 UNK         0.5000 
     21 O           1.8924  -25.4383  -45.5244 O.2       10 UNK        -0.5000 
     22 CA          2.6029  -23.7178  -43.9937 C.3       10 UNK         0.1400 
     23 CB          3.6901  -24.6985  -43.5072 C.3       10 UNK        -0.1800 
     24 N           3.1922  -22.4332  -44.3723 N.am      10 UNK        -0.5000 
     25 C           4.0249  -22.1602  -45.3871 C.2       9 UNK         0.5000 
     26 O           4.4815  -23.0072  -46.1557 O.2       9 UNK        -0.5000 
     27 CA          4.4184  -20.6798  -45.5793 C.3       9 UNK         0.1400 
     28 CB          3.6495  -20.0720  -46.7625 C.3       9 UNK        -0.1800 
     29 N           4.1837  -19.8572  -44.3894 N.am      9 UNK        -0.5000 
     30 C           4.9070  -19.9121  -43.2622 C.2       8 UNK         0.5000 
     31 O           5.9175  -20.6036  -43.1310 O.2       8 UNK        -0.5000 
     32 CA          4.3893  -19.0878  -42.0675 C.3       8 UNK         0.1400 
     33 CB          4.8599  -17.6286  -42.1606 C.3       8 UNK        -0.1800 
     34 N           2.9297  -19.1301  -41.9437 N.am      8 UNK        -0.5000 
     35 C           2.2255  -20.2296  -41.6358 C.2       7 UNK         0.5000 
     36 O           2.7380  -21.3164  -41.3694 O.2       7 UNK        -0.5000 
     37 CA          0.6912  -20.1140  -41.6724 C.3       7 UNK         0.1400 
     38 CB          0.1571  -19.5222  -40.3599 C.3       7 UNK        -0.1800 
     39 N           0.2167  -19.3240  -42.8088 N.am      7 UNK        -0.5000 
     40 C           0.3349  -19.6985  -44.0913 C.2       6 UNK         0.5000 
     41 O           0.7903  -20.7860  -44.4409 O.2       6 UNK        -0.5000 
     42 CA         -0.0837  -18.6774  -45.1638 C.3       6 UNK         0.1400 
     43 CB         -1.5890  -18.7535  -45.4188 C.3       6 UNK        -0.1800 
     44 N           0.2724  -17.3059  -44.8095 N.am      6 UNK        -0.5000 
     45 C           1.5269  -16.8577  -44.6813 C.2       5 UNK         0.5000 
     46 O           2.5245  -17.5482  -44.8847 O.2       5 UNK        -0.5000 
     47 CA          1.6925  -15.4146  -44.1788 C.3       5 UNK         0.1400 
     48 CB          1.4979  -14.4008  -45.3162 C.3       5 UNK        -0.1800 
     49 N           0.7718  -15.1135  -43.0820 N.am      5 UNK        -0.5000 
     50 C           0.8690  -15.6364  -41.8516 C.2       4 UNK         0.5000 
     51 O           1.7638  -16.4081  -41.5068 O.2       4 UNK        -0.5000 
     52 CA         -0.2361  -15.2580  -40.8479 C.3       4 UNK         0.1400 
     53 CB          0.0758  -13.9089  -40.1833 C.3       4 UNK        -0.1800 
     54 N          -1.5634  -15.2003  -41.4623 N.am      4 UNK        -0.5000 
     55 C          -2.2247  -16.2673  -41.9323 C.2       3 UNK         0.5000 
     56 O          -1.7966  -17.4182  -41.8718 O.2       3 UNK        -0.5000 
     57 CA         -3.5647  -15.9966  -42.6413 C.3       3 UNK         0.1400 
     58 CB         -4.7221  -15.9561  -41.6336 C.3       3 UNK        -0.1800 
     59 N          -3.5662  -14.7718  -43.4468 N.am      3 UNK        -0.5000 
     60 C          -2.7483  -14.5642  -44.4860 C.2       2 UNK         0.5000 
     61 O          -1.8724  -15.3611  -44.8282 O.2       2 UNK        -0.5000 
     62 CA         -2.8890  -13.2274  -45.2303 C.3       2 UNK         0.1400 
     63 CB         -1.9557  -12.1748  -44.6120 C.3       2 UNK        -0.1800 
     64 N          -2.5343  -13.4085  -46.6355 N.am      2 UNK        -0.5000 
     65 C          -3.3679  -13.8840  -47.5669 C.2       1 UNK         0.5000 
     66 O          -4.5774  -14.0532  -47.3857 O.2       1 UNK        -0.5000 
     67 C          -1.5841  -23.3981  -46.3537 C.2       11 UNK         0.5000 
     68 O          -1.8307  -22.6973  -45.3693 O.2       11 UNK        -0.5000 
     69 N          -2.5289  -23.8599  -47.1846 N.am      12 UNK        -0.5000 
     70 CA         -3.9743  -23.6687  -47.0196 C.3       12 UNK         0.1400 
     71 CB         -4.7032  -24.7706  -47.8062 C.3       12 UNK        -0.1800 
     72 C          -4.4935  -22.2790  -47.4443 C.2       12 UNK         0.5000 
     73 O          -5.6956  -22.0273  -47.3282 O.2       12 UNK        -0.5000 
     74 N          -3.6090  -21.3957  -47.9328 N.am      13 UNK        -0.5000 
     75 CA         -3.9356  -20.0791  -48.4955 C.3       13 UNK         0.1400 
     76 CB         -2.6729  -19.4592  -49.1100 C.3       13 UNK        -0.1800 
     77 C          -4.6233  -19.0976  -47.5214 C.2       13 UNK         0.5000 
     78 O          -5.1770  -18.0991  -47.9758 O.2       13 UNK        -0.5000 
     79 N          -4.6336  -19.4160  -46.2187 N.am      14 UNK        -0.5000 
     80 CA         -5.4078  -18.7244  -45.1859 C.3       14 UNK         0.1400 
     81 CB         -5.0714  -19.3302  -43.8123 C.3       14 UNK        -0.1800 
     82 C          -6.9287  -18.8063  -45.4240 C.2       14 UNK         0.5000 
     83 O          -7.6442  -17.8606  -45.0929 O.2       14 UNK        -0.5000 
     84 N          -7.3838  -19.9320  -45.9908 N.am      15 UNK        -0.5000 
     85 CA         -8.7792  -20.1897  -46.3403 C.3       15 UNK         0.1400 
     86 CB         -9.2180  -21.5146  -45.6968 C.3       15 UNK        -0.1800 
     87 C          -8.9675  -20.2494  -47.8641 C.2       15 UNK         0.5000 
     88 O          -9.9790  -19.7615  -48.3685 O.2       15 UNK        -0.5000 
     89 N          -7.9988  -20.8458  -48.5728 N.am      16 UNK        -0.5000 
     90 CA         -8.0610  -21.0938  -50.0141 C.3       16 UNK         0.1400 
     91 CB         -7.1523  -22.2913  -50.3367 C.3       16 UNK        -0.1800 
     92 C          -7.6813  -19.8765  -50.8813 C.2       16 UNK         0.5000 
     93 O          -7.8493  -19.9423  -52.0987 O.2       16 UNK        -0.5000 
     94 N          -7.1366  -18.8149  -50.2663 N.am      17 UNK        -0.5000 
     95 CA         -6.5769  -17.5852  -50.8552 C.3       17 UNK         0.1400 
     96 CB         -7.5984  -16.8445  -51.7392 C.3       17 UNK        -0.1800 
     97 C          -5.2391  -17.7949  -51.5945 C.2       17 UNK         0.5000 
     98 O          -4.3657  -16.9333  -51.5170 O.2       17 UNK        -0.5000 
     99 N          -5.0815  -18.9389  -52.2623 N.am      18 UNK        -0.5000 
    100 CA        -3.8533  -19.4242  -52.8727 C.3       18 UNK         0.1400 
    101 CB        -3.8348  -19.0499  -54.3633 C.3       18 UNK        -0.1800 
    102 C         -3.8140  -20.9446  -52.6793 C.2       18 UNK         0.5000 
    103 O         -4.8706  -21.5790  -52.6458 O.2       18 UNK        -0.5000 
    104 N         -2.6083  -21.5047  -52.5524 N.am      19 UNK        -0.5000 
    105 CA        -2.3940  -22.9194  -52.2667 C.3       19 UNK         0.1400 
    106 CB        -2.3849  -23.1402  -50.7445 C.3       19 UNK        -0.1800 
    107 C         -1.1105  -23.3957  -52.9577 C.2       19 UNK         0.5000 
    108 O         -0.0731  -23.5388  -52.3094 O.2       19 UNK        -0.5000 
    109 N         -1.2134  -23.6016  -54.2776 N.am      20 UNK        -0.5000 
    110 CA        -0.2541  -24.2248  -55.2035 C.3       20 UNK         0.1400 
    111 CB         0.0342  -25.6817  -54.7944 C.3       20 UNK        -0.1800 
    112 C          1.0638  -23.4636  -55.4486 C.2       20 UNK         0.5000 
    113 O          1.5245  -23.4254  -56.5906 O.2       20 UNK        -0.5000 
    114 N          1.6479  -22.8685  -54.4012 N.am      21 UNK        -0.5000 
    115 CA         2.9630  -22.2154  -54.4102 C.3       21 UNK         0.1400 
    116 CB         3.3250  -21.7932  -52.9780 C.3       21 UNK        -0.1800 
    117 C          3.0819  -21.0176  -55.3748 C.2       21 UNK         0.5000 
    118 O          4.1889  -20.7042  -55.8149 O.2       21 UNK        -0.5000 
    119 N          1.9452  -20.3905  -55.6983 N.am      22 UNK        -0.5000 
    120 CA         1.8301  -19.3069  -56.6876 C.3       22 UNK         0.1400 
    121 C          1.6732  -19.8065  -58.1552 C.2       22 UNK         0.5000 
    122 N          1.5959  -21.1053  -58.4242 N.am      22 UNK        -0.7600 
    123 O          1.6326  -18.9963  -59.0771 O.2       22 UNK        -0.5000 
    124 C124        0.7120  -18.2999  -56.3112 C.3       23 UNK        -0.0398 
    125 S125        0.9898  -17.5576  -54.6666 S.3       23 UNK        -0.2404 
    126 C126       -0.3285  -18.3359  -53.6836 C.3       23 UNK        -0.0205 
    127 H127       -4.7114  -14.2843  -52.9323 H         1 UNK         0.0600 
    128 H128       -4.6639  -12.5443  -52.6214 H         1 UNK         0.0600 
    129 H129       -5.6467  -13.6004  -51.6013 H         1 UNK         0.0600 
    130 H130       -4.7020  -14.0123  -49.6013 H         1 UNK         0.3000 
    131 H131       -1.9051  -13.5605  -49.1031 H         1 UNK         0.0600 
    132 H132       -3.0093  -16.3836  -48.6131 H         1 UNK         0.0800 
    133 H133       -2.0503  -16.0008  -50.0083 H         1 UNK         0.0800 
    134 H134        1.5451  -15.9597  -48.7987 H         1 UNK         0.0800 
    135 H135        0.4862  -15.1328  -49.9159 H         1 UNK         0.0800 
    136 H136       -0.1780  -16.2985  -51.8919 H         1 UNK         0.1150 
    137 H137        0.3684  -20.5362  -52.2220 H         1 UNK         0.1150 
    138 H138        1.1796  -18.5554  -48.5095 H         1 UNK         0.1150 
    139 H139        0.9934  -21.8443  -50.3811 H         1 UNK         0.0800 
    140 H140        2.2292  -21.0459  -49.4374 H         1 UNK         0.0800 
    141 H141        1.4328  -23.4389  -48.1690 H         1 UNK         0.0800 
    142 H142       -0.1384  -23.6375  -48.8739 H         1 UNK         0.0800 
    143 H143       -0.1541  -24.8740  -46.8273 H         1 UNK         0.0600 
    144 H144        0.6603  -22.5389  -45.1929 H         1 UNK         0.3000 
    145 H145        1.9439  -23.5130  -43.1487 H         1 UNK         0.0600 
    146 H146        4.2790  -24.2614  -42.7006 H         1 UNK         0.0600 
    147 H147        3.2428  -25.6156  -43.1225 H         1 UNK         0.0600 
    148 H148        4.3745  -24.9797  -44.3079 H         1 UNK         0.0600 
    149 H149        2.8384  -21.6395  -43.8551 H         1 UNK         0.3000 
    150 H150        5.4846  -20.6491  -45.8124 H         1 UNK         0.0600 
    151 H151        3.8438  -20.6281  -47.6799 H         1 UNK         0.0600 
    152 H152        3.9453  -19.0380  -46.9399 H         1 UNK         0.0600 
    153 H153        2.5732  -20.0871  -46.5900 H         1 UNK         0.0600 
    154 H154        3.4151  -19.1936  -44.4429 H         1 UNK         0.3000 
    155 H155        4.8137  -19.5204  -41.1591 H         1 UNK         0.0600 
    156 H156        5.9472  -17.5726  -42.2254 H         1 UNK         0.0600 
    157 H157        4.5567  -17.0605  -41.2810 H         1 UNK         0.0600 
    158 H158        4.4526  -17.1269  -43.0383 H         1 UNK         0.0600 
    159 H159        2.4351  -18.2576  -42.0972 H         1 UNK         0.3000 
    160 H160        0.2859  -21.1229  -41.7752 H         1 UNK         0.0600 
    161 H161        0.4865  -18.4931  -40.2172 H         1 UNK         0.0600 
    162 H162        0.5020  -20.1000  -39.5016 H         1 UNK         0.0600 
    163 H163       -0.9327  -19.5313  -40.3394 H         1 UNK         0.0600 
    164 H164       -0.2444  -18.4462  -42.5923 H         1 UNK         0.3000 
    165 H165        0.4322  -18.9323  -46.0914 H         1 UNK         0.0600 
    166 H166       -2.1508  -18.4503  -44.5373 H         1 UNK         0.0600 
    167 H167       -1.8852  -18.0986  -46.2373 H         1 UNK         0.0600 
    168 H168       -1.8861  -19.7697  -45.6802 H         1 UNK         0.0600 
    169 H169       -0.4960  -16.6517  -44.6818 H         1 UNK         0.3000 
    170 H170        2.7136  -15.3089  -43.8061 H         1 UNK         0.0600 
    171 H171        2.1687  -14.6157  -46.1489 H         1 UNK         0.0600 
    172 H172        0.4803  -14.4185  -45.7046 H         1 UNK         0.0600 
    173 H173        1.7101  -13.3860  -44.9798 H         1 UNK         0.0600 
    174 H174       -0.0300  -14.5439  -43.3055 H         1 UNK         0.3000 
    175 H175       -0.2548  -16.0242  -40.0699 H         1 UNK         0.0600 
    176 H176        1.0545  -13.9287  -39.7019 H         1 UNK         0.0600 
    177 H177        0.0825  -13.0933  -40.9075 H         1 UNK         0.0600 
    178 H178       -0.6585  -13.6694  -39.4140 H         1 UNK         0.0600 
    179 H179       -1.9871  -14.2893  -41.5568 H         1 UNK         0.3000 
    180 H180       -3.7385  -16.8303  -43.3223 H         1 UNK         0.0600 
    181 H181       -4.7496  -16.8676  -41.0348 H         1 UNK         0.0600 
    182 H182       -4.6300  -15.1139  -40.9468 H         1 UNK         0.0600 
    183 H183       -5.6835  -15.8744  -42.1411 H         1 UNK         0.0600 
    184 H184       -4.2511  -14.0698  -43.2058 H         1 UNK         0.3000 
    185 H185       -3.9200  -12.8759  -45.1514 H         1 UNK         0.0600 
    186 H186       -2.2013  -12.0001  -43.5638 H         1 UNK         0.0600 
    187 H187       -0.9102  -12.4822  -44.6576 H         1 UNK         0.0600 
    188 H188       -2.0451  -11.2190  -45.1286 H         1 UNK         0.0600 
    189 H189       -1.5484  -13.3667  -46.8489 H         1 UNK         0.3000 
    190 H190       -2.2514  -24.4306  -47.9696 H         1 UNK         0.3000 
    191 H191       -4.2213  -23.7888  -45.9628 H         1 UNK         0.0600 
    192 H192       -4.5072  -24.6997  -48.8767 H         1 UNK         0.0600 
    193 H193       -5.7834  -24.7061  -47.6674 H         1 UNK         0.0600 
    194 H194       -4.3965  -25.7622  -47.4731 H         1 UNK         0.0600 
    195 H195       -2.6364  -21.6652  -47.9603 H         1 UNK         0.3000 
    196 H196       -4.6419  -20.2511  -49.3096 H         1 UNK         0.0600 
    197 H197       -2.9044  -18.5321  -49.6333 H         1 UNK         0.0600 
    198 H198       -2.2168  -20.1266  -49.8400 H         1 UNK         0.0600 
    199 H199       -1.9235  -19.2284  -48.3535 H         1 UNK         0.0600 
    200 H200       -4.1561  -20.2592  -45.9371 H         1 UNK         0.3000 
    201 H201       -5.1173  -17.6718  -45.1927 H         1 UNK         0.0600 
    202 H202       -5.6003  -18.8048  -43.0160 H         1 UNK         0.0600 
    203 H203       -5.3587  -20.3810  -43.7563 H         1 UNK         0.0600 
    204 H204       -4.0086  -19.2686  -43.5861 H         1 UNK         0.0600 
    205 H205       -6.7142  -20.6494  -46.2471 H         1 UNK         0.3000 
    206 H206       -9.4268  -19.3976  -45.9588 H         1 UNK         0.0600 
    207 H207       -9.1439  -21.4660  -44.6103 H         1 UNK         0.0600 
    208 H208      -10.2557  -21.7443  -45.9422 H         1 UNK         0.0600 
    209 H209       -8.6056  -22.3513  -46.0363 H         1 UNK         0.0600 
    210 H210       -7.2053  -21.2537  -48.0856 H         1 UNK         0.3000 
    211 H211       -9.0840  -21.3705  -50.2777 H         1 UNK         0.0600 
    212 H212       -7.2312  -22.5710  -51.3880 H         1 UNK         0.0600 
    213 H213       -7.4250  -23.1670  -49.7476 H         1 UNK         0.0600 
    214 H214       -6.1038  -22.0683  -50.1383 H         1 UNK         0.0600 
    215 H215       -7.0218  -18.8775  -49.2637 H         1 UNK         0.3000 
    216 H216       -6.3597  -16.9303  -50.0105 H         1 UNK         0.0600 
    217 H217       -7.2121  -15.8694  -52.0382 H         1 UNK         0.0600 
    218 H218       -8.5331  -16.6747  -51.2050 H         1 UNK         0.0600 
    219 H219       -7.8263  -17.3932  -52.6530 H         1 UNK         0.0600 
    220 H220       -5.8548  -19.5978  -52.2857 H         1 UNK         0.3000 
    221 H221       -2.9905  -18.9854  -52.3672 H         1 UNK         0.0600 
    222 H222       -4.7069  -19.4453  -54.8857 H         1 UNK         0.0600 
    223 H223       -3.8287  -17.9678  -54.4957 H         1 UNK         0.0600 
    224 H224       -2.9487  -19.4457  -54.8602 H         1 UNK         0.0600 
    225 H225       -1.7786  -20.9338  -52.6090 H         1 UNK         0.3000 
    226 H226       -3.2094  -23.5157  -52.6826 H         1 UNK         0.0600 
    227 H227       -2.1370  -24.1728  -50.4966 H         1 UNK         0.0600 
    228 H228       -1.6595  -22.4918  -50.2556 H         1 UNK         0.0600 
    229 H229       -3.3650  -22.9285  -50.3187 H         1 UNK         0.0600 
    230 H230       -2.1021  -23.3736  -54.7018 H         1 UNK         0.3000 
    231 H231       -0.7661  -24.2578  -56.1667 H         1 UNK         0.0600 
    232 H232        0.5482  -25.7411  -53.8345 H         1 UNK         0.0600 
    233 H233        0.6669  -26.1763  -55.5327 H         1 UNK         0.0600 
    234 H234       -0.8867  -26.2598  -54.7182 H         1 UNK         0.0600 
    235 H235        1.1950  -22.9871  -53.4976 H         1 UNK         0.3000 
    236 H236        3.6895  -22.9626  -54.7357 H         1 UNK         0.0600 
    237 H237        3.2688  -22.6354  -52.2879 H         1 UNK         0.0600 
    238 H238        4.3426  -21.4035  -52.9330 H         1 UNK         0.0600 
    239 H239        2.6626  -21.0112  -52.6098 H         1 UNK         0.0600 
    240 H240        1.0845  -20.7328  -55.3018 H         1 UNK         0.3000 
    241 H241        2.7678  -18.7477  -56.6804 H         1 UNK         0.0600 
    242 H242        1.5016  -21.4024  -59.3824 H         1 UNK         0.3800 
    243 H243        1.6404  -21.8055  -57.6906 H         1 UNK         0.3800 
    244 H244        0.6795  -17.4813  -57.0322 H         1 UNK         0.0800 
    245 H245       -0.2690  -18.7755  -56.3526 H         1 UNK         0.0800 
    246 H246       -0.5356  -19.3355  -54.0663 H         1 UNK         0.0800 
    247 H247       -1.2452  -17.7559  -53.7967 H         1 UNK         0.0800 
@<TRIPOS>BOND
     1    1    2 1    
     2    1  127 1    
     3    1  128 1    
     4    1  129 1    
     5    2    3 2    
     6    2    4 am   BACKBONE|DICT|INTERRES
     7    4    5 1    
     8    4  130 1    
     9    5    6 1    
    10    5   65 1    
    11    5  131 1    
    12    6    7 1    
    13    6  132 1    
    14    6  133 1    
    15    7    8 1    
    16    8    9 1    
    17    8  134 1    
    18    8  135 1    
    19    9   10 ar   
    20    9   14 ar   
    21   10   11 ar   
    22   10  136 1    
    23   11   12 ar   
    24   11  126 1    
    25   12   13 ar   
    26   12  137 1    
    27   13   14 ar   
    28   13   15 1    
    29   14  138 1    
    30   15   16 1    
    31   15  139 1    
    32   15  140 1    
    33   16   17 1    
    34   17   18 1    
    35   17  141 1    
    36   17  142 1    
    37   18   19 1    
    38   18   67 1    
    39   18  143 1    
    40   19   20 am   BACKBONE|DICT|INTERRES
    41   19  144 1    
    42   20   21 2    
    43   20   22 1    
    44   22   23 1    
    45   22   24 1    
    46   22  145 1    
    47   23  146 1    
    48   23  147 1    
    49   23  148 1    
    50   24   25 am   BACKBONE|DICT|INTERRES
    51   24  149 1    
    52   25   26 2    
    53   25   27 1    
    54   27   28 1    
    55   27   29 1    
    56   27  150 1    
    57   28  151 1    
    58   28  152 1    
    59   28  153 1    
    60   29   30 am   BACKBONE|DICT|INTERRES
    61   29  154 1    
    62   30   31 2    
    63   30   32 1    
    64   32   33 1    
    65   32   34 1    
    66   32  155 1    
    67   33  156 1    
    68   33  157 1    
    69   33  158 1    
    70   34   35 am   BACKBONE|DICT|INTERRES
    71   34  159 1    
    72   35   36 2    
    73   35   37 1    
    74   37   38 1    
    75   37   39 1    
    76   37  160 1    
    77   38  161 1    
    78   38  162 1    
    79   38  163 1    
    80   39   40 am   BACKBONE|DICT|INTERRES
    81   39  164 1    
    82   40   41 2    
    83   40   42 1    
    84   42   43 1    
    85   42   44 1    
    86   42  165 1    
    87   43  166 1    
    88   43  167 1    
    89   43  168 1    
    90   44   45 am   BACKBONE|DICT|INTERRES
    91   44  169 1    
    92   45   46 2    
    93   45   47 1    
    94   47   48 1    
    95   47   49 1    
    96   47  170 1    
    97   48  171 1    
    98   48  172 1    
    99   48  173 1    
   100   49   50 am   BACKBONE|DICT|INTERRES
   101   49  174 1    
   102   50   51 2    
   103   50   52 1    
   104   52   53 1    
   105   52   54 1    
   106   52  175 1    
   107   53  176 1    
   108   53  177 1    
   109   53  178 1    
   110   54   55 am   BACKBONE|DICT|INTERRES
   111   54  179 1    
   112   55   56 2    
   113   55   57 1    
   114   57   58 1    
   115   57   59 1    
   116   57  180 1    
   117   58  181 1    
   118   58  182 1    
   119   58  183 1    
   120   59   60 am   BACKBONE|DICT|INTERRES
   121   59  184 1    
   122   60   61 2    
   123   60   62 1    
   124   62   63 1    
   125   62   64 1    
   126   62  185 1    
   127   63  186 1    
   128   63  187 1    
   129   63  188 1    
   130   64   65 am   BACKBONE|DICT|INTERRES
   131   64  189 1    
   132   65   66 2    
   133   67   68 2    
   134   67   69 am   BACKBONE|DICT|INTERRES
   135   69   70 1    
   136   69  190 1    
   137   70   71 1    
   138   70   72 1    
   139   70  191 1    
   140   71  192 1    
   141   71  193 1    
   142   71  194 1    
   143   72   73 2    
   144   72   74 am   BACKBONE|DICT|INTERRES
   145   74   75 1    
   146   74  195 1    
   147   75   76 1    
   148   75   77 1    
   149   75  196 1    
   150   76  197 1    
   151   76  198 1    
   152   76  199 1    
   153   77   78 2    
   154   77   79 am   BACKBONE|DICT|INTERRES
   155   79   80 1    
   156   79  200 1    
   157   80   81 1    
   158   80   82 1    
   159   80  201 1    
   160   81  202 1    
   161   81  203 1    
   162   81  204 1    
   163   82   83 2    
   164   82   84 am   BACKBONE|DICT|INTERRES
   165   84   85 1    
   166   84  205 1    
   167   85   86 1    
   168   85   87 1    
   169   85  206 1    
   170   86  207 1    
   171   86  208 1    
   172   86  209 1    
   173   87   88 2    
   174   87   89 am   BACKBONE|DICT|INTERRES
   175   89   90 1    
   176   89  210 1    
   177   90   91 1    
   178   90   92 1    
   179   90  211 1    
   180   91  212 1    
   181   91  213 1    
   182   91  214 1    
   183   92   93 2    
   184   92   94 am   BACKBONE|DICT|INTERRES
   185   94   95 1    
   186   94  215 1    
   187   95   96 1    
   188   95   97 1    
   189   95  216 1    
   190   96  217 1    
   191   96  218 1    
   192   96  219 1    
   193   97   98 2    
   194   97   99 am   BACKBONE|DICT|INTERRES
   195   99  100 1    
   196   99  220 1    
   197  100  101 1    
   198  100  102 1    
   199  100  221 1    
   200  101  222 1    
   201  101  223 1    
   202  101  224 1    
   203  102  103 2    
   204  102  104 am   BACKBONE|DICT|INTERRES
   205  104  105 1    
   206  104  225 1    
   207  105  106 1    
   208  105  107 1    
   209  105  226 1    
   210  106  227 1    
   211  106  228 1    
   212  106  229 1    
   213  107  108 2    
   214  107  109 am   BACKBONE|DICT|INTERRES
   215  109  110 1    
   216  109  230 1    
   217  110  111 1    
   218  110  112 1    
   219  110  231 1    
   220  111  232 1    
   221  111  233 1    
   222  111  234 1    
   223  112  113 2    
   224  112  114 am   BACKBONE|DICT|INTERRES
   225  114  115 1    
   226  114  235 1    
   227  115  116 1    
   228  115  117 1    
   229  115  236 1    
   230  116  237 1    
   231  116  238 1    
   232  116  239 1    
   233  117  118 2    
   234  117  119 am   BACKBONE|DICT|INTERRES
   235  119  120 1    
   236  119  240 1    
   237  120  121 1    
   238  120  124 1    
   239  120  241 1    
   240  121  122 am   BACKBONE|DICT|INTERRES
   241  121  123 2    
   242  122  242 1    
   243  122  243 1    
   244  124  125 1    
   245  124  244 1    
   246  124  245 1    
   247  125  126 1    
   248  126  246 1    
   249  126  247 1    
@<TRIPOS>SUBSTRUCTURE
     1 UNK         1 GROUP             0       ****    0 ROOT    
