@<TRIPOS>MOLECULE
3R540
247   249    1
SMALL
USER_CHARGES


@<TRIPOS>ATOM
      1 CA          4.2085  -12.8554  -49.2418 C.3       0 UNK        -0.1800 
      2 C           3.2273  -13.5374  -48.3005 C.2       0 UNK         0.5000 
      3 O           3.4114  -13.4878  -47.0863 O.2       0 UNK        -0.5000 
      4 N           2.1754  -14.1576  -48.8509 N.am      1 UNK        -0.5000 
      5 CA          1.1278  -14.8809  -48.1162 C.3       1 UNK         0.1400 
      6 C6          0.1860  -15.6118  -49.1051 C.3       23 UNK        -0.0398 
      7 S7         -0.8533  -16.9176  -48.3624 S.3       23 UNK        -0.2404 
      8 C8         -2.4852  -16.4071  -48.9827 C.3       23 UNK        -0.0205 
      9 C9         -3.5313  -17.4998  -48.8299 C.ar      23 UNK        -0.0193 
     10 C10        -3.8627  -18.3121  -49.9174 C.ar      23 UNK        -0.1150 
     11 C11        -4.8863  -19.2567  -49.8132 C.ar      23 UNK        -0.0193 
     12 C12        -5.5563  -19.4124  -48.5969 C.ar      23 UNK        -0.1150 
     13 C13        -5.2222  -18.6217  -47.4954 C.ar      23 UNK        -0.0193 
     14 C14        -4.2125  -17.6615  -47.6214 C.ar      23 UNK        -0.1150 
     15 C15        -5.9810  -18.7779  -46.1840 C.3       23 UNK        -0.0205 
     16 S16        -5.6199  -20.3474  -45.3254 S.3       23 UNK        -0.2404 
     17 C17        -3.7975  -20.3548  -45.2235 C.3       23 UNK        -0.0398 
     18 CA         -3.1816  -21.5101  -46.0533 C.3       11 UNK         0.1400 
     19 N          -1.9917  -21.0795  -46.7920 N.am      11 UNK        -0.5000 
     20 C          -1.3603  -21.8241  -47.7075 C.2       10 UNK         0.5000 
     21 O          -1.7283  -22.9507  -48.0440 O.2       10 UNK        -0.5000 
     22 CA         -0.0818  -21.2440  -48.3324 C.3       10 UNK         0.1400 
     23 CB         -0.4274  -20.5580  -49.6599 C.3       10 UNK        -0.1800 
     24 N           0.6857  -20.3105  -47.5010 N.am      10 UNK        -0.5000 
     25 C           1.1185  -20.4989  -46.2459 C.2       9 UNK         0.5000 
     26 O           0.7711  -21.4443  -45.5338 O.2       9 UNK        -0.5000 
     27 CA          2.1502  -19.4915  -45.7126 C.3       9 UNK         0.1400 
     28 CB          2.0689  -18.0974  -46.3587 C.3       9 UNK        -0.1800 
     29 N           2.0262  -19.3667  -44.2647 N.am      9 UNK        -0.5000 
     30 C           3.0487  -19.2903  -43.4035 C.2       8 UNK         0.5000 
     31 O           4.2296  -19.3034  -43.7544 O.2       8 UNK        -0.5000 
     32 CA          2.7097  -19.1738  -41.9027 C.3       8 UNK         0.1400 
     33 CB          3.6109  -18.1562  -41.1817 C.3       8 UNK        -0.1800 
     34 N           1.3082  -18.8079  -41.6856 N.am      8 UNK        -0.5000 
     35 C           0.3496  -19.6630  -41.3094 C.2       7 UNK         0.5000 
     36 O           0.5580  -20.8439  -41.0341 O.2       7 UNK        -0.5000 
     37 CA         -1.0890  -19.1212  -41.2312 C.3       7 UNK         0.1400 
     38 CB         -1.4421  -18.7465  -39.7841 C.3       7 UNK        -0.1800 
     39 N          -1.3521  -17.9670  -42.0916 N.am      7 UNK        -0.5000 
     40 C          -1.3525  -17.9597  -43.4287 C.2       6 UNK         0.5000 
     41 O          -1.0171  -18.9257  -44.1151 O.2       6 UNK        -0.5000 
     42 CA         -1.8195  -16.6634  -44.1200 C.3       6 UNK         0.1400 
     43 CB         -3.3560  -16.5588  -44.1024 C.3       6 UNK        -0.1800 
     44 N          -1.2097  -15.4286  -43.6125 N.am      6 UNK        -0.5000 
     45 C          -1.3503  -14.8477  -42.4099 C.2       5 UNK         0.5000 
     46 O          -2.0235  -15.3213  -41.4922 O.2       5 UNK        -0.5000 
     47 CA         -0.6018  -13.5160  -42.2039 C.3       5 UNK         0.1400 
     48 CB         -0.4854  -13.1093  -40.7200 C.3       5 UNK        -0.1800 
     49 N           0.7122  -13.4954  -42.8494 N.am      5 UNK        -0.5000 
     50 C           1.7535  -14.3072  -42.6098 C.2       4 UNK         0.5000 
     51 O           1.7268  -15.2246  -41.7887 O.2       4 UNK        -0.5000 
     52 CA          3.0360  -14.0806  -43.4395 C.3       4 UNK         0.1400 
     53 CB          3.3190  -15.3037  -44.3214 C.3       4 UNK        -0.1800 
     54 N           2.9715  -12.9070  -44.3105 N.am      4 UNK        -0.5000 
     55 C           3.0530  -11.6286  -43.9228 C.2       3 UNK         0.5000 
     56 O           3.2904  -11.2740  -42.7681 O.2       3 UNK        -0.5000 
     57 CA          2.7560  -10.5748  -45.0063 C.3       3 UNK         0.1400 
     58 CB          4.0287  -10.2199  -45.7904 C.3       3 UNK        -0.1800 
     59 N           1.7110  -11.0122  -45.9393 N.am      3 UNK        -0.5000 
     60 C           0.4171  -11.1626  -45.6183 C.2       2 UNK         0.5000 
     61 O          -0.0364  -10.9348  -44.4973 O.2       2 UNK        -0.5000 
     62 CA         -0.5221  -11.6887  -46.7196 C.3       2 UNK         0.1400 
     63 CB         -0.9985  -10.5392  -47.6200 C.3       2 UNK        -0.1800 
     64 N           0.1016  -12.7237  -47.5444 N.am      2 UNK        -0.5000 
     65 C           0.3619  -13.9714  -47.1270 C.2       1 UNK         0.5000 
     66 O           0.0740  -14.3888  -46.0035 O.2       1 UNK        -0.5000 
     67 C          -2.9164  -22.7574  -45.1796 C.2       11 UNK         0.5000 
     68 O          -3.8136  -23.5838  -45.0125 O.2       11 UNK        -0.5000 
     69 N          -1.6816  -22.8837  -44.6748 N.am      12 UNK        -0.5000 
     70 CA         -1.2058  -24.0351  -43.9150 C.3       12 UNK         0.1400 
     71 CB         -0.5173  -23.5427  -42.6339 C.3       12 UNK        -0.1800 
     72 C          -0.2367  -24.8797  -44.7555 C.2       12 UNK         0.5000 
     73 O          -0.4096  -26.0953  -44.8377 O.2       12 UNK        -0.5000 
     74 N           0.7579  -24.2266  -45.3741 N.am      13 UNK        -0.5000 
     75 CA          1.8841  -24.8621  -46.0647 C.3       13 UNK         0.1400 
     76 CB          2.9408  -23.7963  -46.3935 C.3       13 UNK        -0.1800 
     77 C           1.4918  -25.6331  -47.3366 C.2       13 UNK         0.5000 
     78 O           2.1397  -26.6291  -47.6603 O.2       13 UNK        -0.5000 
     79 N           0.4398  -25.1691  -48.0205 N.am      14 UNK        -0.5000 
     80 CA         -0.1414  -25.8095  -49.2004 C.3       14 UNK         0.1400 
     81 CB         -0.0354  -24.8461  -50.3958 C.3       14 UNK        -0.1800 
     82 C          -1.6004  -26.2261  -48.9424 C.2       14 UNK         0.5000 
     83 O          -2.3084  -26.5470  -49.8959 O.2       14 UNK        -0.5000 
     84 N          -2.0432  -26.1779  -47.6746 N.am      15 UNK        -0.5000 
     85 CA         -3.3954  -26.4842  -47.1895 C.3       15 UNK         0.1400 
     86 CB         -3.6292  -28.0083  -47.2224 C.3       15 UNK        -0.1800 
     87 C          -4.5154  -25.6970  -47.9104 C.2       15 UNK         0.5000 
     88 O          -5.6224  -26.2140  -48.0697 O.2       15 UNK        -0.5000 
     89 N          -4.1906  -24.4751  -48.3614 N.am      16 UNK        -0.5000 
     90 CA         -5.0159  -23.5701  -49.1658 C.3       16 UNK         0.1400 
     91 CB         -6.2868  -23.1454  -48.3984 C.3       16 UNK        -0.1800 
     92 C          -5.3298  -24.0875  -50.5901 C.2       16 UNK         0.5000 
     93 O          -6.2424  -23.5647  -51.2309 O.2       16 UNK        -0.5000 
     94 N          -4.5729  -25.0772  -51.0876 N.am      17 UNK        -0.5000 
     95 CA         -4.7433  -25.6386  -52.4320 C.3       17 UNK         0.1400 
     96 CB         -4.2738  -27.1017  -52.4315 C.3       17 UNK        -0.1800 
     97 C          -3.9996  -24.8382  -53.5198 C.2       17 UNK         0.5000 
     98 O          -4.2754  -25.0360  -54.7042 O.2       17 UNK        -0.5000 
     99 N          -3.0593  -23.9719  -53.1167 N.am      18 UNK        -0.5000 
    100 CA        -2.2419  -23.1455  -54.0027 C.3       18 UNK         0.1400 
    101 CB        -1.0090  -22.6431  -53.2351 C.3       18 UNK        -0.1800 
    102 C         -3.0489  -21.9768  -54.5951 C.2       18 UNK         0.5000 
    103 O         -3.1026  -20.8975  -54.0003 O.2       18 UNK        -0.5000 
    104 N         -3.6397  -22.2012  -55.7756 N.am      19 UNK        -0.5000 
    105 CA        -4.4033  -21.2130  -56.5445 C.3       19 UNK         0.1400 
    106 CB        -4.9619  -21.8805  -57.8095 C.3       19 UNK        -0.1800 
    107 C         -3.5933  -19.9536  -56.9120 C.2       19 UNK         0.5000 
    108 O         -4.1612  -18.8635  -56.9712 O.2       19 UNK        -0.5000 
    109 N         -2.2766  -20.1179  -57.1032 N.am      20 UNK        -0.5000 
    110 CA        -1.3240  -19.0363  -57.3593 C.3       20 UNK         0.1400 
    111 CB         0.0308  -19.6458  -57.7507 C.3       20 UNK        -0.1800 
    112 C         -1.1565  -18.0696  -56.1695 C.2       20 UNK         0.5000 
    113 O         -0.8960  -16.8864  -56.3905 O.2       20 UNK        -0.5000 
    114 N         -1.3160  -18.5795  -54.9397 N.am      21 UNK        -0.5000 
    115 CA        -1.3142  -17.7780  -53.7161 C.3       21 UNK         0.1400 
    116 CB        -0.8351  -18.6382  -52.5358 C.3       21 UNK        -0.1800 
    117 C         -2.7103  -17.2003  -53.4327 C.2       21 UNK         0.5000 
    118 O         -2.8160  -16.0499  -53.0072 O.2       21 UNK        -0.5000 
    119 N         -3.7478  -18.0172  -53.6593 N.am      22 UNK        -0.5000 
    120 CA        -5.1611  -17.6592  -53.4655 C.3       22 UNK         0.1400 
    121 C         -5.6825  -16.5710  -54.4475 C.2       22 UNK         0.5000 
    122 N         -5.2677  -16.5724  -55.7077 N.am      22 UNK        -0.7600 
    123 O         -6.4716  -15.7136  -54.0602 O.2       22 UNK        -0.5000 
    124 C124       -6.0652  -18.9257  -53.4818 C.3       23 UNK        -0.0398 
    125 S125       -6.7425  -19.3381  -51.8431 S.3       23 UNK        -0.2404 
    126 C126       -5.2994  -20.0818  -51.0195 C.3       23 UNK        -0.0205 
    127 H127        5.2024  -13.2861  -49.1209 H         1 UNK         0.0600 
    128 H128        4.2676  -11.7911  -49.0140 H         1 UNK         0.0600 
    129 H129        3.9136  -12.9652  -50.2855 H         1 UNK         0.0600 
    130 H130        2.0845  -14.1556  -49.8569 H         1 UNK         0.3000 
    131 H131        1.6415  -15.6334  -47.5181 H         1 UNK         0.0600 
    132 H132        0.7805  -16.1068  -49.8744 H         1 UNK         0.0800 
    133 H133       -0.4339  -14.8888  -49.6380 H         1 UNK         0.0800 
    134 H134       -2.4048  -16.1300  -50.0354 H         1 UNK         0.0800 
    135 H135       -2.8056  -15.5087  -48.4527 H         1 UNK         0.0800 
    136 H136       -3.3460  -18.1859  -50.8556 H         1 UNK         0.1150 
    137 H137       -6.3560  -20.1332  -48.5108 H         1 UNK         0.1150 
    138 H138       -3.9638  -17.0232  -46.7879 H         1 UNK         0.1150 
    139 H139       -5.7770  -17.9431  -45.5141 H         1 UNK         0.0800 
    140 H140       -7.0514  -18.7355  -46.3897 H         1 UNK         0.0800 
    141 H141       -3.4994  -20.3956  -44.1739 H         1 UNK         0.0800 
    142 H142       -3.4233  -19.3983  -45.5826 H         1 UNK         0.0800 
    143 H143       -3.8988  -21.8111  -46.8191 H         1 UNK         0.0600 
    144 H144       -1.5974  -20.1829  -46.5444 H         1 UNK         0.3000 
    145 H145        0.5747  -22.0886  -48.5489 H         1 UNK         0.0600 
    146 H146        0.4702  -20.2680  -50.2060 H         1 UNK         0.0600 
    147 H147       -0.9992  -21.2255  -50.3025 H         1 UNK         0.0600 
    148 H148       -1.0342  -19.6658  -49.5047 H         1 UNK         0.0600 
    149 H149        0.9990  -19.4766  -47.9757 H         1 UNK         0.3000 
    150 H150        3.1217  -19.9231  -45.9613 H         1 UNK         0.0600 
    151 H151        2.1404  -18.1376  -47.4457 H         1 UNK         0.0600 
    152 H152        2.9013  -17.4811  -46.0249 H         1 UNK         0.0600 
    153 H153        1.1409  -17.5884  -46.0946 H         1 UNK         0.0600 
    154 H154        1.0767  -19.4080  -43.9111 H         1 UNK         0.3000 
    155 H155        2.9168  -20.1530  -41.4669 H         1 UNK         0.0600 
    156 H156        3.5117  -17.1566  -41.6009 H         1 UNK         0.0600 
    157 H157        4.6617  -18.4390  -41.2542 H         1 UNK         0.0600 
    158 H158        3.3662  -18.0979  -40.1210 H         1 UNK         0.0600 
    159 H159        1.0553  -17.8489  -41.8840 H         1 UNK         0.3000 
    160 H160       -1.7542  -19.9269  -41.5488 H         1 UNK         0.0600 
    161 H161       -0.8296  -17.9188  -39.4242 H         1 UNK         0.0600 
    162 H162       -1.2856  -19.5901  -39.1105 H         1 UNK         0.0600 
    163 H163       -2.4881  -18.4518  -39.6971 H         1 UNK         0.0600 
    164 H164       -1.6311  -17.1035  -41.6303 H         1 UNK         0.3000 
    165 H165       -1.5075  -16.7407  -45.1631 H         1 UNK         0.0600 
    166 H166       -3.7515  -16.4067  -43.0985 H         1 UNK         0.0600 
    167 H167       -3.7023  -15.7348  -44.7261 H         1 UNK         0.0600 
    168 H168       -3.8108  -17.4716  -44.4769 H         1 UNK         0.0600 
    169 H169       -0.6190  -14.9557  -44.2930 H         1 UNK         0.3000 
    170 H170       -1.2000  -12.7551  -42.7065 H         1 UNK         0.0600 
    171 H171       -1.4709  -12.9872  -40.2692 H         1 UNK         0.0600 
    172 H172        0.0511  -13.8570  -40.1350 H         1 UNK         0.0600 
    173 H173        0.0389  -12.1597  -40.6126 H         1 UNK         0.0600 
    174 H174        0.8281  -12.7817  -43.5568 H         1 UNK         0.3000 
    175 H175        3.8643  -13.9543  -42.7399 H         1 UNK         0.0600 
    176 H176        2.5154  -15.4521  -45.0424 H         1 UNK         0.0600 
    177 H177        4.2500  -15.1865  -44.8762 H         1 UNK         0.0600 
    178 H178        3.4058  -16.2150  -43.7313 H         1 UNK         0.0600 
    179 H179        2.8591  -13.0974  -45.3031 H         1 UNK         0.3000 
    180 H180        2.4045   -9.6715  -44.5033 H         1 UNK         0.0600 
    181 H181        4.4336  -11.0831  -46.3192 H         1 UNK         0.0600 
    182 H182        4.8074   -9.8522  -45.1211 H         1 UNK         0.0600 
    183 H183        3.8351   -9.4371  -46.5239 H         1 UNK         0.0600 
    184 H184        2.0119  -11.2640  -46.8687 H         1 UNK         0.3000 
    185 H185       -1.3977  -12.1219  -46.2308 H         1 UNK         0.0600 
    186 H186       -0.1701  -10.0756  -48.1570 H         1 UNK         0.0600 
    187 H187       -1.7220  -10.8897  -48.3563 H         1 UNK         0.0600 
    188 H188       -1.4860   -9.7601  -47.0324 H         1 UNK         0.0600 
    189 H189        0.3879  -12.4550  -48.4743 H         1 UNK         0.3000 
    190 H190       -0.9893  -22.1765  -44.9024 H         1 UNK         0.3000 
    191 H191       -2.0395  -24.6762  -43.6213 H         1 UNK         0.0600 
    192 H192       -0.1459  -24.3795  -42.0412 H         1 UNK         0.0600 
    193 H193       -1.2099  -22.9814  -42.0067 H         1 UNK         0.0600 
    194 H194        0.3310  -22.8933  -42.8548 H         1 UNK         0.0600 
    195 H195        0.8030  -23.2124  -45.2948 H         1 UNK         0.3000 
    196 H196        2.3306  -25.5790  -45.3724 H         1 UNK         0.0600 
    197 H197        2.5647  -23.0643  -47.1086 H         1 UNK         0.0600 
    198 H198        3.2556  -23.2602  -45.4978 H         1 UNK         0.0600 
    199 H199        3.8309  -24.2513  -46.8297 H         1 UNK         0.0600 
    200 H200       -0.0490  -24.3510  -47.6799 H         1 UNK         0.3000 
    201 H201        0.3999  -26.7231  -49.4529 H         1 UNK         0.0600 
    202 H202       -0.6332  -23.9468  -50.2484 H         1 UNK         0.0600 
    203 H203       -0.3833  -25.3239  -51.3124 H         1 UNK         0.0600 
    204 H204        0.9965  -24.5383  -50.5642 H         1 UNK         0.0600 
    205 H205       -1.3742  -25.9331  -46.9573 H         1 UNK         0.3000 
    206 H206       -3.4252  -26.1657  -46.1466 H         1 UNK         0.0600 
    207 H207       -2.8396  -28.5391  -46.6904 H         1 UNK         0.0600 
    208 H208       -4.5733  -28.2726  -46.7446 H         1 UNK         0.0600 
    209 H209       -3.6600  -28.3883  -48.2441 H         1 UNK         0.0600 
    210 H210       -3.2457  -24.1428  -48.1865 H         1 UNK         0.3000 
    211 H211       -4.4069  -22.6760  -49.3046 H         1 UNK         0.0600 
    212 H212       -6.8310  -22.3688  -48.9353 H         1 UNK         0.0600 
    213 H213       -6.0429  -22.7485  -47.4134 H         1 UNK         0.0600 
    214 H214       -6.9767  -23.9778  -48.2612 H         1 UNK         0.0600 
    215 H215       -3.8426  -25.4929  -50.5157 H         1 UNK         0.3000 
    216 H216       -5.8046  -25.6334  -52.6894 H         1 UNK         0.0600 
    217 H217       -3.1961  -27.1801  -52.2863 H         1 UNK         0.0600 
    218 H218       -4.5092  -27.5857  -53.3801 H         1 UNK         0.0600 
    219 H219       -4.7623  -27.6750  -51.6432 H         1 UNK         0.0600 
    220 H220       -2.9125  -23.8598  -52.1255 H         1 UNK         0.3000 
    221 H221       -1.8829  -23.7651  -54.8272 H         1 UNK         0.0600 
    222 H222       -0.3687  -23.4704  -52.9319 H         1 UNK         0.0600 
    223 H223       -1.2943  -22.0896  -52.3425 H         1 UNK         0.0600 
    224 H224       -0.4044  -21.9783  -53.8534 H         1 UNK         0.0600 
    225 H225       -3.5938  -23.1343  -56.1624 H         1 UNK         0.3000 
    226 H226       -5.2466  -20.8944  -55.9302 H         1 UNK         0.0600 
    227 H227       -4.1647  -22.2504  -58.4555 H         1 UNK         0.0600 
    228 H228       -5.6088  -22.7214  -57.5587 H         1 UNK         0.0600 
    229 H229       -5.5575  -21.1765  -58.3924 H         1 UNK         0.0600 
    230 H230       -1.8981  -21.0514  -57.0421 H         1 UNK         0.3000 
    231 H231       -1.6955  -18.4552  -58.2060 H         1 UNK         0.0600 
    232 H232        0.4427  -20.2603  -56.9491 H         1 UNK         0.0600 
    233 H233        0.7599  -18.8658  -57.9740 H         1 UNK         0.0600 
    234 H234       -0.0588  -20.2689  -58.6407 H         1 UNK         0.0600 
    235 H235       -1.5771  -19.5514  -54.8418 H         1 UNK         0.3000 
    236 H236       -0.6173  -16.9443  -53.8264 H         1 UNK         0.0600 
    237 H237        0.1618  -19.0392  -52.7181 H         1 UNK         0.0600 
    238 H238       -0.7856  -18.0479  -51.6197 H         1 UNK         0.0600 
    239 H239       -1.5038  -19.4783  -52.3466 H         1 UNK         0.0600 
    240 H240       -3.5581  -18.9662  -53.9622 H         1 UNK         0.3000 
    241 H241       -5.2224  -17.2015  -52.4758 H         1 UNK         0.0600 
    242 H242       -5.6035  -15.8624  -56.3382 H         1 UNK         0.3800 
    243 H243       -4.6955  -17.3311  -56.0711 H         1 UNK         0.3800 
    244 H244       -5.5341  -19.7964  -53.8647 H         1 UNK         0.0800 
    245 H245       -6.9208  -18.8087  -54.1498 H         1 UNK         0.0800 
    246 H246       -5.5673  -21.0860  -50.7009 H         1 UNK         0.0800 
    247 H247       -4.4641  -20.1932  -51.7122 H         1 UNK         0.0800 
@<TRIPOS>BOND
     1    1    2 1    
     2    1  127 1    
     3    1  128 1    
     4    1  129 1    
     5    2    3 2    
     6    2    4 am   BACKBONE|DICT|INTERRES
     7    4    5 1    
     8    4  130 1    
     9    5    6 1    
    10    5   65 1    
    11    5  131 1    
    12    6    7 1    
    13    6  132 1    
    14    6  133 1    
    15    7    8 1    
    16    8    9 1    
    17    8  134 1    
    18    8  135 1    
    19    9   10 ar   
    20    9   14 ar   
    21   10   11 ar   
    22   10  136 1    
    23   11   12 ar   
    24   11  126 1    
    25   12   13 ar   
    26   12  137 1    
    27   13   14 ar   
    28   13   15 1    
    29   14  138 1    
    30   15   16 1    
    31   15  139 1    
    32   15  140 1    
    33   16   17 1    
    34   17   18 1    
    35   17  141 1    
    36   17  142 1    
    37   18   19 1    
    38   18   67 1    
    39   18  143 1    
    40   19   20 am   BACKBONE|DICT|INTERRES
    41   19  144 1    
    42   20   21 2    
    43   20   22 1    
    44   22   23 1    
    45   22   24 1    
    46   22  145 1    
    47   23  146 1    
    48   23  147 1    
    49   23  148 1    
    50   24   25 am   BACKBONE|DICT|INTERRES
    51   24  149 1    
    52   25   26 2    
    53   25   27 1    
    54   27   28 1    
    55   27   29 1    
    56   27  150 1    
    57   28  151 1    
    58   28  152 1    
    59   28  153 1    
    60   29   30 am   BACKBONE|DICT|INTERRES
    61   29  154 1    
    62   30   31 2    
    63   30   32 1    
    64   32   33 1    
    65   32   34 1    
    66   32  155 1    
    67   33  156 1    
    68   33  157 1    
    69   33  158 1    
    70   34   35 am   BACKBONE|DICT|INTERRES
    71   34  159 1    
    72   35   36 2    
    73   35   37 1    
    74   37   38 1    
    75   37   39 1    
    76   37  160 1    
    77   38  161 1    
    78   38  162 1    
    79   38  163 1    
    80   39   40 am   BACKBONE|DICT|INTERRES
    81   39  164 1    
    82   40   41 2    
    83   40   42 1    
    84   42   43 1    
    85   42   44 1    
    86   42  165 1    
    87   43  166 1    
    88   43  167 1    
    89   43  168 1    
    90   44   45 am   BACKBONE|DICT|INTERRES
    91   44  169 1    
    92   45   46 2    
    93   45   47 1    
    94   47   48 1    
    95   47   49 1    
    96   47  170 1    
    97   48  171 1    
    98   48  172 1    
    99   48  173 1    
   100   49   50 am   BACKBONE|DICT|INTERRES
   101   49  174 1    
   102   50   51 2    
   103   50   52 1    
   104   52   53 1    
   105   52   54 1    
   106   52  175 1    
   107   53  176 1    
   108   53  177 1    
   109   53  178 1    
   110   54   55 am   BACKBONE|DICT|INTERRES
   111   54  179 1    
   112   55   56 2    
   113   55   57 1    
   114   57   58 1    
   115   57   59 1    
   116   57  180 1    
   117   58  181 1    
   118   58  182 1    
   119   58  183 1    
   120   59   60 am   BACKBONE|DICT|INTERRES
   121   59  184 1    
   122   60   61 2    
   123   60   62 1    
   124   62   63 1    
   125   62   64 1    
   126   62  185 1    
   127   63  186 1    
   128   63  187 1    
   129   63  188 1    
   130   64   65 am   BACKBONE|DICT|INTERRES
   131   64  189 1    
   132   65   66 2    
   133   67   68 2    
   134   67   69 am   BACKBONE|DICT|INTERRES
   135   69   70 1    
   136   69  190 1    
   137   70   71 1    
   138   70   72 1    
   139   70  191 1    
   140   71  192 1    
   141   71  193 1    
   142   71  194 1    
   143   72   73 2    
   144   72   74 am   BACKBONE|DICT|INTERRES
   145   74   75 1    
   146   74  195 1    
   147   75   76 1    
   148   75   77 1    
   149   75  196 1    
   150   76  197 1    
   151   76  198 1    
   152   76  199 1    
   153   77   78 2    
   154   77   79 am   BACKBONE|DICT|INTERRES
   155   79   80 1    
   156   79  200 1    
   157   80   81 1    
   158   80   82 1    
   159   80  201 1    
   160   81  202 1    
   161   81  203 1    
   162   81  204 1    
   163   82   83 2    
   164   82   84 am   BACKBONE|DICT|INTERRES
   165   84   85 1    
   166   84  205 1    
   167   85   86 1    
   168   85   87 1    
   169   85  206 1    
   170   86  207 1    
   171   86  208 1    
   172   86  209 1    
   173   87   88 2    
   174   87   89 am   BACKBONE|DICT|INTERRES
   175   89   90 1    
   176   89  210 1    
   177   90   91 1    
   178   90   92 1    
   179   90  211 1    
   180   91  212 1    
   181   91  213 1    
   182   91  214 1    
   183   92   93 2    
   184   92   94 am   BACKBONE|DICT|INTERRES
   185   94   95 1    
   186   94  215 1    
   187   95   96 1    
   188   95   97 1    
   189   95  216 1    
   190   96  217 1    
   191   96  218 1    
   192   96  219 1    
   193   97   98 2    
   194   97   99 am   BACKBONE|DICT|INTERRES
   195   99  100 1    
   196   99  220 1    
   197  100  101 1    
   198  100  102 1    
   199  100  221 1    
   200  101  222 1    
   201  101  223 1    
   202  101  224 1    
   203  102  103 2    
   204  102  104 am   BACKBONE|DICT|INTERRES
   205  104  105 1    
   206  104  225 1    
   207  105  106 1    
   208  105  107 1    
   209  105  226 1    
   210  106  227 1    
   211  106  228 1    
   212  106  229 1    
   213  107  108 2    
   214  107  109 am   BACKBONE|DICT|INTERRES
   215  109  110 1    
   216  109  230 1    
   217  110  111 1    
   218  110  112 1    
   219  110  231 1    
   220  111  232 1    
   221  111  233 1    
   222  111  234 1    
   223  112  113 2    
   224  112  114 am   BACKBONE|DICT|INTERRES
   225  114  115 1    
   226  114  235 1    
   227  115  116 1    
   228  115  117 1    
   229  115  236 1    
   230  116  237 1    
   231  116  238 1    
   232  116  239 1    
   233  117  118 2    
   234  117  119 am   BACKBONE|DICT|INTERRES
   235  119  120 1    
   236  119  240 1    
   237  120  121 1    
   238  120  124 1    
   239  120  241 1    
   240  121  122 am   BACKBONE|DICT|INTERRES
   241  121  123 2    
   242  122  242 1    
   243  122  243 1    
   244  124  125 1    
   245  124  244 1    
   246  124  245 1    
   247  125  126 1    
   248  126  246 1    
   249  126  247 1    
@<TRIPOS>SUBSTRUCTURE
     1 UNK         1 GROUP             0       ****    0 ROOT    
