@<TRIPOS>MOLECULE
3R540
247   249    1
SMALL
USER_CHARGES


@<TRIPOS>ATOM
      1 CA          6.6491  -19.9515  -50.2237 C.3       0 UNK        -0.1800 
      2 C           6.0130  -18.6612  -49.7268 C.2       0 UNK         0.5000 
      3 O           6.7122  -17.6662  -49.5380 O.2       0 UNK        -0.5000 
      4 N           4.6905  -18.6804  -49.5124 N.am      1 UNK        -0.5000 
      5 CA          3.8720  -17.5633  -49.0191 C.3       1 UNK         0.1400 
      6 C6          3.8879  -16.3417  -49.9827 C.3       23 UNK        -0.0398 
      7 S7          2.2699  -15.5115  -50.1454 S.3       23 UNK        -0.2404 
      8 C8          1.5298  -16.3803  -51.5712 C.3       23 UNK        -0.0205 
      9 C9          0.7564  -17.6118  -51.1257 C.ar      23 UNK        -0.0193 
     10 C10        -0.5682  -17.4818  -50.7016 C.ar      23 UNK        -0.1150 
     11 C11        -1.2693  -18.5844  -50.2071 C.ar      23 UNK        -0.0193 
     12 C12        -0.6404  -19.8314  -50.1553 C.ar      23 UNK        -0.1150 
     13 C13         0.6792  -19.9795  -50.5957 C.ar      23 UNK        -0.0193 
     14 C14         1.3655  -18.8696  -51.0995 C.ar      23 UNK        -0.1150 
     15 C15         1.3718  -21.3320  -50.4948 C.3       23 UNK        -0.0205 
     16 S16         2.7906  -21.3150  -49.3451 S.3       23 UNK        -0.2404 
     17 C17         2.0196  -20.8198  -47.7651 C.3       23 UNK        -0.0398 
     18 CA          1.8126  -22.0034  -46.7943 C.3       11 UNK         0.1400 
     19 N           1.5830  -21.5527  -45.4231 N.am      11 UNK        -0.5000 
     20 C           1.6331  -22.3484  -44.3455 C.2       10 UNK         0.5000 
     21 O           2.0042  -23.5216  -44.3745 O.2       10 UNK        -0.5000 
     22 CA          1.1454  -21.7434  -43.0168 C.3       10 UNK         0.1400 
     23 CB          2.3041  -21.0694  -42.2683 C.3       10 UNK        -0.1800 
     24 N           0.0479  -20.7896  -43.2022 N.am      10 UNK        -0.5000 
     25 C          -1.1805  -21.1339  -43.6182 C.2       9 UNK         0.5000 
     26 O          -1.5159  -22.2913  -43.8658 O.2       9 UNK        -0.5000 
     27 CA         -2.1959  -19.9965  -43.8313 C.3       9 UNK         0.1400 
     28 CB         -2.9364  -19.6865  -42.5225 C.3       9 UNK        -0.1800 
     29 N          -1.6022  -18.7662  -44.3549 N.am      9 UNK        -0.5000 
     30 C          -0.9533  -18.6561  -45.5235 C.2       8 UNK         0.5000 
     31 O          -0.7730  -19.6023  -46.2935 O.2       8 UNK        -0.5000 
     32 CA         -0.3996  -17.2558  -45.8510 C.3       8 UNK         0.1400 
     33 CB          0.0563  -17.0702  -47.3081 C.3       8 UNK        -0.1800 
     34 N          -1.2805  -16.1680  -45.4207 N.am      8 UNK        -0.5000 
     35 C          -2.5246  -15.9101  -45.8510 C.2       7 UNK         0.5000 
     36 O          -3.1001  -16.5678  -46.7183 O.2       7 UNK        -0.5000 
     37 CA         -3.2368  -14.7022  -45.2043 C.3       7 UNK         0.1400 
     38 CB         -4.7746  -14.8297  -45.2302 C.3       7 UNK        -0.1800 
     39 N          -2.7581  -14.3890  -43.8515 N.am      7 UNK        -0.5000 
     40 C          -2.8469  -15.1573  -42.7537 C.2       6 UNK         0.5000 
     41 O          -3.3549  -16.2787  -42.7501 O.2       6 UNK        -0.5000 
     42 CA         -2.2351  -14.5892  -41.4558 C.3       6 UNK         0.1400 
     43 CB         -1.7398  -15.7039  -40.5159 C.3       6 UNK        -0.1800 
     44 N          -1.1128  -13.7029  -41.7615 N.am      6 UNK        -0.5000 
     45 C          -1.1179  -12.3655  -41.6891 C.2       5 UNK         0.5000 
     46 O          -2.0739  -11.7078  -41.2780 O.2       5 UNK        -0.5000 
     47 CA          0.1475  -11.6315  -42.1845 C.3       5 UNK         0.1400 
     48 CB          1.0292  -11.2232  -40.9946 C.3       5 UNK        -0.1800 
     49 N           0.9560  -12.4137  -43.1252 N.am      5 UNK        -0.5000 
     50 C           0.5707  -12.7856  -44.3545 C.2       4 UNK         0.5000 
     51 O          -0.5049  -12.4624  -44.8588 O.2       4 UNK        -0.5000 
     52 CA          1.5166  -13.7309  -45.1238 C.3       4 UNK         0.1400 
     53 CB          2.4836  -12.9208  -45.9993 C.3       4 UNK        -0.1800 
     54 N           2.2860  -14.6517  -44.2748 N.am      4 UNK        -0.5000 
     55 C           1.7713  -15.5103  -43.3815 C.2       3 UNK         0.5000 
     56 O           0.5644  -15.5957  -43.1477 O.2       3 UNK        -0.5000 
     57 CA          2.7717  -16.4135  -42.6337 C.3       3 UNK         0.1400 
     58 CB          2.0796  -17.5096  -41.7969 C.3       3 UNK        -0.1800 
     59 N           3.7942  -16.9765  -43.5238 N.am      3 UNK        -0.5000 
     60 C           3.6136  -17.8509  -44.5244 C.2       2 UNK         0.5000 
     61 O           2.5447  -18.4026  -44.7955 O.2       2 UNK        -0.5000 
     62 CA          4.8684  -18.2002  -45.3432 C.3       2 UNK         0.1400 
     63 CB          5.4227  -19.5638  -44.9028 C.3       2 UNK        -0.1800 
     64 N           4.5937  -18.2474  -46.7774 N.am      2 UNK        -0.5000 
     65 C           4.1728  -17.2248  -47.5378 C.2       1 UNK         0.5000 
     66 O           4.0259  -16.0786  -47.1121 O.2       1 UNK        -0.5000 
     67 C           0.6636  -22.9177  -47.2532 C.2       11 UNK         0.5000 
     68 O           0.9204  -24.0536  -47.6474 O.2       11 UNK        -0.5000 
     69 N          -0.5778  -22.4191  -47.1496 N.am      12 UNK        -0.5000 
     70 CA         -1.7975  -23.0996  -47.5938 C.3       12 UNK         0.1400 
     71 CB         -3.0016  -22.1757  -47.3592 C.3       12 UNK        -0.1800 
     72 C          -2.0352  -24.4703  -46.9330 C.2       12 UNK         0.5000 
     73 O          -2.5312  -25.3853  -47.5909 O.2       12 UNK        -0.5000 
     74 N          -1.6553  -24.5958  -45.6548 N.am      13 UNK        -0.5000 
     75 CA         -1.6839  -25.8461  -44.8978 C.3       13 UNK         0.1400 
     76 CB         -1.4709  -25.5326  -43.4088 C.3       13 UNK        -0.1800 
     77 C          -0.6473  -26.8817  -45.3780 C.2       13 UNK         0.5000 
     78 O          -0.8560  -28.0766  -45.1626 O.2       13 UNK        -0.5000 
     79 N           0.4472  -26.4211  -45.9989 N.am      14 UNK        -0.5000 
     80 CA          1.5222  -27.2666  -46.5075 C.3       14 UNK         0.1400 
     81 CB          2.8668  -26.5295  -46.3898 C.3       14 UNK        -0.1800 
     82 C           1.2559  -27.7115  -47.9542 C.2       14 UNK         0.5000 
     83 O           1.3362  -28.9090  -48.2331 O.2       14 UNK        -0.5000 
     84 N           0.9512  -26.7614  -48.8493 N.am      15 UNK        -0.5000 
     85 CA          0.7775  -27.0029  -50.2824 C.3       15 UNK         0.1400 
     86 CB          2.1477  -27.2941  -50.9333 C.3       15 UNK        -0.1800 
     87 C           0.1106  -25.8029  -50.9733 C.2       15 UNK         0.5000 
     88 O           0.0395  -24.7163  -50.3991 O.2       15 UNK        -0.5000 
     89 N          -0.3138  -26.0210  -52.2262 N.am      16 UNK        -0.5000 
     90 CA         -0.8626  -25.0303  -53.1576 C.3       16 UNK         0.1400 
     91 CB          0.2457  -24.0459  -53.6011 C.3       16 UNK        -0.1800 
     92 C          -2.1453  -24.3537  -52.6236 C.2       16 UNK         0.5000 
     93 O          -3.0426  -25.0654  -52.1666 O.2       16 UNK        -0.5000 
     94 N          -2.2037  -23.0162  -52.7176 N.am      17 UNK        -0.5000 
     95 CA         -3.3143  -22.1127  -52.3954 C.3       17 UNK         0.1400 
     96 CB         -3.7875  -22.2903  -50.9382 C.3       17 UNK        -0.1800 
     97 C          -4.4938  -22.2006  -53.3847 C.2       17 UNK         0.5000 
     98 O          -4.6668  -23.1981  -54.0890 O.2       17 UNK        -0.5000 
     99 N          -5.2941  -21.1323  -53.4121 N.am      18 UNK        -0.5000 
    100 CA        -6.5253  -21.0028  -54.1813 C.3       18 UNK         0.1400 
    101 CB        -6.2121  -20.6140  -55.6366 C.3       18 UNK        -0.1800 
    102 C         -7.3648  -19.9206  -53.4991 C.2       18 UNK         0.5000 
    103 O         -6.8020  -18.9074  -53.0797 O.2       18 UNK        -0.5000 
    104 N         -8.6843  -20.1269  -53.4101 N.am      19 UNK        -0.5000 
    105 CA        -9.6199  -19.2392  -52.7076 C.3       19 UNK         0.1400 
    106 CB       -11.0205  -19.8699  -52.7185 C.3       19 UNK        -0.1800 
    107 C         -9.6703  -17.8039  -53.2666 C.2       19 UNK         0.5000 
    108 O         -9.8618  -16.8594  -52.5006 O.2       19 UNK        -0.5000 
    109 N         -9.4565  -17.6634  -54.5815 N.am      20 UNK        -0.5000 
    110 CA        -9.3920  -16.3802  -55.2832 C.3       20 UNK         0.1400 
    111 CB        -9.4247  -16.6414  -56.7970 C.3       20 UNK        -0.1800 
    112 C         -8.1581  -15.5326  -54.9110 C.2       20 UNK         0.5000 
    113 O         -8.2120  -14.3086  -55.0383 O.2       20 UNK        -0.5000 
    114 N         -7.0770  -16.1890  -54.4697 N.am      21 UNK        -0.5000 
    115 CA        -5.8285  -15.5518  -54.0570 C.3       21 UNK         0.1400 
    116 CB        -4.6457  -16.3707  -54.6015 C.3       21 UNK        -0.1800 
    117 C         -5.7431  -15.4373  -52.5272 C.2       21 UNK         0.5000 
    118 O         -5.3898  -14.3752  -52.0131 O.2       21 UNK        -0.5000 
    119 N         -6.0498  -16.5391  -51.8355 N.am      22 UNK        -0.5000 
    120 CA        -5.8682  -16.7079  -50.3872 C.3       22 UNK         0.1400 
    121 C         -7.0913  -16.2702  -49.5327 C.2       22 UNK         0.5000 
    122 N         -8.2550  -15.9966  -50.1094 N.am      22 UNK        -0.7600 
    123 O         -6.9805  -16.1633  -48.3149 O.2       22 UNK        -0.5000 
    124 C124       -5.4398  -18.1590  -50.0444 C.3       23 UNK        -0.0398 
    125 S125       -3.9352  -18.6783  -50.9445 S.3       23 UNK        -0.2404 
    126 C126       -2.6783  -18.4034  -49.6655 C.3       23 UNK        -0.0205 
    127 H127        5.9119  -20.7450  -50.3501 H         1 UNK         0.0600 
    128 H128        7.4012  -20.2964  -49.5141 H         1 UNK         0.0600 
    129 H129        7.1359  -19.7840  -51.1844 H         1 UNK         0.0600 
    130 H130        4.1824  -19.5402  -49.6823 H         1 UNK         0.3000 
    131 H131        2.8575  -17.9602  -48.9993 H         1 UNK         0.0600 
    132 H132        4.6326  -15.6063  -49.6734 H         1 UNK         0.0800 
    133 H133        4.1998  -16.6498  -50.9811 H         1 UNK         0.0800 
    134 H134        0.8530  -15.6942  -52.0826 H         1 UNK         0.0800 
    135 H135        2.2943  -16.6464  -52.3022 H         1 UNK         0.0800 
    136 H136       -1.0417  -16.5101  -50.7162 H         1 UNK         0.1150 
    137 H137       -1.1708  -20.6800  -49.7487 H         1 UNK         0.1150 
    138 H138        2.3890  -18.9773  -51.4296 H         1 UNK         0.1150 
    139 H139        0.6686  -22.1057  -50.1834 H         1 UNK         0.0800 
    140 H140        1.7263  -21.6229  -51.4841 H         1 UNK         0.0800 
    141 H141        2.6831  -20.0926  -47.3012 H         1 UNK         0.0800 
    142 H142        1.0896  -20.2829  -47.9452 H         1 UNK         0.0800 
    143 H143        2.7295  -22.5975  -46.7885 H         1 UNK         0.0600 
    144 H144        1.2567  -20.6025  -45.3072 H         1 UNK         0.3000 
    145 H145        0.7751  -22.5632  -42.3973 H         1 UNK         0.0600 
    146 H146        1.9744  -20.6605  -41.3132 H         1 UNK         0.0600 
    147 H147        3.0984  -21.7865  -42.0575 H         1 UNK         0.0600 
    148 H148        2.7445  -20.2607  -42.8500 H         1 UNK         0.0600 
    149 H149        0.2523  -19.8143  -43.0447 H         1 UNK         0.3000 
    150 H150       -2.9288  -20.3428  -44.5618 H         1 UNK         0.0600 
    151 H151       -3.3717  -20.5903  -42.0940 H         1 UNK         0.0600 
    152 H152       -3.7531  -18.9845  -42.6906 H         1 UNK         0.0600 
    153 H153       -2.2707  -19.2536  -41.7746 H         1 UNK         0.0600 
    154 H154       -1.7436  -17.9297  -43.8047 H         1 UNK         0.3000 
    155 H155        0.4911  -17.1622  -45.2413 H         1 UNK         0.0600 
    156 H156        0.6257  -16.1490  -47.4277 H         1 UNK         0.0600 
    157 H157       -0.7929  -17.0227  -47.9832 H         1 UNK         0.0600 
    158 H158        0.6992  -17.8868  -47.6361 H         1 UNK         0.0600 
    159 H159       -0.9184  -15.6081  -44.6581 H         1 UNK         0.3000 
    160 H160       -2.9716  -13.8412  -45.8193 H         1 UNK         0.0600 
    161 H161       -5.1171  -15.7177  -44.6984 H         1 UNK         0.0600 
    162 H162       -5.1444  -14.9028  -46.2538 H         1 UNK         0.0600 
    163 H163       -5.2509  -13.9608  -44.7765 H         1 UNK         0.0600 
    164 H164       -2.2733  -13.5048  -43.7665 H         1 UNK         0.3000 
    165 H165       -3.0265  -14.0400  -40.9426 H         1 UNK         0.0600 
    166 H166       -1.0012  -16.3417  -41.0027 H         1 UNK         0.0600 
    167 H167       -1.2835  -15.2882  -39.6175 H         1 UNK         0.0600 
    168 H168       -2.5635  -16.3422  -40.1942 H         1 UNK         0.0600 
    169 H169       -0.3043  -14.1686  -42.1618 H         1 UNK         0.3000 
    170 H170       -0.1803  -10.7243  -42.6964 H         1 UNK         0.0600 
    171 H171        0.4701  -10.6116  -40.2851 H         1 UNK         0.0600 
    172 H172        1.4032  -12.0937  -40.4540 H         1 UNK         0.0600 
    173 H173        1.8870  -10.6355  -41.3218 H         1 UNK         0.0600 
    174 H174        1.8552  -12.7296  -42.7928 H         1 UNK         0.3000 
    175 H175        0.8971  -14.3392  -45.7841 H         1 UNK         0.0600 
    176 H176        3.1720  -12.3274  -45.3965 H         1 UNK         0.0600 
    177 H177        3.0748  -13.5729  -46.6421 H         1 UNK         0.0600 
    178 H178        1.9407  -12.2347  -46.6509 H         1 UNK         0.0600 
    179 H179        3.2831  -14.6691  -44.4328 H         1 UNK         0.3000 
    180 H180        3.3011  -15.7623  -41.9369 H         1 UNK         0.0600 
    181 H181        1.4354  -18.1414  -42.4075 H         1 UNK         0.0600 
    182 H182        1.4547  -17.0677  -41.0201 H         1 UNK         0.0600 
    183 H183        2.8100  -18.1475  -41.2997 H         1 UNK         0.0600 
    184 H184        4.7261  -16.6121  -43.3822 H         1 UNK         0.3000 
    185 H185        5.6321  -17.4383  -45.1750 H         1 UNK         0.0600 
    186 H186        6.3375  -19.8122  -45.4412 H         1 UNK         0.0600 
    187 H187        5.6626  -19.5632  -43.8386 H         1 UNK         0.0600 
    188 H188        4.7024  -20.3654  -45.0748 H         1 UNK         0.0600 
    189 H189        4.7053  -19.1460  -47.2207 H         1 UNK         0.3000 
    190 H190       -0.6922  -21.4734  -46.7938 H         1 UNK         0.3000 
    191 H191       -1.6923  -23.2731  -48.6661 H         1 UNK         0.0600 
    192 H192       -2.8665  -21.2149  -47.8537 H         1 UNK         0.0600 
    193 H193       -3.9168  -22.6197  -47.7526 H         1 UNK         0.0600 
    194 H194       -3.1584  -21.9862  -46.2975 H         1 UNK         0.0600 
    195 H195       -1.3331  -23.7709  -45.1573 H         1 UNK         0.3000 
    196 H196       -2.6737  -26.2921  -45.0147 H         1 UNK         0.0600 
    197 H197       -1.4918  -26.4428  -42.8081 H         1 UNK         0.0600 
    198 H198       -2.2532  -24.8754  -43.0287 H         1 UNK         0.0600 
    199 H199       -0.5104  -25.0448  -43.2361 H         1 UNK         0.0600 
    200 H200        0.5193  -25.4317  -46.2089 H         1 UNK         0.3000 
    201 H201        1.5949  -28.1651  -45.8907 H         1 UNK         0.0600 
    202 H202        3.0655  -26.2372  -45.3585 H         1 UNK         0.0600 
    203 H203        2.8980  -25.6282  -47.0017 H         1 UNK         0.0600 
    204 H204        3.6890  -27.1696  -46.7117 H         1 UNK         0.0600 
    205 H205        0.8647  -25.7880  -48.5587 H         1 UNK         0.3000 
    206 H206        0.1212  -27.8658  -50.4128 H         1 UNK         0.0600 
    207 H207        2.6109  -28.1891  -50.5187 H         1 UNK         0.0600 
    208 H208        2.0539  -27.4580  -52.0072 H         1 UNK         0.0600 
    209 H209        2.8395  -26.4633  -50.7886 H         1 UNK         0.0600 
    210 H210       -0.2422  -26.9586  -52.5951 H         1 UNK         0.3000 
    211 H211       -1.1716  -25.5882  -54.0426 H         1 UNK         0.0600 
    212 H212        0.5866  -23.4165  -52.7787 H         1 UNK         0.0600 
    213 H213       -0.0976  -23.3941  -54.4053 H         1 UNK         0.0600 
    214 H214        1.1135  -24.5847  -53.9818 H         1 UNK         0.0600 
    215 H215       -1.4016  -22.5598  -53.1270 H         1 UNK         0.3000 
    216 H216       -2.9000  -21.1075  -52.4876 H         1 UNK         0.0600 
    217 H217       -2.9590  -22.1510  -50.2482 H         1 UNK         0.0600 
    218 H218       -4.2188  -23.2741  -50.7562 H         1 UNK         0.0600 
    219 H219       -4.5512  -21.5584  -50.6758 H         1 UNK         0.0600 
    220 H220       -5.1060  -20.3422  -52.8057 H         1 UNK         0.3000 
    221 H221       -7.0709  -21.9485  -54.1587 H         1 UNK         0.0600 
    222 H222       -5.6577  -19.6760  -55.6911 H         1 UNK         0.0600 
    223 H223       -5.6188  -21.3818  -56.1332 H         1 UNK         0.0600 
    224 H224       -7.1289  -20.4891  -56.2140 H         1 UNK         0.0600 
    225 H225       -9.0752  -20.9758  -53.7932 H         1 UNK         0.3000 
    226 H226       -9.2872  -19.1681  -51.6697 H         1 UNK         0.0600 
    227 H227      -11.7355  -19.2434  -52.1834 H         1 UNK         0.0600 
    228 H228      -11.3949  -20.0012  -53.7345 H         1 UNK         0.0600 
    229 H229      -11.0183  -20.8453  -52.2317 H         1 UNK         0.0600 
    230 H230       -9.3046  -18.4942  -55.1340 H         1 UNK         0.3000 
    231 H231      -10.2796  -15.8027  -55.0163 H         1 UNK         0.0600 
    232 H232       -9.4067  -15.7047  -57.3558 H         1 UNK         0.0600 
    233 H233      -10.3312  -17.1731  -57.0867 H         1 UNK         0.0600 
    234 H234       -8.5681  -17.2337  -57.1216 H         1 UNK         0.0600 
    235 H235       -7.1355  -17.1907  -54.3390 H         1 UNK         0.3000 
    236 H236       -5.7579  -14.5453  -54.4749 H         1 UNK         0.0600 
    237 H237       -4.6633  -16.4094  -55.6907 H         1 UNK         0.0600 
    238 H238       -3.6945  -15.9258  -54.3065 H         1 UNK         0.0600 
    239 H239       -4.6559  -17.3969  -54.2309 H         1 UNK         0.0600 
    240 H240       -6.3226  -17.3813  -52.3381 H         1 UNK         0.3000 
    241 H241       -5.0493  -16.0577  -50.0730 H         1 UNK         0.0600 
    242 H242       -9.0305  -15.7085  -49.5347 H         1 UNK         0.3800 
    243 H243       -8.3972  -16.1191  -51.1033 H         1 UNK         0.3800 
    244 H244       -6.2400  -18.8570  -50.2957 H         1 UNK         0.0800 
    245 H245       -5.2693  -18.2681  -48.9716 H         1 UNK         0.0800 
    246 H246       -2.7941  -17.3929  -49.2717 H         1 UNK         0.0800 
    247 H247       -2.8485  -19.0775  -48.8257 H         1 UNK         0.0800 
@<TRIPOS>BOND
     1    1    2 1    
     2    1  127 1    
     3    1  128 1    
     4    1  129 1    
     5    2    3 2    
     6    2    4 am   BACKBONE|DICT|INTERRES
     7    4    5 1    
     8    4  130 1    
     9    5    6 1    
    10    5   65 1    
    11    5  131 1    
    12    6    7 1    
    13    6  132 1    
    14    6  133 1    
    15    7    8 1    
    16    8    9 1    
    17    8  134 1    
    18    8  135 1    
    19    9   10 ar   
    20    9   14 ar   
    21   10   11 ar   
    22   10  136 1    
    23   11   12 ar   
    24   11  126 1    
    25   12   13 ar   
    26   12  137 1    
    27   13   14 ar   
    28   13   15 1    
    29   14  138 1    
    30   15   16 1    
    31   15  139 1    
    32   15  140 1    
    33   16   17 1    
    34   17   18 1    
    35   17  141 1    
    36   17  142 1    
    37   18   19 1    
    38   18   67 1    
    39   18  143 1    
    40   19   20 am   BACKBONE|DICT|INTERRES
    41   19  144 1    
    42   20   21 2    
    43   20   22 1    
    44   22   23 1    
    45   22   24 1    
    46   22  145 1    
    47   23  146 1    
    48   23  147 1    
    49   23  148 1    
    50   24   25 am   BACKBONE|DICT|INTERRES
    51   24  149 1    
    52   25   26 2    
    53   25   27 1    
    54   27   28 1    
    55   27   29 1    
    56   27  150 1    
    57   28  151 1    
    58   28  152 1    
    59   28  153 1    
    60   29   30 am   BACKBONE|DICT|INTERRES
    61   29  154 1    
    62   30   31 2    
    63   30   32 1    
    64   32   33 1    
    65   32   34 1    
    66   32  155 1    
    67   33  156 1    
    68   33  157 1    
    69   33  158 1    
    70   34   35 am   BACKBONE|DICT|INTERRES
    71   34  159 1    
    72   35   36 2    
    73   35   37 1    
    74   37   38 1    
    75   37   39 1    
    76   37  160 1    
    77   38  161 1    
    78   38  162 1    
    79   38  163 1    
    80   39   40 am   BACKBONE|DICT|INTERRES
    81   39  164 1    
    82   40   41 2    
    83   40   42 1    
    84   42   43 1    
    85   42   44 1    
    86   42  165 1    
    87   43  166 1    
    88   43  167 1    
    89   43  168 1    
    90   44   45 am   BACKBONE|DICT|INTERRES
    91   44  169 1    
    92   45   46 2    
    93   45   47 1    
    94   47   48 1    
    95   47   49 1    
    96   47  170 1    
    97   48  171 1    
    98   48  172 1    
    99   48  173 1    
   100   49   50 am   BACKBONE|DICT|INTERRES
   101   49  174 1    
   102   50   51 2    
   103   50   52 1    
   104   52   53 1    
   105   52   54 1    
   106   52  175 1    
   107   53  176 1    
   108   53  177 1    
   109   53  178 1    
   110   54   55 am   BACKBONE|DICT|INTERRES
   111   54  179 1    
   112   55   56 2    
   113   55   57 1    
   114   57   58 1    
   115   57   59 1    
   116   57  180 1    
   117   58  181 1    
   118   58  182 1    
   119   58  183 1    
   120   59   60 am   BACKBONE|DICT|INTERRES
   121   59  184 1    
   122   60   61 2    
   123   60   62 1    
   124   62   63 1    
   125   62   64 1    
   126   62  185 1    
   127   63  186 1    
   128   63  187 1    
   129   63  188 1    
   130   64   65 am   BACKBONE|DICT|INTERRES
   131   64  189 1    
   132   65   66 2    
   133   67   68 2    
   134   67   69 am   BACKBONE|DICT|INTERRES
   135   69   70 1    
   136   69  190 1    
   137   70   71 1    
   138   70   72 1    
   139   70  191 1    
   140   71  192 1    
   141   71  193 1    
   142   71  194 1    
   143   72   73 2    
   144   72   74 am   BACKBONE|DICT|INTERRES
   145   74   75 1    
   146   74  195 1    
   147   75   76 1    
   148   75   77 1    
   149   75  196 1    
   150   76  197 1    
   151   76  198 1    
   152   76  199 1    
   153   77   78 2    
   154   77   79 am   BACKBONE|DICT|INTERRES
   155   79   80 1    
   156   79  200 1    
   157   80   81 1    
   158   80   82 1    
   159   80  201 1    
   160   81  202 1    
   161   81  203 1    
   162   81  204 1    
   163   82   83 2    
   164   82   84 am   BACKBONE|DICT|INTERRES
   165   84   85 1    
   166   84  205 1    
   167   85   86 1    
   168   85   87 1    
   169   85  206 1    
   170   86  207 1    
   171   86  208 1    
   172   86  209 1    
   173   87   88 2    
   174   87   89 am   BACKBONE|DICT|INTERRES
   175   89   90 1    
   176   89  210 1    
   177   90   91 1    
   178   90   92 1    
   179   90  211 1    
   180   91  212 1    
   181   91  213 1    
   182   91  214 1    
   183   92   93 2    
   184   92   94 am   BACKBONE|DICT|INTERRES
   185   94   95 1    
   186   94  215 1    
   187   95   96 1    
   188   95   97 1    
   189   95  216 1    
   190   96  217 1    
   191   96  218 1    
   192   96  219 1    
   193   97   98 2    
   194   97   99 am   BACKBONE|DICT|INTERRES
   195   99  100 1    
   196   99  220 1    
   197  100  101 1    
   198  100  102 1    
   199  100  221 1    
   200  101  222 1    
   201  101  223 1    
   202  101  224 1    
   203  102  103 2    
   204  102  104 am   BACKBONE|DICT|INTERRES
   205  104  105 1    
   206  104  225 1    
   207  105  106 1    
   208  105  107 1    
   209  105  226 1    
   210  106  227 1    
   211  106  228 1    
   212  106  229 1    
   213  107  108 2    
   214  107  109 am   BACKBONE|DICT|INTERRES
   215  109  110 1    
   216  109  230 1    
   217  110  111 1    
   218  110  112 1    
   219  110  231 1    
   220  111  232 1    
   221  111  233 1    
   222  111  234 1    
   223  112  113 2    
   224  112  114 am   BACKBONE|DICT|INTERRES
   225  114  115 1    
   226  114  235 1    
   227  115  116 1    
   228  115  117 1    
   229  115  236 1    
   230  116  237 1    
   231  116  238 1    
   232  116  239 1    
   233  117  118 2    
   234  117  119 am   BACKBONE|DICT|INTERRES
   235  119  120 1    
   236  119  240 1    
   237  120  121 1    
   238  120  124 1    
   239  120  241 1    
   240  121  122 am   BACKBONE|DICT|INTERRES
   241  121  123 2    
   242  122  242 1    
   243  122  243 1    
   244  124  125 1    
   245  124  244 1    
   246  124  245 1    
   247  125  126 1    
   248  126  246 1    
   249  126  247 1    
@<TRIPOS>SUBSTRUCTURE
     1 UNK         1 GROUP             0       ****    0 ROOT    
