@<TRIPOS>MOLECULE
3R540
247   249    1
SMALL
USER_CHARGES


@<TRIPOS>ATOM
      1 CA          3.3676  -17.0055  -47.7543 C.3       0 UNK        -0.1800 
      2 C           2.8468  -15.9907  -46.7491 C.2       0 UNK         0.5000 
      3 O           3.5398  -15.6606  -45.7869 O.2       0 UNK        -0.5000 
      4 N           1.6408  -15.4603  -46.9838 N.am      1 UNK        -0.5000 
      5 CA          0.9428  -14.4842  -46.1325 C.3       1 UNK         0.1400 
      6 C6         -0.5928  -14.5275  -46.3437 C.3       23 UNK        -0.0398 
      7 S7         -1.2984  -16.1841  -46.0406 S.3       23 UNK        -0.2404 
      8 C8         -2.0083  -16.5902  -47.6667 C.3       23 UNK        -0.0205 
      9 C9         -0.9391  -16.8242  -48.7232 C.ar      23 UNK        -0.0193 
     10 C10        -0.6841  -15.8589  -49.7022 C.ar      23 UNK        -0.1150 
     11 C11         0.2650  -16.0935  -50.7017 C.ar      23 UNK        -0.0193 
     12 C12         0.9716  -17.2995  -50.7067 C.ar      23 UNK        -0.1150 
     13 C13         0.7337  -18.2670  -49.7269 C.ar      23 UNK        -0.0193 
     14 C14        -0.2203  -18.0218  -48.7357 C.ar      23 UNK        -0.1150 
     15 C15         1.5257  -19.5650  -49.7302 C.3       23 UNK        -0.0205 
     16 S16         0.8795  -20.7712  -50.9335 S.3       23 UNK        -0.2404 
     17 C17        -0.7157  -21.2698  -50.2001 C.3       23 UNK        -0.0398 
     18 CA         -0.6214  -22.5870  -49.3974 C.3       11 UNK         0.1400 
     19 N           0.2475  -22.4321  -48.2311 N.am      11 UNK        -0.5000 
     20 C           0.6919  -23.4189  -47.4450 C.2       10 UNK         0.5000 
     21 O           0.4282  -24.6065  -47.6204 O.2       10 UNK        -0.5000 
     22 CA          1.5264  -22.9862  -46.2247 C.3       10 UNK         0.1400 
     23 CB          3.0211  -22.9698  -46.5753 C.3       10 UNK        -0.1800 
     24 N           1.1445  -21.6710  -45.7013 N.am      10 UNK        -0.5000 
     25 C          -0.0657  -21.3318  -45.2396 C.2       9 UNK         0.5000 
     26 O          -1.0143  -22.1191  -45.2103 O.2       9 UNK        -0.5000 
     27 CA         -0.2429  -19.8676  -44.7752 C.3       9 UNK         0.1400 
     28 CB         -1.6436  -19.5984  -44.2006 C.3       9 UNK        -0.1800 
     29 N           0.7653  -19.4358  -43.8011 N.am      9 UNK        -0.5000 
     30 C           2.0497  -19.1640  -44.0710 C.2       8 UNK         0.5000 
     31 O           2.5387  -19.2633  -45.1973 O.2       8 UNK        -0.5000 
     32 CA          2.9073  -18.6949  -42.8862 C.3       8 UNK         0.1400 
     33 CB          4.3470  -18.3148  -43.2843 C.3       8 UNK        -0.1800 
     34 N           2.2458  -17.5667  -42.2380 N.am      8 UNK        -0.5000 
     35 C           2.3747  -17.2266  -40.9504 C.2       7 UNK         0.5000 
     36 O           3.0851  -17.8341  -40.1485 O.2       7 UNK        -0.5000 
     37 CA          1.5682  -16.0035  -40.4736 C.3       7 UNK         0.1400 
     38 CB          2.4246  -14.7300  -40.5517 C.3       7 UNK        -0.1800 
     39 N           0.3392  -15.7895  -41.2387 N.am      7 UNK        -0.5000 
     40 C          -0.7582  -16.5526  -41.1846 C.2       6 UNK         0.5000 
     41 O          -0.8532  -17.5453  -40.4613 O.2       6 UNK        -0.5000 
     42 CA         -1.9382  -16.1302  -42.0914 C.3       6 UNK         0.1400 
     43 CB         -3.2097  -16.9605  -41.8354 C.3       6 UNK        -0.1800 
     44 N          -2.2859  -14.7085  -41.9935 N.am      6 UNK        -0.5000 
     45 C          -1.5816  -13.6869  -42.4929 C.2       5 UNK         0.5000 
     46 O          -0.4887  -13.8167  -43.0565 O.2       5 UNK        -0.5000 
     47 CA         -2.1810  -12.2864  -42.3100 C.3       5 UNK         0.1400 
     48 CB         -1.9767  -11.7826  -40.8698 C.3       5 UNK        -0.1800 
     49 N          -1.4992  -11.4055  -43.2438 N.am      5 UNK        -0.5000 
     50 C          -1.8953  -10.2081  -43.6841 C.2       4 UNK         0.5000 
     51 O          -2.9560   -9.6725  -43.3580 O.2       4 UNK        -0.5000 
     52 CA         -0.9210   -9.5084  -44.6566 C.3       4 UNK         0.1400 
     53 CB         -1.1256   -7.9812  -44.7415 C.3       4 UNK        -0.1800 
     54 N           0.4773   -9.8602  -44.3726 N.am      4 UNK        -0.5000 
     55 C           1.1906   -9.5505  -43.2757 C.2       3 UNK         0.5000 
     56 O           0.7967   -8.7811  -42.3986 O.2       3 UNK        -0.5000 
     57 CA          2.5541  -10.2530  -43.0864 C.3       3 UNK         0.1400 
     58 CB          2.5193  -11.1484  -41.8357 C.3       3 UNK        -0.1800 
     59 N           2.9505  -11.0833  -44.2238 N.am      3 UNK        -0.5000 
     60 C           3.4027  -10.6332  -45.4009 C.2       2 UNK         0.5000 
     61 O           3.6272   -9.4461  -45.6379 O.2       2 UNK        -0.5000 
     62 CA          3.6029  -11.6845  -46.5107 C.3       2 UNK         0.1400 
     63 CB          5.0909  -12.0361  -46.6586 C.3       2 UNK        -0.1800 
     64 N           2.8445  -12.9241  -46.3078 N.am      2 UNK        -0.5000 
     65 C           1.5102  -13.0503  -46.2912 C.2       1 UNK         0.5000 
     66 O           0.7487  -12.0856  -46.3873 O.2       1 UNK        -0.5000 
     67 C          -2.0347  -23.0843  -49.0240 C.2       11 UNK         0.5000 
     68 O          -2.6541  -23.7941  -49.8187 O.2       11 UNK        -0.5000 
     69 N          -2.5122  -22.7098  -47.8274 N.am      12 UNK        -0.5000 
     70 CA         -3.7702  -23.1872  -47.2584 C.3       12 UNK         0.1400 
     71 CB         -4.3008  -22.1727  -46.2344 C.3       12 UNK        -0.1800 
     72 C          -3.5897  -24.5750  -46.6252 C.2       12 UNK         0.5000 
     73 O          -4.4384  -25.4443  -46.8236 O.2       12 UNK        -0.5000 
     74 N          -2.4691  -24.7683  -45.9120 N.am      13 UNK        -0.5000 
     75 CA         -2.0892  -26.0323  -45.2739 C.3       13 UNK         0.1400 
     76 CB         -0.8181  -25.8242  -44.4383 C.3       13 UNK        -0.1800 
     77 C          -1.8998  -27.1889  -46.2752 C.2       13 UNK         0.5000 
     78 O          -2.2612  -28.3252  -45.9658 O.2       13 UNK        -0.5000 
     79 N          -1.3923  -26.8754  -47.4753 N.am      14 UNK        -0.5000 
     80 CA         -1.2495  -27.7726  -48.6245 C.3       14 UNK         0.1400 
     81 CB         -0.2320  -27.1563  -49.6020 C.3       14 UNK        -0.1800 
     82 C          -2.6013  -28.0868  -49.3066 C.2       14 UNK         0.5000 
     83 O          -2.7550  -27.8657  -50.5094 O.2       14 UNK        -0.5000 
     84 N          -3.5714  -28.5691  -48.5154 N.am      15 UNK        -0.5000 
     85 CA         -4.9273  -28.9940  -48.8935 C.3       15 UNK         0.1400 
     86 CB         -4.8558  -30.3142  -49.6881 C.3       15 UNK        -0.1800 
     87 C          -5.7545  -27.9152  -49.6302 C.2       15 UNK         0.5000 
     88 O          -6.6574  -28.2538  -50.3973 O.2       15 UNK        -0.5000 
     89 N          -5.4083  -26.6386  -49.4070 N.am      16 UNK        -0.5000 
     90 CA         -5.9032  -25.4425  -50.0936 C.3       16 UNK         0.1400 
     91 CB         -7.3680  -25.1607  -49.7026 C.3       16 UNK        -0.1800 
     92 C          -5.6797  -25.4496  -51.6239 C.2       16 UNK         0.5000 
     93 O          -6.3919  -24.7473  -52.3428 O.2       16 UNK        -0.5000 
     94 N          -4.6961  -26.2234  -52.1086 N.am      17 UNK        -0.5000 
     95 CA         -4.4025  -26.3759  -53.5346 C.3       17 UNK         0.1400 
     96 CB         -3.4828  -27.5883  -53.7444 C.3       17 UNK        -0.1800 
     97 C          -3.7830  -25.1058  -54.1399 C.2       17 UNK         0.5000 
     98 O          -4.2030  -24.6684  -55.2116 O.2       17 UNK        -0.5000 
     99 N          -2.8162  -24.5201  -53.4220 N.am      18 UNK        -0.5000 
    100 CA        -2.1401  -23.2816  -53.8106 C.3       18 UNK         0.1400 
    101 CB        -0.6993  -23.3125  -53.2858 C.3       18 UNK        -0.1800 
    102 C         -2.8875  -22.0231  -53.3325 C.2       18 UNK         0.5000 
    103 O         -2.5763  -20.9256  -53.7965 O.2       18 UNK        -0.5000 
    104 N         -3.8773  -22.1855  -52.4408 N.am      19 UNK        -0.5000 
    105 CA        -4.7471  -21.1117  -51.9459 C.3       19 UNK         0.1400 
    106 CB        -5.6298  -21.6432  -50.8090 C.3       19 UNK        -0.1800 
    107 C         -5.6059  -20.4622  -53.0499 C.2       19 UNK         0.5000 
    108 O         -5.9906  -19.3008  -52.9184 O.2       19 UNK        -0.5000 
    109 N         -5.8607  -21.2112  -54.1318 N.am      20 UNK        -0.5000 
    110 CA        -6.5040  -20.7253  -55.3509 C.3       20 UNK         0.1400 
    111 CB        -6.9276  -21.9335  -56.2001 C.3       20 UNK        -0.1800 
    112 C         -5.6049  -19.7776  -56.1722 C.2       20 UNK         0.5000 
    113 O         -6.1319  -18.9312  -56.8953 O.2       20 UNK        -0.5000 
    114 N         -4.2775  -19.9330  -56.0573 N.am      21 UNK        -0.5000 
    115 CA        -3.2860  -19.0925  -56.7276 C.3       21 UNK         0.1400 
    116 CB        -2.0244  -19.9177  -57.0294 C.3       21 UNK        -0.1800 
    117 C         -2.9463  -17.8527  -55.8844 C.2       21 UNK         0.5000 
    118 O         -2.9007  -16.7478  -56.4269 O.2       21 UNK        -0.5000 
    119 N         -2.7361  -18.0493  -54.5774 N.am      22 UNK        -0.5000 
    120 CA        -2.4791  -16.9838  -53.6003 C.3       22 UNK         0.1400 
    121 C         -2.7981  -17.4659  -52.1650 C.2       22 UNK         0.5000 
    122 N         -2.2058  -18.5638  -51.7152 N.am      22 UNK        -0.7600 
    123 O         -3.5907  -16.8504  -51.4578 O.2       22 UNK        -0.5000 
    124 C124       -1.0475  -16.3889  -53.7202 C.3       23 UNK        -0.0398 
    125 S125       -0.8820  -14.7720  -52.8841 S.3       23 UNK        -0.2404 
    126 C126        0.5365  -15.0421  -51.7694 C.3       23 UNK        -0.0205 
    127 H127        4.4540  -17.0757  -47.7009 H         1 UNK         0.0600 
    128 H128        3.0984  -16.7210  -48.7711 H         1 UNK         0.0600 
    129 H129        2.9513  -17.9902  -47.5452 H         1 UNK         0.0600 
    130 H130        1.1202  -15.7717  -47.7926 H         1 UNK         0.3000 
    131 H131        1.1274  -14.7630  -45.0929 H         1 UNK         0.0600 
    132 H132       -0.8503  -14.1885  -47.3476 H         1 UNK         0.0800 
    133 H133       -1.0920  -13.8375  -45.6623 H         1 UNK         0.0800 
    134 H134       -2.6919  -15.7979  -47.9757 H         1 UNK         0.0800 
    135 H135       -2.6161  -17.4906  -47.5679 H         1 UNK         0.0800 
    136 H136       -1.2411  -14.9326  -49.7053 H         1 UNK         0.1150 
    137 H137        1.7090  -17.4898  -51.4738 H         1 UNK         0.1150 
    138 H138       -0.4113  -18.7634  -47.9746 H         1 UNK         0.1150 
    139 H139        2.5640  -19.3474  -49.9849 H         1 UNK         0.0800 
    140 H140        1.5526  -20.0032  -48.7327 H         1 UNK         0.0800 
    141 H141       -1.4183  -21.3783  -51.0242 H         1 UNK         0.0800 
    142 H142       -1.1152  -20.4683  -49.5802 H         1 UNK         0.0800 
    143 H143       -0.1716  -23.3549  -50.0286 H         1 UNK         0.0600 
    144 H144        0.5312  -21.4925  -48.0052 H         1 UNK         0.3000 
    145 H145        1.3665  -23.7181  -45.4319 H         1 UNK         0.0600 
    146 H146        3.6286  -22.7376  -45.7003 H         1 UNK         0.0600 
    147 H147        3.3460  -23.9424  -46.9474 H         1 UNK         0.0600 
    148 H148        3.2459  -22.2304  -47.3452 H         1 UNK         0.0600 
    149 H149        1.8646  -20.9530  -45.6825 H         1 UNK         0.3000 
    150 H150       -0.1354  -19.2444  -45.6646 H         1 UNK         0.0600 
    151 H151       -2.4219  -19.8653  -44.9165 H         1 UNK         0.0600 
    152 H152       -1.7738  -18.5421  -43.9738 H         1 UNK         0.0600 
    153 H153       -1.8231  -20.1673  -43.2876 H         1 UNK         0.0600 
    154 H154        0.4542  -19.3636  -42.8428 H         1 UNK         0.3000 
    155 H155        2.9549  -19.5336  -42.1885 H         1 UNK         0.0600 
    156 H156        4.3621  -17.4703  -43.9731 H         1 UNK         0.0600 
    157 H157        4.8520  -19.1486  -43.7734 H         1 UNK         0.0600 
    158 H158        4.9416  -18.0445  -42.4118 H         1 UNK         0.0600 
    159 H159        1.6342  -17.0165  -42.8244 H         1 UNK         0.3000 
    160 H160        1.2965  -16.1717  -39.4294 H         1 UNK         0.0600 
    161 H161        2.7051  -14.4958  -41.5795 H         1 UNK         0.0600 
    162 H162        3.3450  -14.8409  -39.9768 H         1 UNK         0.0600 
    163 H163        1.8905  -13.8708  -40.1455 H         1 UNK         0.0600 
    164 H164        0.3160  -14.9904  -41.8671 H         1 UNK         0.3000 
    165 H165       -1.6188  -16.3247  -43.1156 H         1 UNK         0.0600 
    166 H166       -3.9922  -16.7126  -42.5528 H         1 UNK         0.0600 
    167 H167       -3.0147  -18.0291  -41.9317 H         1 UNK         0.0600 
    168 H168       -3.6049  -16.7896  -40.8334 H         1 UNK         0.0600 
    169 H169       -3.1482  -14.5043  -41.5094 H         1 UNK         0.3000 
    170 H170       -3.2449  -12.3204  -42.5527 H         1 UNK         0.0600 
    171 H171       -2.4668  -12.4379  -40.1491 H         1 UNK         0.0600 
    172 H172       -0.9185  -11.7373  -40.6083 H         1 UNK         0.0600 
    173 H173       -2.3955  -10.7852  -40.7355 H         1 UNK         0.0600 
    174 H174       -0.6358  -11.7974  -43.5988 H         1 UNK         0.3000 
    175 H175       -1.1366   -9.9200  -45.6436 H         1 UNK         0.0600 
    176 H176       -1.0332   -7.5004  -43.7676 H         1 UNK         0.0600 
    177 H177       -0.4003   -7.5230  -45.4138 H         1 UNK         0.0600 
    178 H178       -2.1183   -7.7443  -45.1255 H         1 UNK         0.0600 
    179 H179        0.8849  -10.5140  -45.0321 H         1 UNK         0.3000 
    180 H180        3.3079   -9.4771  -42.9385 H         1 UNK         0.0600 
    181 H181        3.4817  -11.6316  -41.6664 H         1 UNK         0.0600 
    182 H182        1.7614  -11.9284  -41.9224 H         1 UNK         0.0600 
    183 H183        2.2892  -10.5675  -40.9416 H         1 UNK         0.0600 
    184 H184        2.8089  -12.0777  -44.1256 H         1 UNK         0.3000 
    185 H185        3.2609  -11.2365  -47.4458 H         1 UNK         0.0600 
    186 H186        5.2548  -12.7124  -47.4979 H         1 UNK         0.0600 
    187 H187        5.6892  -11.1424  -46.8410 H         1 UNK         0.0600 
    188 H188        5.4808  -12.5159  -45.7600 H         1 UNK         0.0600 
    189 H189        3.3852  -13.7750  -46.1804 H         1 UNK         0.3000 
    190 H190       -1.9186  -22.1763  -47.2063 H         1 UNK         0.3000 
    191 H191       -4.5135  -23.2707  -48.0510 H         1 UNK         0.0600 
    192 H192       -5.2776  -22.4791  -45.8583 H         1 UNK         0.0600 
    193 H193       -4.4200  -21.1859  -46.6820 H         1 UNK         0.0600 
    194 H194       -3.6390  -22.0736  -45.3742 H         1 UNK         0.0600 
    195 H195       -1.8441  -23.9826  -45.7737 H         1 UNK         0.3000 
    196 H196       -2.8992  -26.3109  -44.5968 H         1 UNK         0.0600 
    197 H197        0.0459  -25.6162  -45.0682 H         1 UNK         0.0600 
    198 H198       -0.9328  -24.9971  -43.7372 H         1 UNK         0.0600 
    199 H199       -0.5875  -26.7168  -43.8556 H         1 UNK         0.0600 
    200 H200       -1.0549  -25.9277  -47.6116 H         1 UNK         0.3000 
    201 H201       -0.8410  -28.7218  -48.2725 H         1 UNK         0.0600 
    202 H202       -0.5744  -26.1923  -49.9812 H         1 UNK         0.0600 
    203 H203       -0.0632  -27.8086  -50.4597 H         1 UNK         0.0600 
    204 H204        0.7332  -27.0012  -49.1196 H         1 UNK         0.0600 
    205 H205       -3.3397  -28.6670  -47.5305 H         1 UNK         0.3000 
    206 H206       -5.4557  -29.1940  -47.9604 H         1 UNK         0.0600 
    207 H207       -4.2850  -31.0694  -49.1478 H         1 UNK         0.0600 
    208 H208       -5.8508  -30.7260  -49.8607 H         1 UNK         0.0600 
    209 H209       -4.3859  -30.1718  -50.6620 H         1 UNK         0.0600 
    210 H210       -4.6946  -26.4667  -48.7084 H         1 UNK         0.3000 
    211 H211       -5.3006  -24.6167  -49.7199 H         1 UNK         0.0600 
    212 H212       -7.7026  -24.1978  -50.0894 H         1 UNK         0.0600 
    213 H213       -7.4858  -25.1303  -48.6193 H         1 UNK         0.0600 
    214 H214       -8.0439  -25.9219  -50.0931 H         1 UNK         0.0600 
    215 H215       -4.1318  -26.7718  -51.4655 H         1 UNK         0.3000 
    216 H216       -5.3416  -26.5720  -54.0564 H         1 UNK         0.0600 
    217 H217       -2.5206  -27.4576  -53.2477 H         1 UNK         0.0600 
    218 H218       -3.2861  -27.7502  -54.8049 H         1 UNK         0.0600 
    219 H219       -3.9376  -28.4991  -53.3540 H         1 UNK         0.0600 
    220 H220       -2.5460  -24.9345  -52.5406 H         1 UNK         0.3000 
    221 H221       -2.0899  -23.2201  -54.8998 H         1 UNK         0.0600 
    222 H222       -0.1261  -24.1052  -53.7668 H         1 UNK         0.0600 
    223 H223       -0.6693  -23.4890  -52.2135 H         1 UNK         0.0600 
    224 H224       -0.1829  -22.3725  -53.4855 H         1 UNK         0.0600 
    225 H225       -4.0637  -23.1167  -52.0996 H         1 UNK         0.3000 
    226 H226       -4.1094  -20.3351  -51.5275 H         1 UNK         0.0600 
    227 H227       -6.3396  -22.3886  -51.1647 H         1 UNK         0.0600 
    228 H228       -5.0281  -22.0912  -50.0199 H         1 UNK         0.0600 
    229 H229       -6.2069  -20.8356  -50.3570 H         1 UNK         0.0600 
    230 H230       -5.5309  -22.1659  -54.1423 H         1 UNK         0.3000 
    231 H231       -7.4022  -20.1715  -55.0699 H         1 UNK         0.0600 
    232 H232       -6.0692  -22.5390  -56.4948 H         1 UNK         0.0600 
    233 H233       -7.4331  -21.6130  -57.1120 H         1 UNK         0.0600 
    234 H234       -7.6190  -22.5760  -55.6545 H         1 UNK         0.0600 
    235 H235       -3.9174  -20.6058  -55.3935 H         1 UNK         0.3000 
    236 H236       -3.6895  -18.7492  -57.6828 H         1 UNK         0.0600 
    237 H237       -2.2600  -20.7853  -57.6459 H         1 UNK         0.0600 
    238 H238       -1.2930  -19.3204  -57.5752 H         1 UNK         0.0600 
    239 H239       -1.5390  -20.2747  -56.1212 H         1 UNK         0.0600 
    240 H240       -2.7940  -18.9911  -54.2011 H         1 UNK         0.3000 
    241 H241       -3.1911  -16.1851  -53.8192 H         1 UNK         0.0600 
    242 H242       -2.3824  -18.8345  -50.7643 H         1 UNK         0.3800 
    243 H243       -1.5486  -19.0796  -52.2786 H         1 UNK         0.3800 
    244 H244       -0.7957  -16.2223  -54.7676 H         1 UNK         0.0800 
    245 H245       -0.3018  -17.0932  -53.3496 H         1 UNK         0.0800 
    246 H246        1.4104  -15.3096  -52.3654 H         1 UNK         0.0800 
    247 H247        0.7808  -14.0987  -51.2792 H         1 UNK         0.0800 
@<TRIPOS>BOND
     1    1    2 1    
     2    1  127 1    
     3    1  128 1    
     4    1  129 1    
     5    2    3 2    
     6    2    4 am   BACKBONE|DICT|INTERRES
     7    4    5 1    
     8    4  130 1    
     9    5    6 1    
    10    5   65 1    
    11    5  131 1    
    12    6    7 1    
    13    6  132 1    
    14    6  133 1    
    15    7    8 1    
    16    8    9 1    
    17    8  134 1    
    18    8  135 1    
    19    9   10 ar   
    20    9   14 ar   
    21   10   11 ar   
    22   10  136 1    
    23   11   12 ar   
    24   11  126 1    
    25   12   13 ar   
    26   12  137 1    
    27   13   14 ar   
    28   13   15 1    
    29   14  138 1    
    30   15   16 1    
    31   15  139 1    
    32   15  140 1    
    33   16   17 1    
    34   17   18 1    
    35   17  141 1    
    36   17  142 1    
    37   18   19 1    
    38   18   67 1    
    39   18  143 1    
    40   19   20 am   BACKBONE|DICT|INTERRES
    41   19  144 1    
    42   20   21 2    
    43   20   22 1    
    44   22   23 1    
    45   22   24 1    
    46   22  145 1    
    47   23  146 1    
    48   23  147 1    
    49   23  148 1    
    50   24   25 am   BACKBONE|DICT|INTERRES
    51   24  149 1    
    52   25   26 2    
    53   25   27 1    
    54   27   28 1    
    55   27   29 1    
    56   27  150 1    
    57   28  151 1    
    58   28  152 1    
    59   28  153 1    
    60   29   30 am   BACKBONE|DICT|INTERRES
    61   29  154 1    
    62   30   31 2    
    63   30   32 1    
    64   32   33 1    
    65   32   34 1    
    66   32  155 1    
    67   33  156 1    
    68   33  157 1    
    69   33  158 1    
    70   34   35 am   BACKBONE|DICT|INTERRES
    71   34  159 1    
    72   35   36 2    
    73   35   37 1    
    74   37   38 1    
    75   37   39 1    
    76   37  160 1    
    77   38  161 1    
    78   38  162 1    
    79   38  163 1    
    80   39   40 am   BACKBONE|DICT|INTERRES
    81   39  164 1    
    82   40   41 2    
    83   40   42 1    
    84   42   43 1    
    85   42   44 1    
    86   42  165 1    
    87   43  166 1    
    88   43  167 1    
    89   43  168 1    
    90   44   45 am   BACKBONE|DICT|INTERRES
    91   44  169 1    
    92   45   46 2    
    93   45   47 1    
    94   47   48 1    
    95   47   49 1    
    96   47  170 1    
    97   48  171 1    
    98   48  172 1    
    99   48  173 1    
   100   49   50 am   BACKBONE|DICT|INTERRES
   101   49  174 1    
   102   50   51 2    
   103   50   52 1    
   104   52   53 1    
   105   52   54 1    
   106   52  175 1    
   107   53  176 1    
   108   53  177 1    
   109   53  178 1    
   110   54   55 am   BACKBONE|DICT|INTERRES
   111   54  179 1    
   112   55   56 2    
   113   55   57 1    
   114   57   58 1    
   115   57   59 1    
   116   57  180 1    
   117   58  181 1    
   118   58  182 1    
   119   58  183 1    
   120   59   60 am   BACKBONE|DICT|INTERRES
   121   59  184 1    
   122   60   61 2    
   123   60   62 1    
   124   62   63 1    
   125   62   64 1    
   126   62  185 1    
   127   63  186 1    
   128   63  187 1    
   129   63  188 1    
   130   64   65 am   BACKBONE|DICT|INTERRES
   131   64  189 1    
   132   65   66 2    
   133   67   68 2    
   134   67   69 am   BACKBONE|DICT|INTERRES
   135   69   70 1    
   136   69  190 1    
   137   70   71 1    
   138   70   72 1    
   139   70  191 1    
   140   71  192 1    
   141   71  193 1    
   142   71  194 1    
   143   72   73 2    
   144   72   74 am   BACKBONE|DICT|INTERRES
   145   74   75 1    
   146   74  195 1    
   147   75   76 1    
   148   75   77 1    
   149   75  196 1    
   150   76  197 1    
   151   76  198 1    
   152   76  199 1    
   153   77   78 2    
   154   77   79 am   BACKBONE|DICT|INTERRES
   155   79   80 1    
   156   79  200 1    
   157   80   81 1    
   158   80   82 1    
   159   80  201 1    
   160   81  202 1    
   161   81  203 1    
   162   81  204 1    
   163   82   83 2    
   164   82   84 am   BACKBONE|DICT|INTERRES
   165   84   85 1    
   166   84  205 1    
   167   85   86 1    
   168   85   87 1    
   169   85  206 1    
   170   86  207 1    
   171   86  208 1    
   172   86  209 1    
   173   87   88 2    
   174   87   89 am   BACKBONE|DICT|INTERRES
   175   89   90 1    
   176   89  210 1    
   177   90   91 1    
   178   90   92 1    
   179   90  211 1    
   180   91  212 1    
   181   91  213 1    
   182   91  214 1    
   183   92   93 2    
   184   92   94 am   BACKBONE|DICT|INTERRES
   185   94   95 1    
   186   94  215 1    
   187   95   96 1    
   188   95   97 1    
   189   95  216 1    
   190   96  217 1    
   191   96  218 1    
   192   96  219 1    
   193   97   98 2    
   194   97   99 am   BACKBONE|DICT|INTERRES
   195   99  100 1    
   196   99  220 1    
   197  100  101 1    
   198  100  102 1    
   199  100  221 1    
   200  101  222 1    
   201  101  223 1    
   202  101  224 1    
   203  102  103 2    
   204  102  104 am   BACKBONE|DICT|INTERRES
   205  104  105 1    
   206  104  225 1    
   207  105  106 1    
   208  105  107 1    
   209  105  226 1    
   210  106  227 1    
   211  106  228 1    
   212  106  229 1    
   213  107  108 2    
   214  107  109 am   BACKBONE|DICT|INTERRES
   215  109  110 1    
   216  109  230 1    
   217  110  111 1    
   218  110  112 1    
   219  110  231 1    
   220  111  232 1    
   221  111  233 1    
   222  111  234 1    
   223  112  113 2    
   224  112  114 am   BACKBONE|DICT|INTERRES
   225  114  115 1    
   226  114  235 1    
   227  115  116 1    
   228  115  117 1    
   229  115  236 1    
   230  116  237 1    
   231  116  238 1    
   232  116  239 1    
   233  117  118 2    
   234  117  119 am   BACKBONE|DICT|INTERRES
   235  119  120 1    
   236  119  240 1    
   237  120  121 1    
   238  120  124 1    
   239  120  241 1    
   240  121  122 am   BACKBONE|DICT|INTERRES
   241  121  123 2    
   242  122  242 1    
   243  122  243 1    
   244  124  125 1    
   245  124  244 1    
   246  124  245 1    
   247  125  126 1    
   248  126  246 1    
   249  126  247 1    
@<TRIPOS>SUBSTRUCTURE
     1 UNK         1 GROUP             0       ****    0 ROOT    
