@<TRIPOS>MOLECULE
3R540
247   249    1
SMALL
USER_CHARGES


@<TRIPOS>ATOM
      1 CA         -4.5818  -14.8460  -45.6732 C.3       0 UNK        -0.1800 
      2 C          -3.6169  -13.8366  -46.2797 C.2       0 UNK         0.5000 
      3 O          -4.0551  -12.8538  -46.8769 O.2       0 UNK        -0.5000 
      4 N          -2.3077  -14.0779  -46.1315 N.am      1 UNK        -0.5000 
      5 CA         -1.2294  -13.2484  -46.6881 C.3       1 UNK         0.1400 
      6 C6          0.1403  -13.9718  -46.6688 C.3       23 UNK        -0.0398 
      7 S7          0.0822  -15.5704  -47.5350 S.3       23 UNK        -0.2404 
      8 C8          0.5056  -15.0742  -49.2272 C.3       23 UNK        -0.0205 
      9 C9          0.1398  -16.1780  -50.2025 C.ar      23 UNK        -0.0193 
     10 C10        -1.0687  -16.1282  -50.9013 C.ar      23 UNK        -0.1150 
     11 C11        -1.4173  -17.1484  -51.7904 C.ar      23 UNK        -0.0193 
     12 C12        -0.5501  -18.2293  -51.9728 C.ar      23 UNK        -0.1150 
     13 C13         0.6616  -18.2888  -51.2766 C.ar      23 UNK        -0.0193 
     14 C14         1.0038  -17.2569  -50.3983 C.ar      23 UNK        -0.1150 
     15 C15         1.6097  -19.4600  -51.4785 C.3       23 UNK        -0.0205 
     16 S16         1.0094  -20.9780  -50.6781 S.3       23 UNK        -0.2404 
     17 C17         1.0556  -20.5377  -48.9057 C.3       23 UNK        -0.0398 
     18 CA          0.0472  -21.3743  -48.0827 C.3       11 UNK         0.1400 
     19 N           0.4111  -21.4361  -46.6666 N.am      11 UNK        -0.5000 
     20 C           0.8495  -22.5527  -46.0670 C.2       10 UNK         0.5000 
     21 O           0.8613  -23.6621  -46.6012 O.2       10 UNK        -0.5000 
     22 CA          1.4200  -22.4257  -44.6461 C.3       10 UNK         0.1400 
     23 CB          2.9169  -22.0870  -44.7127 C.3       10 UNK        -0.1800 
     24 N           0.7298  -21.4493  -43.8056 N.am      10 UNK        -0.5000 
     25 C          -0.4909  -21.6376  -43.2862 C.2       9 UNK         0.5000 
     26 O          -1.1933  -22.6201  -43.5265 O.2       9 UNK        -0.5000 
     27 CA         -1.0100  -20.5545  -42.3219 C.3       9 UNK         0.1400 
     28 CB         -0.3867  -20.7254  -40.9282 C.3       9 UNK        -0.1800 
     29 N          -0.7589  -19.1968  -42.7993 N.am      9 UNK        -0.5000 
     30 C          -1.3288  -18.6640  -43.8870 C.2       8 UNK         0.5000 
     31 O          -2.1458  -19.2525  -44.5921 O.2       8 UNK        -0.5000 
     32 CA         -0.8643  -17.2556  -44.2910 C.3       8 UNK         0.1400 
     33 CB         -1.4801  -16.1801  -43.3833 C.3       8 UNK        -0.1800 
     34 N           0.5905  -17.1325  -44.2953 N.am      8 UNK        -0.5000 
     35 C           1.4109  -17.8659  -45.0637 C.2       7 UNK         0.5000 
     36 O           1.0288  -18.7086  -45.8790 O.2       7 UNK        -0.5000 
     37 CA          2.9158  -17.6430  -44.8467 C.3       7 UNK         0.1400 
     38 CB          3.3914  -16.4030  -45.6186 C.3       7 UNK        -0.1800 
     39 N           3.2508  -17.5017  -43.4276 N.am      7 UNK        -0.5000 
     40 C           3.1279  -18.4833  -42.5212 C.2       6 UNK         0.5000 
     41 O           2.7430  -19.6195  -42.7890 O.2       6 UNK        -0.5000 
     42 CA          3.4291  -18.1163  -41.0588 C.3       6 UNK         0.1400 
     43 CB          4.9434  -18.0358  -40.8136 C.3       6 UNK        -0.1800 
     44 N           2.8014  -16.8554  -40.6675 N.am      6 UNK        -0.5000 
     45 C           1.4777  -16.6444  -40.6220 C.2       5 UNK         0.5000 
     46 O           0.6374  -17.5108  -40.8616 O.2       5 UNK        -0.5000 
     47 CA          1.0199  -15.2121  -40.2932 C.3       5 UNK         0.1400 
     48 CB          0.8221  -15.0433  -38.7797 C.3       5 UNK        -0.1800 
     49 N           1.9569  -14.1955  -40.7774 N.am      5 UNK        -0.5000 
     50 C           2.1816  -13.9278  -42.0697 C.2       4 UNK         0.5000 
     51 O           1.6038  -14.4923  -43.0030 O.2       4 UNK        -0.5000 
     52 CA          3.2486  -12.8716  -42.3697 C.3       4 UNK         0.1400 
     53 CB          4.4821  -13.4986  -43.0418 C.3       4 UNK        -0.1800 
     54 N           2.6582  -11.8612  -43.2350 N.am      4 UNK        -0.5000 
     55 C           3.0252  -10.5751  -43.2788 C.2       3 UNK         0.5000 
     56 O           3.9673  -10.1101  -42.6355 O.2       3 UNK        -0.5000 
     57 CA          2.1954   -9.6426  -44.1820 C.3       3 UNK         0.1400 
     58 CB          2.8525   -9.5120  -45.5645 C.3       3 UNK        -0.1800 
     59 N           0.8099  -10.0808  -44.3580 N.am      3 UNK        -0.5000 
     60 C          -0.1345  -10.1062  -43.4101 C.2       2 UNK         0.5000 
     61 O           0.0594   -9.7418  -42.2501 O.2       2 UNK        -0.5000 
     62 CA         -1.5259  -10.6430  -43.8084 C.3       2 UNK         0.1400 
     63 CB         -2.4168   -9.5122  -44.3561 C.3       2 UNK        -0.1800 
     64 N          -1.5156  -11.8001  -44.7183 N.am      2 UNK        -0.5000 
     65 C          -1.1041  -11.8773  -45.9941 C.2       1 UNK         0.5000 
     66 O          -0.6135  -10.9350  -46.6168 O.2       1 UNK        -0.5000 
     67 C          -1.4087  -20.9248  -48.2844 C.2       11 UNK         0.5000 
     68 O          -2.1837  -21.6783  -48.8736 O.2       11 UNK        -0.5000 
     69 N          -1.7783  -19.7279  -47.8045 N.am      12 UNK        -0.5000 
     70 CA         -3.0951  -19.1389  -48.0840 C.3       12 UNK         0.1400 
     71 CB         -3.1381  -17.6730  -47.6340 C.3       12 UNK        -0.1800 
     72 C          -4.2667  -19.9395  -47.4840 C.2       12 UNK         0.5000 
     73 O          -5.2586  -20.1749  -48.1740 O.2       12 UNK        -0.5000 
     74 N          -4.1108  -20.3776  -46.2283 N.am      13 UNK        -0.5000 
     75 CA         -5.0682  -21.2238  -45.5153 C.3       13 UNK         0.1400 
     76 CB         -4.7722  -21.1602  -44.0097 C.3       13 UNK        -0.1800 
     77 C          -5.0594  -22.6851  -46.0029 C.2       13 UNK         0.5000 
     78 O          -6.0860  -23.3582  -45.9036 O.2       13 UNK        -0.5000 
     79 N          -3.9138  -23.1505  -46.5222 N.am      14 UNK        -0.5000 
     80 CA         -3.7583  -24.4761  -47.1270 C.3       14 UNK         0.1400 
     81 CB         -2.2669  -24.8270  -47.2144 C.3       14 UNK        -0.1800 
     82 C          -4.4257  -24.5716  -48.5120 C.2       14 UNK         0.5000 
     83 O          -4.8730  -25.6537  -48.8948 O.2       14 UNK        -0.5000 
     84 N          -4.5012  -23.4346  -49.2182 N.am      15 UNK        -0.5000 
     85 CA         -5.1351  -23.2398  -50.5201 C.3       15 UNK         0.1400 
     86 CB         -6.6659  -23.4259  -50.4042 C.3       15 UNK        -0.1800 
     87 C          -4.4652  -24.1004  -51.6091 C.2       15 UNK         0.5000 
     88 O          -3.2345  -24.1552  -51.6591 O.2       15 UNK        -0.5000 
     89 N          -5.2688  -24.7721  -52.4451 N.am      16 UNK        -0.5000 
     90 CA         -4.8454  -25.5655  -53.6023 C.3       16 UNK         0.1400 
     91 CB         -6.0926  -26.0656  -54.3459 C.3       16 UNK        -0.1800 
     92 C          -3.8873  -26.7327  -53.2925 C.2       16 UNK         0.5000 
     93 O          -3.2066  -27.2045  -54.2038 O.2       16 UNK        -0.5000 
     94 N          -3.8205  -27.1587  -52.0233 N.am      17 UNK        -0.5000 
     95 CA         -2.8341  -28.1173  -51.5246 C.3       17 UNK         0.1400 
     96 CB         -3.2494  -28.5806  -50.1201 C.3       17 UNK        -0.1800 
     97 C          -1.3986  -27.5506  -51.5011 C.2       17 UNK         0.5000 
     98 O          -0.4487  -28.3331  -51.5541 O.2       17 UNK        -0.5000 
     99 N          -1.2645  -26.2193  -51.4233 N.am      18 UNK        -0.5000 
    100 CA         0.0069  -25.5020  -51.4279 C.3       18 UNK         0.1400 
    101 CB         0.0561  -24.5554  -50.2219 C.3       18 UNK        -0.1800 
    102 C          0.2031  -24.7287  -52.7417 C.2       18 UNK         0.5000 
    103 O          1.2682  -24.8476  -53.3494 O.2       18 UNK        -0.5000 
    104 N         -0.8142  -23.9709  -53.1742 N.am      19 UNK        -0.5000 
    105 CA        -0.7872  -23.1747  -54.3980 C.3       19 UNK         0.1400 
    106 CB        -0.0087  -21.8655  -54.1730 C.3       19 UNK        -0.1800 
    107 C         -2.2207  -22.8768  -54.8504 C.2       19 UNK         0.5000 
    108 O         -2.9909  -22.2902  -54.0897 O.2       19 UNK        -0.5000 
    109 N         -2.5405  -23.2360  -56.1010 N.am      20 UNK        -0.5000 
    110 CA        -3.8539  -23.0628  -56.7384 C.3       20 UNK         0.1400 
    111 CB        -3.8492  -23.8091  -58.0816 C.3       20 UNK        -0.1800 
    112 C         -4.3027  -21.5976  -56.9282 C.2       20 UNK         0.5000 
    113 O         -5.4685  -21.3592  -57.2458 O.2       20 UNK        -0.5000 
    114 N         -3.3851  -20.6438  -56.7195 N.am      21 UNK        -0.5000 
    115 CA        -3.6561  -19.2074  -56.6625 C.3       21 UNK         0.1400 
    116 CB        -2.3158  -18.4552  -56.6452 C.3       21 UNK        -0.1800 
    117 C         -4.5159  -18.7933  -55.4491 C.2       21 UNK         0.5000 
    118 O         -5.1496  -17.7385  -55.5009 O.2       21 UNK        -0.5000 
    119 N         -4.5168  -19.6132  -54.3903 N.am      22 UNK        -0.5000 
    120 CA        -5.3174  -19.4384  -53.1732 C.3       22 UNK         0.1400 
    121 C         -6.3142  -20.6140  -52.9891 C.2       22 UNK         0.5000 
    122 N         -7.3446  -20.4245  -52.1758 N.am      22 UNK        -0.7600 
    123 O         -6.1708  -21.6934  -53.5576 O.2       22 UNK        -0.5000 
    124 C124       -4.4027  -19.2433  -51.9294 C.3       23 UNK        -0.0398 
    125 S125       -4.1633  -17.4737  -51.5580 S.3       23 UNK        -0.2404 
    126 C126       -2.7146  -17.0533  -52.5750 C.3       23 UNK        -0.0205 
    127 H127       -5.2782  -15.2012  -46.4328 H         1 UNK         0.0600 
    128 H128       -5.1568  -14.3812  -44.8725 H         1 UNK         0.0600 
    129 H129       -4.0627  -15.7113  -45.2627 H         1 UNK         0.0600 
    130 H130       -2.0079  -14.9200  -45.6659 H         1 UNK         0.3000 
    131 H131       -1.4827  -13.0458  -47.7311 H         1 UNK         0.0600 
    132 H132        0.9177  -13.3536  -47.1223 H         1 UNK         0.0800 
    133 H133        0.4620  -14.1609  -45.6426 H         1 UNK         0.0800 
    134 H134       -0.0207  -14.1547  -49.4873 H         1 UNK         0.0800 
    135 H135        1.5722  -14.8529  -49.2879 H         1 UNK         0.0800 
    136 H136       -1.7420  -15.2954  -50.7531 H         1 UNK         0.1150 
    137 H137       -0.8145  -19.0222  -52.6576 H         1 UNK         0.1150 
    138 H138        1.9366  -17.2979  -49.8535 H         1 UNK         0.1150 
    139 H139        1.7245  -19.6479  -52.5469 H         1 UNK         0.0800 
    140 H140        2.6061  -19.2250  -51.1011 H         1 UNK         0.0800 
    141 H141        2.0712  -20.7308  -48.5575 H         1 UNK         0.0800 
    142 H142        0.8889  -19.4707  -48.7581 H         1 UNK         0.0800 
    143 H143        0.0847  -22.3839  -48.4913 H         1 UNK         0.0600 
    144 H144        0.4672  -20.5502  -46.1715 H         1 UNK         0.3000 
    145 H145        1.3240  -23.4035  -44.1690 H         1 UNK         0.0600 
    146 H146        3.3702  -22.1076  -43.7216 H         1 UNK         0.0600 
    147 H147        3.4559  -22.8078  -45.3289 H         1 UNK         0.0600 
    148 H148        3.0855  -21.0980  -45.1405 H         1 UNK         0.0600 
    149 H149        1.2690  -20.6354  -43.5234 H         1 UNK         0.3000 
    150 H150       -2.0900  -20.6821  -42.2260 H         1 UNK         0.0600 
    151 H151       -0.5665  -21.7281  -40.5385 H         1 UNK         0.0600 
    152 H152       -0.8136  -20.0178  -40.2173 H         1 UNK         0.0600 
    153 H153        0.6924  -20.5669  -40.9479 H         1 UNK         0.0600 
    154 H154       -0.1147  -18.6321  -42.2524 H         1 UNK         0.3000 
    155 H155       -1.2027  -17.0740  -45.3105 H         1 UNK         0.0600 
    156 H156       -1.1383  -15.1819  -43.6559 H         1 UNK         0.0600 
    157 H157       -1.2249  -16.3419  -42.3373 H         1 UNK         0.0600 
    158 H158       -2.5679  -16.1895  -43.4503 H         1 UNK         0.0600 
    159 H159        0.9941  -16.4383  -43.6776 H         1 UNK         0.3000 
    160 H160        3.4449  -18.5149  -45.2367 H         1 UNK         0.0600 
    161 H161        2.8785  -15.4996  -45.2870 H         1 UNK         0.0600 
    162 H162        3.1957  -16.5128  -46.6862 H         1 UNK         0.0600 
    163 H163        4.4634  -16.2472  -45.4981 H         1 UNK         0.0600 
    164 H164        3.5355  -16.5858  -43.1163 H         1 UNK         0.3000 
    165 H165        3.0213  -18.9073  -40.4255 H         1 UNK         0.0600 
    166 H166        5.4069  -17.2370  -41.3938 H         1 UNK         0.0600 
    167 H167        5.1625  -17.8563  -39.7609 H         1 UNK         0.0600 
    168 H168        5.4330  -18.9702  -41.0913 H         1 UNK         0.0600 
    169 H169        3.4173  -16.0877  -40.4459 H         1 UNK         0.3000 
    170 H170        0.0581  -15.0477  -40.7825 H         1 UNK         0.0600 
    171 H171        0.1101  -15.7753  -38.3957 H         1 UNK         0.0600 
    172 H172        1.7564  -15.1759  -38.2326 H         1 UNK         0.0600 
    173 H173        0.4298  -14.0546  -38.5410 H         1 UNK         0.0600 
    174 H174        2.4641  -13.6802  -40.0721 H         1 UNK         0.3000 
    175 H175        3.5565  -12.4088  -41.4294 H         1 UNK         0.0600 
    176 H176        5.2665  -12.7569  -43.1931 H         1 UNK         0.0600 
    177 H177        4.9031  -14.2948  -42.4268 H         1 UNK         0.0600 
    178 H178        4.2375  -13.9247  -44.0147 H         1 UNK         0.0600 
    179 H179        1.8579  -12.1664  -43.7713 H         1 UNK         0.3000 
    180 H180        2.1805   -8.6565  -43.7135 H         1 UNK         0.0600 
    181 H181        2.3184   -8.7956  -46.1889 H         1 UNK         0.0600 
    182 H182        3.8822   -9.1625  -45.4773 H         1 UNK         0.0600 
    183 H183        2.8723  -10.4669  -46.0914 H         1 UNK         0.0600 
    184 H184        0.5283  -10.3594  -45.2946 H         1 UNK         0.3000 
    185 H185       -1.9896  -11.0027  -42.8884 H         1 UNK         0.0600 
    186 H186       -3.4213   -9.8739  -44.5760 H         1 UNK         0.0600 
    187 H187       -2.5135   -8.7063  -43.6275 H         1 UNK         0.0600 
    188 H188       -2.0099   -9.0767  -45.2690 H         1 UNK         0.0600 
    189 H189       -1.8837  -12.6502  -44.3161 H         1 UNK         0.3000 
    190 H190       -1.1150  -19.1625  -47.2930 H         1 UNK         0.3000 
    191 H191       -3.2204  -19.1468  -49.1681 H         1 UNK         0.0600 
    192 H192       -4.0848  -17.2108  -47.9160 H         1 UNK         0.0600 
    193 H193       -2.3465  -17.0934  -48.1068 H         1 UNK         0.0600 
    194 H194       -3.0400  -17.5793  -46.5544 H         1 UNK         0.0600 
    195 H195       -3.2857  -20.0834  -45.7067 H         1 UNK         0.3000 
    196 H196       -6.0704  -20.8236  -45.6820 H         1 UNK         0.0600 
    197 H197       -5.5036  -21.7368  -43.4421 H         1 UNK         0.0600 
    198 H198       -4.8079  -20.1345  -43.6419 H         1 UNK         0.0600 
    199 H199       -3.7860  -21.5643  -43.7809 H         1 UNK         0.0600 
    200 H200       -3.1247  -22.5241  -46.5827 H         1 UNK         0.3000 
    201 H201       -4.2393  -25.2109  -46.4779 H         1 UNK         0.0600 
    202 H202       -1.8041  -24.8345  -46.2273 H         1 UNK         0.0600 
    203 H203       -1.7226  -24.1136  -47.8317 H         1 UNK         0.0600 
    204 H204       -2.1213  -25.8157  -47.6515 H         1 UNK         0.0600 
    205 H205       -3.9822  -22.6356  -48.8702 H         1 UNK         0.3000 
    206 H206       -4.9428  -22.2029  -50.7957 H         1 UNK         0.0600 
    207 H207       -7.0771  -22.7651  -49.6406 H         1 UNK         0.0600 
    208 H208       -7.1707  -23.1832  -51.3388 H         1 UNK         0.0600 
    209 H209       -6.9383  -24.4476  -50.1379 H         1 UNK         0.0600 
    210 H210       -6.2651  -24.6691  -52.3213 H         1 UNK         0.3000 
    211 H211       -4.3032  -24.8926  -54.2651 H         1 UNK         0.0600 
    212 H212       -6.6999  -26.7176  -53.7170 H         1 UNK         0.0600 
    213 H213       -5.8179  -26.6308  -55.2376 H         1 UNK         0.0600 
    214 H214       -6.7168  -25.2332  -54.6720 H         1 UNK         0.0600 
    215 H215       -4.4048  -26.7077  -51.3323 H         1 UNK         0.3000 
    216 H216       -2.8377  -28.9861  -52.1861 H         1 UNK         0.0600 
    217 H217       -2.5707  -29.3484  -49.7467 H         1 UNK         0.0600 
    218 H218       -4.2525  -29.0073  -50.1235 H         1 UNK         0.0600 
    219 H219       -3.2359  -27.7574  -49.4051 H         1 UNK         0.0600 
    220 H220       -2.0985  -25.6379  -51.4249 H         1 UNK         0.3000 
    221 H221        0.8405  -26.2006  -51.3307 H         1 UNK         0.0600 
    222 H222       -0.7611  -23.8330  -50.2428 H         1 UNK         0.0600 
    223 H223       -0.0074  -25.1092  -49.2854 H         1 UNK         0.0600 
    224 H224        0.9931  -23.9982  -50.2035 H         1 UNK         0.0600 
    225 H225       -1.6784  -23.9194  -52.6357 H         1 UNK         0.3000 
    226 H226       -0.2877  -23.7491  -55.1812 H         1 UNK         0.0600 
    227 H227        1.0292  -22.0584  -53.9019 H         1 UNK         0.0600 
    228 H228       -0.0002  -21.2520  -55.0746 H         1 UNK         0.0600 
    229 H229       -0.4561  -21.2726  -53.3751 H         1 UNK         0.0600 
    230 H230       -1.8380  -23.6909  -56.6666 H         1 UNK         0.3000 
    231 H231       -4.6018  -23.5295  -56.0957 H         1 UNK         0.0600 
    232 H232       -4.8205  -23.7401  -58.5734 H         1 UNK         0.0600 
    233 H233       -3.6336  -24.8689  -57.9436 H         1 UNK         0.0600 
    234 H234       -3.1052  -23.3993  -58.7658 H         1 UNK         0.0600 
    235 H235       -2.4513  -20.9364  -56.4757 H         1 UNK         0.3000 
    236 H236       -4.2004  -18.9259  -57.5663 H         1 UNK         0.0600 
    237 H237       -1.7189  -18.7163  -55.7702 H         1 UNK         0.0600 
    238 H238       -1.7257  -18.6787  -57.5341 H         1 UNK         0.0600 
    239 H239       -2.4733  -17.3759  -56.6243 H         1 UNK         0.0600 
    240 H240       -4.0244  -20.4991  -54.4489 H         1 UNK         0.3000 
    241 H241       -5.9529  -18.5580  -53.2878 H         1 UNK         0.0600 
    242 H242       -8.0145  -21.1667  -52.0549 H         1 UNK         0.3800 
    243 H243       -7.4889  -19.5484  -51.6981 H         1 UNK         0.3800 
    244 H244       -3.4388  -19.7414  -52.0507 H         1 UNK         0.0800 
    245 H245       -4.8454  -19.6812  -51.0328 H         1 UNK         0.0800 
    246 H246       -2.6739  -17.6868  -53.4604 H         1 UNK         0.0800 
    247 H247       -2.8343  -16.0334  -52.9432 H         1 UNK         0.0800 
@<TRIPOS>BOND
     1    1    2 1    
     2    1  127 1    
     3    1  128 1    
     4    1  129 1    
     5    2    3 2    
     6    2    4 am   BACKBONE|DICT|INTERRES
     7    4    5 1    
     8    4  130 1    
     9    5    6 1    
    10    5   65 1    
    11    5  131 1    
    12    6    7 1    
    13    6  132 1    
    14    6  133 1    
    15    7    8 1    
    16    8    9 1    
    17    8  134 1    
    18    8  135 1    
    19    9   10 ar   
    20    9   14 ar   
    21   10   11 ar   
    22   10  136 1    
    23   11   12 ar   
    24   11  126 1    
    25   12   13 ar   
    26   12  137 1    
    27   13   14 ar   
    28   13   15 1    
    29   14  138 1    
    30   15   16 1    
    31   15  139 1    
    32   15  140 1    
    33   16   17 1    
    34   17   18 1    
    35   17  141 1    
    36   17  142 1    
    37   18   19 1    
    38   18   67 1    
    39   18  143 1    
    40   19   20 am   BACKBONE|DICT|INTERRES
    41   19  144 1    
    42   20   21 2    
    43   20   22 1    
    44   22   23 1    
    45   22   24 1    
    46   22  145 1    
    47   23  146 1    
    48   23  147 1    
    49   23  148 1    
    50   24   25 am   BACKBONE|DICT|INTERRES
    51   24  149 1    
    52   25   26 2    
    53   25   27 1    
    54   27   28 1    
    55   27   29 1    
    56   27  150 1    
    57   28  151 1    
    58   28  152 1    
    59   28  153 1    
    60   29   30 am   BACKBONE|DICT|INTERRES
    61   29  154 1    
    62   30   31 2    
    63   30   32 1    
    64   32   33 1    
    65   32   34 1    
    66   32  155 1    
    67   33  156 1    
    68   33  157 1    
    69   33  158 1    
    70   34   35 am   BACKBONE|DICT|INTERRES
    71   34  159 1    
    72   35   36 2    
    73   35   37 1    
    74   37   38 1    
    75   37   39 1    
    76   37  160 1    
    77   38  161 1    
    78   38  162 1    
    79   38  163 1    
    80   39   40 am   BACKBONE|DICT|INTERRES
    81   39  164 1    
    82   40   41 2    
    83   40   42 1    
    84   42   43 1    
    85   42   44 1    
    86   42  165 1    
    87   43  166 1    
    88   43  167 1    
    89   43  168 1    
    90   44   45 am   BACKBONE|DICT|INTERRES
    91   44  169 1    
    92   45   46 2    
    93   45   47 1    
    94   47   48 1    
    95   47   49 1    
    96   47  170 1    
    97   48  171 1    
    98   48  172 1    
    99   48  173 1    
   100   49   50 am   BACKBONE|DICT|INTERRES
   101   49  174 1    
   102   50   51 2    
   103   50   52 1    
   104   52   53 1    
   105   52   54 1    
   106   52  175 1    
   107   53  176 1    
   108   53  177 1    
   109   53  178 1    
   110   54   55 am   BACKBONE|DICT|INTERRES
   111   54  179 1    
   112   55   56 2    
   113   55   57 1    
   114   57   58 1    
   115   57   59 1    
   116   57  180 1    
   117   58  181 1    
   118   58  182 1    
   119   58  183 1    
   120   59   60 am   BACKBONE|DICT|INTERRES
   121   59  184 1    
   122   60   61 2    
   123   60   62 1    
   124   62   63 1    
   125   62   64 1    
   126   62  185 1    
   127   63  186 1    
   128   63  187 1    
   129   63  188 1    
   130   64   65 am   BACKBONE|DICT|INTERRES
   131   64  189 1    
   132   65   66 2    
   133   67   68 2    
   134   67   69 am   BACKBONE|DICT|INTERRES
   135   69   70 1    
   136   69  190 1    
   137   70   71 1    
   138   70   72 1    
   139   70  191 1    
   140   71  192 1    
   141   71  193 1    
   142   71  194 1    
   143   72   73 2    
   144   72   74 am   BACKBONE|DICT|INTERRES
   145   74   75 1    
   146   74  195 1    
   147   75   76 1    
   148   75   77 1    
   149   75  196 1    
   150   76  197 1    
   151   76  198 1    
   152   76  199 1    
   153   77   78 2    
   154   77   79 am   BACKBONE|DICT|INTERRES
   155   79   80 1    
   156   79  200 1    
   157   80   81 1    
   158   80   82 1    
   159   80  201 1    
   160   81  202 1    
   161   81  203 1    
   162   81  204 1    
   163   82   83 2    
   164   82   84 am   BACKBONE|DICT|INTERRES
   165   84   85 1    
   166   84  205 1    
   167   85   86 1    
   168   85   87 1    
   169   85  206 1    
   170   86  207 1    
   171   86  208 1    
   172   86  209 1    
   173   87   88 2    
   174   87   89 am   BACKBONE|DICT|INTERRES
   175   89   90 1    
   176   89  210 1    
   177   90   91 1    
   178   90   92 1    
   179   90  211 1    
   180   91  212 1    
   181   91  213 1    
   182   91  214 1    
   183   92   93 2    
   184   92   94 am   BACKBONE|DICT|INTERRES
   185   94   95 1    
   186   94  215 1    
   187   95   96 1    
   188   95   97 1    
   189   95  216 1    
   190   96  217 1    
   191   96  218 1    
   192   96  219 1    
   193   97   98 2    
   194   97   99 am   BACKBONE|DICT|INTERRES
   195   99  100 1    
   196   99  220 1    
   197  100  101 1    
   198  100  102 1    
   199  100  221 1    
   200  101  222 1    
   201  101  223 1    
   202  101  224 1    
   203  102  103 2    
   204  102  104 am   BACKBONE|DICT|INTERRES
   205  104  105 1    
   206  104  225 1    
   207  105  106 1    
   208  105  107 1    
   209  105  226 1    
   210  106  227 1    
   211  106  228 1    
   212  106  229 1    
   213  107  108 2    
   214  107  109 am   BACKBONE|DICT|INTERRES
   215  109  110 1    
   216  109  230 1    
   217  110  111 1    
   218  110  112 1    
   219  110  231 1    
   220  111  232 1    
   221  111  233 1    
   222  111  234 1    
   223  112  113 2    
   224  112  114 am   BACKBONE|DICT|INTERRES
   225  114  115 1    
   226  114  235 1    
   227  115  116 1    
   228  115  117 1    
   229  115  236 1    
   230  116  237 1    
   231  116  238 1    
   232  116  239 1    
   233  117  118 2    
   234  117  119 am   BACKBONE|DICT|INTERRES
   235  119  120 1    
   236  119  240 1    
   237  120  121 1    
   238  120  124 1    
   239  120  241 1    
   240  121  122 am   BACKBONE|DICT|INTERRES
   241  121  123 2    
   242  122  242 1    
   243  122  243 1    
   244  124  125 1    
   245  124  244 1    
   246  124  245 1    
   247  125  126 1    
   248  126  246 1    
   249  126  247 1    
@<TRIPOS>SUBSTRUCTURE
     1 UNK         1 GROUP             0       ****    0 ROOT    
