@<TRIPOS>MOLECULE
3R540
247   249    1
SMALL
USER_CHARGES


@<TRIPOS>ATOM
      1 CA          3.2165  -16.8393  -49.0242 C.3       0 UNK        -0.1800 
      2 C           2.0848  -16.1807  -48.2499 C.2       0 UNK         0.5000 
      3 O           1.3223  -16.8746  -47.5768 O.2       0 UNK        -0.5000 
      4 N           1.9845  -14.8492  -48.3393 N.am      1 UNK        -0.5000 
      5 CA          0.9702  -14.0347  -47.6605 C.3       1 UNK         0.1400 
      6 C6         -0.1985  -13.6535  -48.6112 C.3       23 UNK        -0.0398 
      7 S7          0.1180  -12.2772  -49.7795 S.3       23 UNK        -0.2404 
      8 C8          0.8216  -13.1043  -51.2453 C.3       23 UNK        -0.0205 
      9 C9         -0.0846  -14.1555  -51.8773 C.ar      23 UNK        -0.0193 
     10 C10        -1.4513  -13.9235  -52.0753 C.ar      23 UNK        -0.1150 
     11 C11        -2.2684  -14.9022  -52.6528 C.ar      23 UNK        -0.0193 
     12 C12        -1.7002  -16.1208  -53.0359 C.ar      23 UNK        -0.1150 
     13 C13        -0.3342  -16.3545  -52.8715 C.ar      23 UNK        -0.0193 
     14 C14         0.4680  -15.3684  -52.2940 C.ar      23 UNK        -0.1150 
     15 C15         0.2698  -17.6739  -53.3230 C.3       23 UNK        -0.0205 
     16 S16         1.0692  -18.5813  -51.9649 S.3       23 UNK        -0.2404 
     17 C17        -0.2746  -18.6830  -50.7324 C.3       23 UNK        -0.0398 
     18 CA          0.1456  -19.5628  -49.5291 C.3       11 UNK         0.1400 
     19 N          -0.4366  -19.1214  -48.2566 N.am      11 UNK        -0.5000 
     20 C          -1.6905  -19.3281  -47.8300 C.2       10 UNK         0.5000 
     21 O          -2.5623  -19.8645  -48.5121 O.2       10 UNK        -0.5000 
     22 CA         -1.9707  -18.9336  -46.3648 C.3       10 UNK         0.1400 
     23 CB         -3.3656  -19.3589  -45.8629 C.3       10 UNK        -0.1800 
     24 N          -0.9295  -19.4318  -45.4594 N.am      10 UNK        -0.5000 
     25 C          -0.5636  -20.7098  -45.2701 C.2       9 UNK         0.5000 
     26 O          -1.0983  -21.6750  -45.8180 O.2       9 UNK        -0.5000 
     27 CA          0.6186  -20.9547  -44.3255 C.3       9 UNK         0.1400 
     28 CB          1.9478  -20.6688  -45.0440 C.3       9 UNK        -0.1800 
     29 N           0.5246  -20.1243  -43.1245 N.am      9 UNK        -0.5000 
     30 C           0.5375  -20.6011  -41.8734 C.2       8 UNK         0.5000 
     31 O           0.6177  -21.7984  -41.5954 O.2       8 UNK        -0.5000 
     32 CA          0.4656  -19.5764  -40.7273 C.3       8 UNK         0.1400 
     33 CB          1.8767  -19.1184  -40.3277 C.3       8 UNK        -0.1800 
     34 N          -0.3530  -18.4012  -41.0252 N.am      8 UNK        -0.5000 
     35 C          -1.6919  -18.4075  -41.0978 C.2       7 UNK         0.5000 
     36 O          -2.3769  -19.4274  -41.0175 O.2       7 UNK        -0.5000 
     37 CA         -2.3833  -17.0453  -41.2686 C.3       7 UNK         0.1400 
     38 CB         -2.4185  -16.2869  -39.9320 C.3       7 UNK        -0.1800 
     39 N          -1.6922  -16.2290  -42.2629 N.am      7 UNK        -0.5000 
     40 C          -2.1114  -16.0462  -43.5218 C.2       6 UNK         0.5000 
     41 O          -3.1760  -16.4805  -43.9593 O.2       6 UNK        -0.5000 
     42 CA         -1.1922  -15.2438  -44.4643 C.3       6 UNK         0.1400 
     43 CB         -1.6986  -13.7997  -44.5894 C.3       6 UNK        -0.1800 
     44 N           0.2135  -15.2326  -44.0522 N.am      6 UNK        -0.5000 
     45 C           1.0011  -16.3186  -44.0069 C.2       5 UNK         0.5000 
     46 O           0.6267  -17.4452  -44.3288 O.2       5 UNK        -0.5000 
     47 CA          2.4175  -16.1421  -43.4316 C.3       5 UNK         0.1400 
     48 CB          3.4288  -15.9122  -44.5618 C.3       5 UNK        -0.1800 
     49 N           2.5129  -15.0663  -42.4398 N.am      5 UNK        -0.5000 
     50 C           1.8265  -15.0413  -41.2853 C.2       4 UNK         0.5000 
     51 O           1.0458  -15.9315  -40.9451 O.2       4 UNK        -0.5000 
     52 CA          1.9889  -13.8101  -40.3744 C.3       4 UNK         0.1400 
     53 CB          3.0009  -14.1045  -39.2577 C.3       4 UNK        -0.1800 
     54 N           2.3901  -12.5887  -41.0744 N.am      4 UNK        -0.5000 
     55 C           1.6958  -11.9806  -42.0460 C.2       3 UNK         0.5000 
     56 O           0.6236  -12.4014  -42.4833 O.2       3 UNK        -0.5000 
     57 CA          2.3134  -10.7078  -42.6627 C.3       3 UNK         0.1400 
     58 CB          3.5155  -10.1408  -41.8734 C.3       3 UNK        -0.1800 
     59 N           2.6835  -10.9073  -44.0667 N.am      3 UNK        -0.5000 
     60 C           3.4846  -11.8596  -44.5640 C.2       2 UNK         0.5000 
     61 O           4.0129  -12.7450  -43.8868 O.2       2 UNK        -0.5000 
     62 CA          3.7226  -11.8205  -46.0847 C.3       2 UNK         0.1400 
     63 CB          5.2091  -12.0194  -46.4246 C.3       2 UNK        -0.1800 
     64 N           2.9404  -12.8443  -46.7730 N.am      2 UNK        -0.5000 
     65 C           1.6062  -12.8407  -46.9104 C.2       1 UNK         0.5000 
     66 O           0.8882  -11.9411  -46.4734 O.2       1 UNK        -0.5000 
     67 C          -0.0314  -21.0824  -49.7590 C.2       11 UNK         0.5000 
     68 O          -0.4588  -21.5196  -50.8268 O.2       11 UNK        -0.5000 
     69 N           0.2794  -21.8448  -48.7025 N.am      12 UNK        -0.5000 
     70 CA          0.2009  -23.3004  -48.5743 C.3       12 UNK         0.1400 
     71 CB          1.0144  -24.0193  -49.6708 C.3       12 UNK        -0.1800 
     72 C          -1.2244  -23.8708  -48.4469 C.2       12 UNK         0.5000 
     73 O          -1.3469  -25.0918  -48.3424 O.2       12 UNK        -0.5000 
     74 N          -2.2716  -23.0306  -48.3739 N.am      13 UNK        -0.5000 
     75 CA         -3.6628  -23.4632  -48.1687 C.3       13 UNK         0.1400 
     76 CB         -4.6208  -22.2681  -48.2309 C.3       13 UNK        -0.1800 
     77 C          -3.8929  -24.2360  -46.8571 C.2       13 UNK         0.5000 
     78 O          -4.8214  -25.0403  -46.7908 O.2       13 UNK        -0.5000 
     79 N          -3.0162  -24.0319  -45.8635 N.am      14 UNK        -0.5000 
     80 CA         -2.9538  -24.8054  -44.6221 C.3       14 UNK         0.1400 
     81 CB         -1.8602  -24.2066  -43.7236 C.3       14 UNK        -0.1800 
     82 C          -2.7160  -26.3201  -44.8271 C.2       14 UNK         0.5000 
     83 O          -3.0684  -27.0998  -43.9410 O.2       14 UNK        -0.5000 
     84 N          -2.1398  -26.7102  -45.9742 N.am      15 UNK        -0.5000 
     85 CA         -1.9008  -28.1007  -46.3628 C.3       15 UNK         0.1400 
     86 CB         -0.3856  -28.3338  -46.4756 C.3       15 UNK        -0.1800 
     87 C          -2.5974  -28.4555  -47.6888 C.2       15 UNK         0.5000 
     88 O          -3.1634  -29.5431  -47.8022 O.2       15 UNK        -0.5000 
     89 N          -2.5356  -27.5494  -48.6732 N.am      16 UNK        -0.5000 
     90 CA         -2.9858  -27.7700  -50.0494 C.3       16 UNK         0.1400 
     91 CB         -2.0980  -26.9339  -50.9871 C.3       16 UNK        -0.1800 
     92 C          -4.4696  -27.4333  -50.2875 C.2       16 UNK         0.5000 
     93 O          -4.9566  -27.6627  -51.3956 O.2       16 UNK        -0.5000 
     94 N          -5.1532  -26.8653  -49.2828 N.am      17 UNK        -0.5000 
     95 CA         -6.5363  -26.3629  -49.2777 C.3       17 UNK         0.1400 
     96 CB         -7.5543  -27.4609  -49.6424 C.3       17 UNK        -0.1800 
     97 C          -6.7411  -25.0930  -50.1289 C.2       17 UNK         0.5000 
     98 O          -7.3411  -24.1333  -49.6449 O.2       17 UNK        -0.5000 
     99 N          -6.2266  -25.0928  -51.3626 N.am      18 UNK        -0.5000 
    100 CA        -6.1554  -23.9310  -52.2430 C.3       18 UNK         0.1400 
    101 CB        -6.1445  -24.4108  -53.7023 C.3       18 UNK        -0.1800 
    102 C         -4.8845  -23.1226  -51.9387 C.2       18 UNK         0.5000 
    103 O         -3.8249  -23.7117  -51.7157 O.2       18 UNK        -0.5000 
    104 N         -4.9941  -21.7906  -51.9846 N.am      19 UNK        -0.5000 
    105 CA        -3.9046  -20.8406  -51.7390 C.3       19 UNK         0.1400 
    106 CB        -4.5132  -19.5267  -51.2131 C.3       19 UNK        -0.1800 
    107 C         -3.0238  -20.6276  -52.9855 C.2       19 UNK         0.5000 
    108 O         -2.7807  -19.4830  -53.3719 O.2       19 UNK        -0.5000 
    109 N         -2.5885  -21.7350  -53.6053 N.am      20 UNK        -0.5000 
    110 CA        -1.7450  -21.8293  -54.8006 C.3       20 UNK         0.1400 
    111 CB        -0.2712  -21.5699  -54.4240 C.3       20 UNK        -0.1800 
    112 C         -2.2674  -20.9432  -55.9513 C.2       20 UNK         0.5000 
    113 O         -3.2921  -21.2779  -56.5480 O.2       20 UNK        -0.5000 
    114 N         -1.5985  -19.8087  -56.2012 N.am      21 UNK        -0.5000 
    115 CA        -1.9760  -18.7798  -57.1752 C.3       21 UNK         0.1400 
    116 CB        -0.8996  -17.6831  -57.1747 C.3       21 UNK        -0.1800 
    117 C         -3.3699  -18.1568  -56.9433 C.2       21 UNK         0.5000 
    118 O         -3.9983  -17.7214  -57.9091 O.2       21 UNK        -0.5000 
    119 N         -3.8308  -18.1454  -55.6869 N.am      22 UNK        -0.5000 
    120 CA        -5.1829  -17.7341  -55.2789 C.3       22 UNK         0.1400 
    121 C         -6.1374  -18.9438  -55.0399 C.2       22 UNK         0.5000 
    122 N         -5.7673  -20.1775  -55.3660 N.am      22 UNK        -0.7600 
    123 O         -7.2558  -18.7629  -54.5669 O.2       22 UNK        -0.5000 
    124 C124       -5.1442  -16.7765  -54.0579 C.3       23 UNK        -0.0398 
    125 S125       -4.4099  -15.1523  -54.4587 S.3       23 UNK        -0.2404 
    126 C126       -3.7606  -14.6352  -52.8316 C.3       23 UNK        -0.0205 
    127 H127        2.8137  -17.5264  -49.7665 H         1 UNK         0.0600 
    128 H128        3.8537  -17.4054  -48.3450 H         1 UNK         0.0600 
    129 H129        3.8359  -16.1065  -49.5416 H         1 UNK         0.0600 
    130 H130        2.6253  -14.3389  -48.9306 H         1 UNK         0.3000 
    131 H131        0.5321  -14.6339  -46.8613 H         1 UNK         0.0600 
    132 H132       -0.5334  -14.5331  -49.1622 H         1 UNK         0.0800 
    133 H133       -1.0574  -13.3558  -48.0079 H         1 UNK         0.0800 
    134 H134        1.0414  -12.3457  -51.9974 H         1 UNK         0.0800 
    135 H135        1.7804  -13.5423  -50.9659 H         1 UNK         0.0800 
    136 H136       -1.8807  -12.9798  -51.7699 H         1 UNK         0.1150 
    137 H137       -2.3182  -16.8883  -53.4757 H         1 UNK         0.1150 
    138 H138        1.5249  -15.5547  -52.1632 H         1 UNK         0.1150 
    139 H139       -0.4923  -18.3084  -53.7725 H         1 UNK         0.0800 
    140 H140        1.0075  -17.4796  -54.1025 H         1 UNK         0.0800 
    141 H141       -0.4783  -17.6670  -50.3913 H         1 UNK         0.0800 
    142 H142       -1.1966  -19.0344  -51.1956 H         1 UNK         0.0800 
    143 H143        1.2170  -19.4226  -49.3775 H         1 UNK         0.0600 
    144 H144        0.1937  -18.5990  -47.6560 H         1 UNK         0.3000 
    145 H145       -1.9255  -17.8451  -46.3319 H         1 UNK         0.0600 
    146 H146       -3.5653  -18.9490  -44.8736 H         1 UNK         0.0600 
    147 H147       -4.1530  -19.0018  -46.5274 H         1 UNK         0.0600 
    148 H148       -3.4571  -20.4408  -45.7853 H         1 UNK         0.0600 
    149 H149       -0.3726  -18.7062  -45.0100 H         1 UNK         0.3000 
    150 H150        0.5994  -22.0149  -44.0649 H         1 UNK         0.0600 
    151 H151        2.0506  -21.2845  -45.9382 H         1 UNK         0.0600 
    152 H152        2.7969  -20.8920  -44.3980 H         1 UNK         0.0600 
    153 H153        2.0288  -19.6250  -45.3506 H         1 UNK         0.0600 
    154 H154        0.4466  -19.1241  -43.2714 H         1 UNK         0.3000 
    155 H155        0.0232  -20.0814  -39.8658 H         1 UNK         0.0600 
    156 H156        2.4997  -19.9691  -40.0488 H         1 UNK         0.0600 
    157 H157        1.8453  -18.4439  -39.4717 H         1 UNK         0.0600 
    158 H158        2.3777  -18.5987  -41.1440 H         1 UNK         0.0600 
    159 H159        0.1377  -17.5107  -41.0554 H         1 UNK         0.3000 
    160 H160       -3.4152  -17.2305  -41.5745 H         1 UNK         0.0600 
    161 H161       -1.4163  -16.0642  -39.5637 H         1 UNK         0.0600 
    162 H162       -2.9284  -16.8713  -39.1650 H         1 UNK         0.0600 
    163 H163       -2.9545  -15.3429  -40.0312 H         1 UNK         0.0600 
    164 H164       -0.7923  -15.8543  -41.9899 H         1 UNK         0.3000 
    165 H165       -1.2454  -15.7096  -45.4499 H         1 UNK         0.0600 
    166 H166       -1.6813  -13.2839  -43.6288 H         1 UNK         0.0600 
    167 H167       -1.0957  -13.2237  -45.2887 H         1 UNK         0.0600 
    168 H168       -2.7261  -13.7763  -44.9543 H         1 UNK         0.0600 
    169 H169        0.5739  -14.3523  -43.7041 H         1 UNK         0.3000 
    170 H170        2.6840  -17.0741  -42.9309 H         1 UNK         0.0600 
    171 H171        3.4283  -16.7502  -45.2604 H         1 UNK         0.0600 
    172 H172        3.1931  -15.0151  -45.1306 H         1 UNK         0.0600 
    173 H173        4.4424  -15.8093  -44.1744 H         1 UNK         0.0600 
    174 H174        3.1086  -14.2799  -42.6764 H         1 UNK         0.3000 
    175 H175        1.0171  -13.6209  -39.9141 H         1 UNK         0.0600 
    176 H176        2.7169  -14.9969  -38.6979 H         1 UNK         0.0600 
    177 H177        4.0021  -14.2721  -39.6568 H         1 UNK         0.0600 
    178 H178        3.0553  -13.2805  -38.5461 H         1 UNK         0.0600 
    179 H179        3.2781  -12.1901  -40.8065 H         1 UNK         0.3000 
    180 H180        1.5255   -9.9534  -42.6514 H         1 UNK         0.0600 
    181 H181        3.2468   -9.9377  -40.8359 H         1 UNK         0.0600 
    182 H182        4.3691  -10.8196  -41.8731 H         1 UNK         0.0600 
    183 H183        3.8501   -9.1972  -42.3047 H         1 UNK         0.0600 
    184 H184        2.2308  -10.2854  -44.7223 H         1 UNK         0.3000 
    185 H185        3.4218  -10.8417  -46.4646 H         1 UNK         0.0600 
    186 H186        5.8265  -11.2747  -45.9206 H         1 UNK         0.0600 
    187 H187        5.5671  -13.0034  -46.1188 H         1 UNK         0.0600 
    188 H188        5.3859  -11.9164  -47.4954 H         1 UNK         0.0600 
    189 H189        3.4551  -13.6430  -47.1112 H         1 UNK         0.3000 
    190 H190        0.5487  -21.3640  -47.8569 H         1 UNK         0.3000 
    191 H191        0.6825  -23.5252  -47.6216 H         1 UNK         0.0600 
    192 H192        0.5427  -23.9337  -50.6500 H         1 UNK         0.0600 
    193 H193        1.1077  -25.0838  -49.4522 H         1 UNK         0.0600 
    194 H194        2.0239  -23.6151  -49.7451 H         1 UNK         0.0600 
    195 H195       -2.1096  -22.0321  -48.4269 H         1 UNK         0.3000 
    196 H196       -3.9121  -24.1389  -48.9886 H         1 UNK         0.0600 
    197 H197       -5.6574  -22.5913  -48.1322 H         1 UNK         0.0600 
    198 H198       -4.5402  -21.7411  -49.1756 H         1 UNK         0.0600 
    199 H199       -4.4288  -21.5546  -47.4339 H         1 UNK         0.0600 
    200 H200       -2.3059  -23.3166  -45.9880 H         1 UNK         0.3000 
    201 H201       -3.9144  -24.6932  -44.1158 H         1 UNK         0.0600 
    202 H202       -1.7941  -24.7405  -42.7748 H         1 UNK         0.0600 
    203 H203       -0.8797  -24.2567  -44.1987 H         1 UNK         0.0600 
    204 H204       -2.0666  -23.1612  -43.4925 H         1 UNK         0.0600 
    205 H205       -1.8877  -26.0027  -46.6557 H         1 UNK         0.3000 
    206 H206       -2.2906  -28.7840  -45.6056 H         1 UNK         0.0600 
    207 H207        0.1095  -28.1626  -45.5196 H         1 UNK         0.0600 
    208 H208       -0.1680  -29.3597  -46.7755 H         1 UNK         0.0600 
    209 H209        0.0709  -27.6706  -47.2118 H         1 UNK         0.0600 
    210 H210       -2.0470  -26.6695  -48.5125 H         1 UNK         0.3000 
    211 H211       -2.8475  -28.8223  -50.3059 H         1 UNK         0.0600 
    212 H212       -2.3329  -27.1329  -52.0334 H         1 UNK         0.0600 
    213 H213       -1.0421  -27.1631  -50.8426 H         1 UNK         0.0600 
    214 H214       -2.2339  -25.8643  -50.8214 H         1 UNK         0.0600 
    215 H215       -4.6479  -26.6953  -48.4229 H         1 UNK         0.3000 
    216 H216       -6.7400  -26.0790  -48.2447 H         1 UNK         0.0600 
    217 H217       -8.5744  -27.1036  -49.4968 H         1 UNK         0.0600 
    218 H218       -7.4257  -28.3418  -49.0136 H         1 UNK         0.0600 
    219 H219       -7.4692  -27.7747  -50.6828 H         1 UNK         0.0600 
    220 H220       -5.7183  -25.9220  -51.6559 H         1 UNK         0.3000 
    221 H221       -7.0334  -23.2998  -52.0901 H         1 UNK         0.0600 
    222 H222       -5.2895  -25.0568  -53.9073 H         1 UNK         0.0600 
    223 H223       -7.0501  -24.9693  -53.9396 H         1 UNK         0.0600 
    224 H224       -6.0915  -23.5672  -54.3917 H         1 UNK         0.0600 
    225 H225       -5.8863  -21.3823  -52.2226 H         1 UNK         0.3000 
    226 H226       -3.2434  -21.2360  -50.9656 H         1 UNK         0.0600 
    227 H227       -5.0480  -19.6855  -50.2771 H         1 UNK         0.0600 
    228 H228       -3.7398  -18.7837  -51.0138 H         1 UNK         0.0600 
    229 H229       -5.2148  -19.0963  -51.9273 H         1 UNK         0.0600 
    230 H230       -2.8540  -22.6179  -53.1835 H         1 UNK         0.3000 
    231 H231       -1.8179  -22.8591  -55.1530 H         1 UNK         0.0600 
    232 H232        0.0828  -22.3215  -53.7181 H         1 UNK         0.0600 
    233 H233       -0.1317  -20.5991  -53.9516 H         1 UNK         0.0600 
    234 H234        0.3790  -21.6187  -55.2983 H         1 UNK         0.0600 
    235 H235       -0.7864  -19.6111  -55.6369 H         1 UNK         0.3000 
    236 H236       -1.9883  -19.2505  -58.1602 H         1 UNK         0.0600 
    237 H237        0.0840  -18.0917  -57.4072 H         1 UNK         0.0600 
    238 H238       -1.1189  -16.9209  -57.9236 H         1 UNK         0.0600 
    239 H239       -0.8376  -17.1821  -56.2076 H         1 UNK         0.0600 
    240 H240       -3.2693  -18.5693  -54.9524 H         1 UNK         0.3000 
    241 H241       -5.6498  -17.1827  -56.0965 H         1 UNK         0.0600 
    242 H242       -4.8708  -20.3677  -55.8011 H         1 UNK         0.3800 
    243 H243       -6.4224  -20.9303  -55.2362 H         1 UNK         0.3800 
    244 H244       -6.1492  -16.5806  -53.6805 H         1 UNK         0.0800 
    245 H245       -4.5960  -17.2376  -53.2364 H         1 UNK         0.0800 
    246 H246       -4.3121  -15.1280  -52.0301 H         1 UNK         0.0800 
    247 H247       -3.9607  -13.5681  -52.7241 H         1 UNK         0.0800 
@<TRIPOS>BOND
     1    1    2 1    
     2    1  127 1    
     3    1  128 1    
     4    1  129 1    
     5    2    3 2    
     6    2    4 am   BACKBONE|DICT|INTERRES
     7    4    5 1    
     8    4  130 1    
     9    5    6 1    
    10    5   65 1    
    11    5  131 1    
    12    6    7 1    
    13    6  132 1    
    14    6  133 1    
    15    7    8 1    
    16    8    9 1    
    17    8  134 1    
    18    8  135 1    
    19    9   10 ar   
    20    9   14 ar   
    21   10   11 ar   
    22   10  136 1    
    23   11   12 ar   
    24   11  126 1    
    25   12   13 ar   
    26   12  137 1    
    27   13   14 ar   
    28   13   15 1    
    29   14  138 1    
    30   15   16 1    
    31   15  139 1    
    32   15  140 1    
    33   16   17 1    
    34   17   18 1    
    35   17  141 1    
    36   17  142 1    
    37   18   19 1    
    38   18   67 1    
    39   18  143 1    
    40   19   20 am   BACKBONE|DICT|INTERRES
    41   19  144 1    
    42   20   21 2    
    43   20   22 1    
    44   22   23 1    
    45   22   24 1    
    46   22  145 1    
    47   23  146 1    
    48   23  147 1    
    49   23  148 1    
    50   24   25 am   BACKBONE|DICT|INTERRES
    51   24  149 1    
    52   25   26 2    
    53   25   27 1    
    54   27   28 1    
    55   27   29 1    
    56   27  150 1    
    57   28  151 1    
    58   28  152 1    
    59   28  153 1    
    60   29   30 am   BACKBONE|DICT|INTERRES
    61   29  154 1    
    62   30   31 2    
    63   30   32 1    
    64   32   33 1    
    65   32   34 1    
    66   32  155 1    
    67   33  156 1    
    68   33  157 1    
    69   33  158 1    
    70   34   35 am   BACKBONE|DICT|INTERRES
    71   34  159 1    
    72   35   36 2    
    73   35   37 1    
    74   37   38 1    
    75   37   39 1    
    76   37  160 1    
    77   38  161 1    
    78   38  162 1    
    79   38  163 1    
    80   39   40 am   BACKBONE|DICT|INTERRES
    81   39  164 1    
    82   40   41 2    
    83   40   42 1    
    84   42   43 1    
    85   42   44 1    
    86   42  165 1    
    87   43  166 1    
    88   43  167 1    
    89   43  168 1    
    90   44   45 am   BACKBONE|DICT|INTERRES
    91   44  169 1    
    92   45   46 2    
    93   45   47 1    
    94   47   48 1    
    95   47   49 1    
    96   47  170 1    
    97   48  171 1    
    98   48  172 1    
    99   48  173 1    
   100   49   50 am   BACKBONE|DICT|INTERRES
   101   49  174 1    
   102   50   51 2    
   103   50   52 1    
   104   52   53 1    
   105   52   54 1    
   106   52  175 1    
   107   53  176 1    
   108   53  177 1    
   109   53  178 1    
   110   54   55 am   BACKBONE|DICT|INTERRES
   111   54  179 1    
   112   55   56 2    
   113   55   57 1    
   114   57   58 1    
   115   57   59 1    
   116   57  180 1    
   117   58  181 1    
   118   58  182 1    
   119   58  183 1    
   120   59   60 am   BACKBONE|DICT|INTERRES
   121   59  184 1    
   122   60   61 2    
   123   60   62 1    
   124   62   63 1    
   125   62   64 1    
   126   62  185 1    
   127   63  186 1    
   128   63  187 1    
   129   63  188 1    
   130   64   65 am   BACKBONE|DICT|INTERRES
   131   64  189 1    
   132   65   66 2    
   133   67   68 2    
   134   67   69 am   BACKBONE|DICT|INTERRES
   135   69   70 1    
   136   69  190 1    
   137   70   71 1    
   138   70   72 1    
   139   70  191 1    
   140   71  192 1    
   141   71  193 1    
   142   71  194 1    
   143   72   73 2    
   144   72   74 am   BACKBONE|DICT|INTERRES
   145   74   75 1    
   146   74  195 1    
   147   75   76 1    
   148   75   77 1    
   149   75  196 1    
   150   76  197 1    
   151   76  198 1    
   152   76  199 1    
   153   77   78 2    
   154   77   79 am   BACKBONE|DICT|INTERRES
   155   79   80 1    
   156   79  200 1    
   157   80   81 1    
   158   80   82 1    
   159   80  201 1    
   160   81  202 1    
   161   81  203 1    
   162   81  204 1    
   163   82   83 2    
   164   82   84 am   BACKBONE|DICT|INTERRES
   165   84   85 1    
   166   84  205 1    
   167   85   86 1    
   168   85   87 1    
   169   85  206 1    
   170   86  207 1    
   171   86  208 1    
   172   86  209 1    
   173   87   88 2    
   174   87   89 am   BACKBONE|DICT|INTERRES
   175   89   90 1    
   176   89  210 1    
   177   90   91 1    
   178   90   92 1    
   179   90  211 1    
   180   91  212 1    
   181   91  213 1    
   182   91  214 1    
   183   92   93 2    
   184   92   94 am   BACKBONE|DICT|INTERRES
   185   94   95 1    
   186   94  215 1    
   187   95   96 1    
   188   95   97 1    
   189   95  216 1    
   190   96  217 1    
   191   96  218 1    
   192   96  219 1    
   193   97   98 2    
   194   97   99 am   BACKBONE|DICT|INTERRES
   195   99  100 1    
   196   99  220 1    
   197  100  101 1    
   198  100  102 1    
   199  100  221 1    
   200  101  222 1    
   201  101  223 1    
   202  101  224 1    
   203  102  103 2    
   204  102  104 am   BACKBONE|DICT|INTERRES
   205  104  105 1    
   206  104  225 1    
   207  105  106 1    
   208  105  107 1    
   209  105  226 1    
   210  106  227 1    
   211  106  228 1    
   212  106  229 1    
   213  107  108 2    
   214  107  109 am   BACKBONE|DICT|INTERRES
   215  109  110 1    
   216  109  230 1    
   217  110  111 1    
   218  110  112 1    
   219  110  231 1    
   220  111  232 1    
   221  111  233 1    
   222  111  234 1    
   223  112  113 2    
   224  112  114 am   BACKBONE|DICT|INTERRES
   225  114  115 1    
   226  114  235 1    
   227  115  116 1    
   228  115  117 1    
   229  115  236 1    
   230  116  237 1    
   231  116  238 1    
   232  116  239 1    
   233  117  118 2    
   234  117  119 am   BACKBONE|DICT|INTERRES
   235  119  120 1    
   236  119  240 1    
   237  120  121 1    
   238  120  124 1    
   239  120  241 1    
   240  121  122 am   BACKBONE|DICT|INTERRES
   241  121  123 2    
   242  122  242 1    
   243  122  243 1    
   244  124  125 1    
   245  124  244 1    
   246  124  245 1    
   247  125  126 1    
   248  126  246 1    
   249  126  247 1    
@<TRIPOS>SUBSTRUCTURE
     1 UNK         1 GROUP             0       ****    0 ROOT    
