@<TRIPOS>MOLECULE
3R540
247   249    1
SMALL
USER_CHARGES


@<TRIPOS>ATOM
      1 CA         -1.9703  -13.6525  -52.0937 C.3       0 UNK        -0.1800 
      2 C          -1.6047  -13.9055  -50.6394 C.2       0 UNK         0.5000 
      3 O          -0.8321  -13.1418  -50.0631 O.2       0 UNK        -0.5000 
      4 N          -2.1809  -14.9460  -50.0221 N.am      1 UNK        -0.5000 
      5 CA         -1.9446  -15.3310  -48.6208 C.3       1 UNK         0.1400 
      6 C6         -2.4454  -16.7630  -48.3132 C.3       23 UNK        -0.0398 
      7 S7         -1.4940  -18.0249  -49.2241 S.3       23 UNK        -0.2404 
      8 C8         -0.1060  -18.2708  -48.0708 C.3       23 UNK        -0.0205 
      9 C9          1.0874  -18.9063  -48.7640 C.ar      23 UNK        -0.0193 
     10 C10         1.8397  -18.1587  -49.6716 C.ar      23 UNK        -0.1150 
     11 C11         2.9281  -18.7308  -50.3344 C.ar      23 UNK        -0.0193 
     12 C12         3.3013  -20.0449  -50.0353 C.ar      23 UNK        -0.1150 
     13 C13         2.5516  -20.8096  -49.1353 C.ar      23 UNK        -0.0193 
     14 C14         1.4410  -20.2336  -48.5092 C.ar      23 UNK        -0.1150 
     15 C15         2.8972  -22.2779  -48.9173 C.3       23 UNK        -0.0205 
     16 S16         3.8519  -22.5939  -47.3956 S.3       23 UNK        -0.2404 
     17 C17         2.6083  -22.5596  -46.0574 C.3       23 UNK        -0.0398 
     18 CA          1.5669  -23.7158  -46.1136 C.3       11 UNK         0.1400 
     19 N           1.3458  -24.3503  -44.8132 N.am      11 UNK        -0.5000 
     20 C           0.6731  -25.4960  -44.6246 C.2       10 UNK         0.5000 
     21 O           0.2425  -26.1990  -45.5392 O.2       10 UNK        -0.5000 
     22 CA          0.3926  -25.8945  -43.1633 C.3       10 UNK         0.1400 
     23 CB          1.5645  -26.7043  -42.5892 C.3       10 UNK        -0.1800 
     24 N           0.1390  -24.7350  -42.3051 N.am      10 UNK        -0.5000 
     25 C          -0.9255  -23.9271  -42.4172 C.2       9 UNK         0.5000 
     26 O          -1.8407  -24.1105  -43.2190 O.2       9 UNK        -0.5000 
     27 CA         -0.9364  -22.6716  -41.5240 C.3       9 UNK         0.1400 
     28 CB         -1.5519  -22.9901  -40.1536 C.3       9 UNK        -0.1800 
     29 N           0.3921  -22.0781  -41.3362 N.am      9 UNK        -0.5000 
     30 C           1.1628  -21.6011  -42.3229 C.2       8 UNK         0.5000 
     31 O           0.8472  -21.6368  -43.5147 O.2       8 UNK        -0.5000 
     32 CA          2.5457  -21.0646  -41.9107 C.3       8 UNK         0.1400 
     33 CB          3.5363  -22.2287  -41.7473 C.3       8 UNK        -0.1800 
     34 N           3.0929  -20.1183  -42.8842 N.am      8 UNK        -0.5000 
     35 C           2.5959  -18.8986  -43.1227 C.2       7 UNK         0.5000 
     36 O           1.6189  -18.4283  -42.5342 O.2       7 UNK        -0.5000 
     37 CA          3.3139  -18.0717  -44.2083 C.3       7 UNK         0.1400 
     38 CB          2.6359  -18.2687  -45.5722 C.3       7 UNK        -0.1800 
     39 N           3.3288  -16.6446  -43.8867 N.am      7 UNK        -0.5000 
     40 C           3.9810  -16.1027  -42.8460 C.2       6 UNK         0.5000 
     41 O           4.7215  -16.7466  -42.1008 O.2       6 UNK        -0.5000 
     42 CA          3.7976  -14.5914  -42.5894 C.3       6 UNK         0.1400 
     43 CB          5.0633  -13.8187  -42.9937 C.3       6 UNK        -0.1800 
     44 N           2.6540  -14.0139  -43.2948 N.am      6 UNK        -0.5000 
     45 C           1.3655  -14.2236  -42.9923 C.2       5 UNK         0.5000 
     46 O           0.9926  -14.8529  -42.0022 O.2       5 UNK        -0.5000 
     47 CA          0.3164  -13.6411  -43.9615 C.3       5 UNK         0.1400 
     48 CB         -0.4384  -12.4703  -43.3134 C.3       5 UNK        -0.1800 
     49 N           0.8750  -13.1848  -45.2367 N.am      5 UNK        -0.5000 
     50 C           1.3663  -13.9666  -46.2062 C.2       4 UNK         0.5000 
     51 O           1.4631  -15.1899  -46.1015 O.2       4 UNK        -0.5000 
     52 CA          1.8351  -13.2480  -47.4908 C.3       4 UNK         0.1400 
     53 CB          2.1762  -14.2254  -48.6311 C.3       4 UNK        -0.1800 
     54 N           0.8451  -12.2801  -47.9702 N.am      4 UNK        -0.5000 
     55 C           0.6497  -11.0459  -47.4845 C.2       3 UNK         0.5000 
     56 O           1.3160  -10.5637  -46.5681 O.2       3 UNK        -0.5000 
     57 CA         -0.5276  -10.2520  -48.0705 C.3       3 UNK         0.1400 
     58 CB         -0.2057   -9.7463  -49.4858 C.3       3 UNK        -0.1800 
     59 N          -1.7293  -11.0841  -48.1051 N.am      3 UNK        -0.5000 
     60 C          -2.6252  -11.1715  -47.1106 C.2       2 UNK         0.5000 
     61 O          -2.5797  -10.4887  -46.0870 O.2       2 UNK        -0.5000 
     62 CA         -3.7615  -12.2019  -47.2797 C.3       2 UNK         0.1400 
     63 CB         -4.9755  -11.5580  -47.9663 C.3       2 UNK        -0.1800 
     64 N          -3.3424  -13.3741  -48.0488 N.am      2 UNK        -0.5000 
     65 C          -2.4936  -14.3094  -47.5988 C.2       1 UNK         0.5000 
     66 O          -2.1107  -14.3645  -46.4310 O.2       1 UNK        -0.5000 
     67 C           0.2227  -23.2316  -46.6834 C.2       11 UNK         0.5000 
     68 O          -0.1208  -23.5910  -47.8048 O.2       11 UNK        -0.5000 
     69 N          -0.5245  -22.4504  -45.8906 N.am      12 UNK        -0.5000 
     70 CA         -1.8213  -21.8739  -46.2538 C.3       12 UNK         0.1400 
     71 CB         -2.3263  -21.0022  -45.0953 C.3       12 UNK        -0.1800 
     72 C          -2.8744  -22.9247  -46.6560 C.2       12 UNK         0.5000 
     73 O          -3.6204  -22.7018  -47.6110 O.2       12 UNK        -0.5000 
     74 N          -2.8838  -24.0647  -45.9519 N.am      13 UNK        -0.5000 
     75 CA         -3.7081  -25.2302  -46.2653 C.3       13 UNK         0.1400 
     76 CB         -3.6054  -26.2514  -45.1221 C.3       13 UNK        -0.1800 
     77 C          -3.3350  -25.8773  -47.6123 C.2       13 UNK         0.5000 
     78 O          -4.2270  -26.1666  -48.4101 O.2       13 UNK        -0.5000 
     79 N          -2.0298  -26.0698  -47.8529 N.am      14 UNK        -0.5000 
     80 CA         -1.4891  -26.6360  -49.0920 C.3       14 UNK         0.1400 
     81 CB         -0.0099  -26.9955  -48.8842 C.3       14 UNK        -0.1800 
     82 C          -1.6577  -25.6975  -50.3021 C.2       14 UNK         0.5000 
     83 O          -1.9740  -26.1616  -51.3978 O.2       14 UNK        -0.5000 
     84 N          -1.4632  -24.3936  -50.0714 N.am      15 UNK        -0.5000 
     85 CA         -1.6249  -23.3149  -51.0450 C.3       15 UNK         0.1400 
     86 CB         -0.9712  -22.0433  -50.4828 C.3       15 UNK        -0.1800 
     87 C          -3.0893  -23.0217  -51.4154 C.2       15 UNK         0.5000 
     88 O          -3.3206  -22.3622  -52.4290 O.2       15 UNK        -0.5000 
     89 N          -4.0304  -23.4906  -50.5816 N.am      16 UNK        -0.5000 
     90 CA         -5.4727  -23.2482  -50.6361 C.3       16 UNK         0.1400 
     91 CB         -6.0973  -23.8853  -51.8953 C.3       16 UNK        -0.1800 
     92 C          -5.7905  -21.7481  -50.4924 C.2       16 UNK         0.5000 
     93 O          -6.4760  -21.1773  -51.3412 O.2       16 UNK        -0.5000 
     94 N          -5.2714  -21.1451  -49.4124 N.am      17 UNK        -0.5000 
     95 CA         -5.2706  -19.7091  -49.0969 C.3       17 UNK         0.1400 
     96 CB         -4.6890  -19.5270  -47.6870 C.3       17 UNK        -0.1800 
     97 C          -6.6217  -18.9688  -49.2055 C.2       17 UNK         0.5000 
     98 O          -6.6304  -17.7505  -49.3853 O.2       17 UNK        -0.5000 
     99 N          -7.7348  -19.7016  -49.0797 N.am      18 UNK        -0.5000 
    100 CA        -9.0939  -19.1839  -49.2283 C.3       18 UNK         0.1400 
    101 CB       -10.0654  -20.1600  -48.5461 C.3       18 UNK        -0.1800 
    102 C         -9.5154  -18.9491  -50.6948 C.2       18 UNK         0.5000 
    103 O        -10.4592  -18.1901  -50.9211 O.2       18 UNK        -0.5000 
    104 N         -8.8506  -19.6103  -51.6534 N.am      19 UNK        -0.5000 
    105 CA        -9.2137  -19.6064  -53.0741 C.3       19 UNK         0.1400 
    106 CB        -9.7517  -20.9975  -53.4473 C.3       19 UNK        -0.1800 
    107 C         -8.0444  -19.2249  -53.9989 C.2       19 UNK         0.5000 
    108 O         -8.2863  -18.6577  -55.0657 O.2       19 UNK        -0.5000 
    109 N         -6.8109  -19.5424  -53.5968 N.am      20 UNK        -0.5000 
    110 CA        -5.5765  -19.2987  -54.3378 C.3       20 UNK         0.1400 
    111 CB        -5.1962  -20.5817  -55.1022 C.3       20 UNK        -0.1800 
    112 C         -4.4775  -18.8391  -53.3634 C.2       20 UNK         0.5000 
    113 O         -4.7781  -18.4867  -52.2215 O.2       20 UNK        -0.5000 
    114 N         -3.2232  -18.8254  -53.8246 N.am      21 UNK        -0.5000 
    115 CA        -2.0508  -18.5125  -53.0168 C.3       21 UNK         0.1400 
    116 CB        -1.8712  -16.9917  -52.9020 C.3       21 UNK        -0.1800 
    117 C         -0.8157  -19.1619  -53.6467 C.2       21 UNK         0.5000 
    118 O         -0.7420  -19.2772  -54.8723 O.2       21 UNK        -0.5000 
    119 N          0.1227  -19.5651  -52.7855 N.am      22 UNK        -0.5000 
    120 CA         1.4241  -20.1803  -53.0990 C.3       22 UNK         0.1400 
    121 C          1.3875  -21.5317  -53.8793 C.2       22 UNK         0.5000 
    122 N          0.2399  -22.1737  -54.0581 N.am      22 UNK        -0.7600 
    123 O          2.4271  -22.0306  -54.3015 O.2       22 UNK        -0.5000 
    124 C124        2.4561  -19.1789  -53.6968 C.3       23 UNK        -0.0398 
    125 S125        2.5739  -17.5700  -52.8291 S.3       23 UNK        -0.2404 
    126 C126        3.6607  -17.9410  -51.4089 C.3       23 UNK        -0.0205 
    127 H127       -2.9024  -14.1464  -52.3673 H         1 UNK         0.0600 
    128 H128       -1.1777  -14.0151  -52.7479 H         1 UNK         0.0600 
    129 H129       -2.0946  -12.5838  -52.2689 H         1 UNK         0.0600 
    130 H130       -2.8102  -15.5450  -50.5368 H         1 UNK         0.3000 
    131 H131       -0.8650  -15.3260  -48.4676 H         1 UNK         0.0600 
    132 H132       -3.4983  -16.8586  -48.5822 H         1 UNK         0.0800 
    133 H133       -2.3798  -16.9889  -47.2469 H         1 UNK         0.0800 
    134 H134        0.2070  -17.3131  -47.6520 H         1 UNK         0.0800 
    135 H135       -0.4393  -18.8804  -47.2296 H         1 UNK         0.0800 
    136 H136        1.5522  -17.1405  -49.8934 H         1 UNK         0.1150 
    137 H137        4.1425  -20.4915  -50.5466 H         1 UNK         0.1150 
    138 H138        0.8393  -20.8166  -47.8323 H         1 UNK         0.1150 
    139 H139        1.9969  -22.8864  -48.9415 H         1 UNK         0.0800 
    140 H140        3.4950  -22.6343  -49.7576 H         1 UNK         0.0800 
    141 H141        3.1806  -22.6269  -45.1318 H         1 UNK         0.0800 
    142 H142        2.1446  -21.5739  -46.0172 H         1 UNK         0.0800 
    143 H143        1.9439  -24.4949  -46.7799 H         1 UNK         0.0600 
    144 H144        1.5899  -23.8021  -44.0021 H         1 UNK         0.3000 
    145 H145       -0.4986  -26.5259  -43.1555 H         1 UNK         0.0600 
    146 H146        1.3457  -27.0530  -41.5798 H         1 UNK         0.0600 
    147 H147        1.7653  -27.5856  -43.1999 H         1 UNK         0.0600 
    148 H148        2.4820  -26.1155  -42.5503 H         1 UNK         0.0600 
    149 H149        0.8398  -24.5153  -41.6130 H         1 UNK         0.3000 
    150 H150       -1.5647  -21.9247  -42.0124 H         1 UNK         0.0600 
    151 H151       -1.6491  -22.0903  -39.5459 H         1 UNK         0.0600 
    152 H152       -0.9489  -23.7086  -39.5970 H         1 UNK         0.0600 
    153 H153       -2.5506  -23.4151  -40.2637 H         1 UNK         0.0600 
    154 H154        0.7275  -22.0257  -40.3849 H         1 UNK         0.3000 
    155 H155        2.4459  -20.5492  -40.9531 H         1 UNK         0.0600 
    156 H156        3.1883  -22.9415  -40.9985 H         1 UNK         0.0600 
    157 H157        4.5127  -21.8715  -41.4194 H         1 UNK         0.0600 
    158 H158        3.6765  -22.7761  -42.6800 H         1 UNK         0.0600 
    159 H159        3.8841  -20.4379  -43.4225 H         1 UNK         0.3000 
    160 H160        4.3498  -18.4086  -44.2841 H         1 UNK         0.0600 
    161 H161        1.5842  -17.9817  -45.5407 H         1 UNK         0.0600 
    162 H162        2.6834  -19.3108  -45.8857 H         1 UNK         0.0600 
    163 H163        3.1200  -17.6764  -46.3491 H         1 UNK         0.0600 
    164 H164        2.7202  -16.0566  -44.4422 H         1 UNK         0.3000 
    165 H165        3.6425  -14.4586  -41.5167 H         1 UNK         0.0600 
    166 H166        5.2659  -13.9094  -44.0616 H         1 UNK         0.0600 
    167 H167        4.9715  -12.7585  -42.7569 H         1 UNK         0.0600 
    168 H168        5.9380  -14.1940  -42.4608 H         1 UNK         0.0600 
    169 H169        2.8594  -13.4709  -44.1199 H         1 UNK         0.3000 
    170 H170       -0.4014  -14.4359  -44.1744 H         1 UNK         0.0600 
    171 H171       -0.9035  -12.7740  -42.3747 H         1 UNK         0.0600 
    172 H172        0.2272  -11.6339  -43.0966 H         1 UNK         0.0600 
    173 H173       -1.2335  -12.1072  -43.9656 H         1 UNK         0.0600 
    174 H174        0.8639  -12.1853  -45.4059 H         1 UNK         0.3000 
    175 H175        2.7514  -12.7120  -47.2355 H         1 UNK         0.0600 
    176 H176        1.3076  -14.8027  -48.9448 H         1 UNK         0.0600 
    177 H177        2.5530  -13.6936  -49.5047 H         1 UNK         0.0600 
    178 H178        2.9477  -14.9339  -48.3265 H         1 UNK         0.0600 
    179 H179        0.2391  -12.6018  -48.7228 H         1 UNK         0.3000 
    180 H180       -0.6990   -9.3799  -47.4358 H         1 UNK         0.0600 
    181 H181       -0.0165  -10.5648  -50.1808 H         1 UNK         0.0600 
    182 H182        0.6810   -9.1111  -49.4789 H         1 UNK         0.0600 
    183 H183       -1.0275   -9.1525  -49.8860 H         1 UNK         0.0600 
    184 H184       -1.8009  -11.7247  -48.8858 H         1 UNK         0.3000 
    185 H185       -4.0659  -12.5305  -46.2837 H         1 UNK         0.0600 
    186 H186       -5.8072  -12.2594  -48.0358 H         1 UNK         0.0600 
    187 H187       -5.3278  -10.6924  -47.4036 H         1 UNK         0.0600 
    188 H188       -4.7361  -11.2187  -48.9749 H         1 UNK         0.0600 
    189 H189       -3.6244  -13.4102  -49.0172 H         1 UNK         0.3000 
    190 H190       -0.1522  -22.1940  -44.9787 H         1 UNK         0.3000 
    191 H191       -1.6578  -21.2283  -47.1184 H         1 UNK         0.0600 
    192 H192       -3.2720  -20.5214  -45.3440 H         1 UNK         0.0600 
    193 H193       -1.6127  -20.2139  -44.8541 H         1 UNK         0.0600 
    194 H194       -2.4914  -21.5922  -44.1944 H         1 UNK         0.0600 
    195 H195       -2.2861  -24.1352  -45.1338 H         1 UNK         0.3000 
    196 H196       -4.7462  -24.8976  -46.3315 H         1 UNK         0.0600 
    197 H197       -4.2161  -27.1316  -45.3269 H         1 UNK         0.0600 
    198 H198       -3.9545  -25.8247  -44.1816 H         1 UNK         0.0600 
    199 H199       -2.5789  -26.5889  -44.9739 H         1 UNK         0.0600 
    200 H200       -1.3542  -25.7937  -47.1507 H         1 UNK         0.3000 
    201 H201       -2.0340  -27.5573  -49.3083 H         1 UNK         0.0600 
    202 H202        0.1099  -27.7174  -48.0762 H         1 UNK         0.0600 
    203 H203        0.5884  -26.1177  -48.6375 H         1 UNK         0.0600 
    204 H204        0.4148  -27.4406  -49.7848 H         1 UNK         0.0600 
    205 H205       -1.1275  -24.1152  -49.1496 H         1 UNK         0.3000 
    206 H206       -1.1053  -23.5989  -51.9616 H         1 UNK         0.0600 
    207 H207        0.1083  -22.1610  -50.3972 H         1 UNK         0.0600 
    208 H208       -1.1583  -21.1868  -51.1268 H         1 UNK         0.0600 
    209 H209       -1.3649  -21.7901  -49.4982 H         1 UNK         0.0600 
    210 H210       -3.7079  -23.9872  -49.7618 H         1 UNK         0.3000 
    211 H211       -5.9026  -23.7449  -49.7651 H         1 UNK         0.0600 
    212 H212       -5.7486  -23.4083  -52.8117 H         1 UNK         0.0600 
    213 H213       -7.1841  -23.7960  -51.8769 H         1 UNK         0.0600 
    214 H214       -5.8587  -24.9470  -51.9581 H         1 UNK         0.0600 
    215 H215       -4.7171  -21.7223  -48.7832 H         1 UNK         0.3000 
    216 H216       -4.5876  -19.2296  -49.7980 H         1 UNK         0.0600 
    217 H217       -4.7516  -18.4903  -47.3554 H         1 UNK         0.0600 
    218 H218       -3.6370  -19.8087  -47.6650 H         1 UNK         0.0600 
    219 H219       -5.2195  -20.1355  -46.9538 H         1 UNK         0.0600 
    220 H220       -7.6374  -20.6952  -48.9334 H         1 UNK         0.3000 
    221 H221       -9.1595  -18.2244  -48.7108 H         1 UNK         0.0600 
    222 H222      -11.0917  -19.7946  -48.6027 H         1 UNK         0.0600 
    223 H223      -10.0415  -21.1446  -49.0150 H         1 UNK         0.0600 
    224 H224       -9.8245  -20.2838  -47.4901 H         1 UNK         0.0600 
    225 H225       -8.0577  -20.1902  -51.3913 H         1 UNK         0.3000 
    226 H226      -10.0057  -18.8790  -53.2632 H         1 UNK         0.0600 
    227 H227      -10.6371  -21.2467  -52.8623 H         1 UNK         0.0600 
    228 H228      -10.0347  -21.0401  -54.4999 H         1 UNK         0.0600 
    229 H229       -9.0058  -21.7746  -53.2743 H         1 UNK         0.0600 
    230 H230       -6.6746  -19.9953  -52.6952 H         1 UNK         0.3000 
    231 H231       -5.7235  -18.4871  -55.0529 H         1 UNK         0.0600 
    232 H232       -4.3227  -20.4301  -55.7364 H         1 UNK         0.0600 
    233 H233       -6.0087  -20.9065  -55.7523 H         1 UNK         0.0600 
    234 H234       -4.9723  -21.4006  -54.4173 H         1 UNK         0.0600 
    235 H235       -3.0163  -19.1383  -54.7645 H         1 UNK         0.3000 
    236 H236       -2.1901  -18.9365  -52.0199 H         1 UNK         0.0600 
    237 H237       -2.7424  -16.5343  -52.4362 H         1 UNK         0.0600 
    238 H238       -1.0030  -16.7464  -52.2886 H         1 UNK         0.0600 
    239 H239       -1.7291  -16.5279  -53.8788 H         1 UNK         0.0600 
    240 H240       -0.0302  -19.3956  -51.8015 H         1 UNK         0.3000 
    241 H241        1.8023  -20.4871  -52.1289 H         1 UNK         0.0600 
    242 H242       -0.6297  -21.7627  -53.7607 H         1 UNK         0.3800 
    243 H243        0.2389  -23.0465  -54.5615 H         1 UNK         0.3800 
    244 H244        3.4513  -19.6257  -53.7206 H         1 UNK         0.0800 
    245 H245        2.1977  -18.9682  -54.7356 H         1 UNK         0.0800 
    246 H246        4.5497  -18.4707  -51.7543 H         1 UNK         0.0800 
    247 H247        4.0092  -17.0016  -50.9776 H         1 UNK         0.0800 
@<TRIPOS>BOND
     1    1    2 1    
     2    1  127 1    
     3    1  128 1    
     4    1  129 1    
     5    2    3 2    
     6    2    4 am   BACKBONE|DICT|INTERRES
     7    4    5 1    
     8    4  130 1    
     9    5    6 1    
    10    5   65 1    
    11    5  131 1    
    12    6    7 1    
    13    6  132 1    
    14    6  133 1    
    15    7    8 1    
    16    8    9 1    
    17    8  134 1    
    18    8  135 1    
    19    9   10 ar   
    20    9   14 ar   
    21   10   11 ar   
    22   10  136 1    
    23   11   12 ar   
    24   11  126 1    
    25   12   13 ar   
    26   12  137 1    
    27   13   14 ar   
    28   13   15 1    
    29   14  138 1    
    30   15   16 1    
    31   15  139 1    
    32   15  140 1    
    33   16   17 1    
    34   17   18 1    
    35   17  141 1    
    36   17  142 1    
    37   18   19 1    
    38   18   67 1    
    39   18  143 1    
    40   19   20 am   BACKBONE|DICT|INTERRES
    41   19  144 1    
    42   20   21 2    
    43   20   22 1    
    44   22   23 1    
    45   22   24 1    
    46   22  145 1    
    47   23  146 1    
    48   23  147 1    
    49   23  148 1    
    50   24   25 am   BACKBONE|DICT|INTERRES
    51   24  149 1    
    52   25   26 2    
    53   25   27 1    
    54   27   28 1    
    55   27   29 1    
    56   27  150 1    
    57   28  151 1    
    58   28  152 1    
    59   28  153 1    
    60   29   30 am   BACKBONE|DICT|INTERRES
    61   29  154 1    
    62   30   31 2    
    63   30   32 1    
    64   32   33 1    
    65   32   34 1    
    66   32  155 1    
    67   33  156 1    
    68   33  157 1    
    69   33  158 1    
    70   34   35 am   BACKBONE|DICT|INTERRES
    71   34  159 1    
    72   35   36 2    
    73   35   37 1    
    74   37   38 1    
    75   37   39 1    
    76   37  160 1    
    77   38  161 1    
    78   38  162 1    
    79   38  163 1    
    80   39   40 am   BACKBONE|DICT|INTERRES
    81   39  164 1    
    82   40   41 2    
    83   40   42 1    
    84   42   43 1    
    85   42   44 1    
    86   42  165 1    
    87   43  166 1    
    88   43  167 1    
    89   43  168 1    
    90   44   45 am   BACKBONE|DICT|INTERRES
    91   44  169 1    
    92   45   46 2    
    93   45   47 1    
    94   47   48 1    
    95   47   49 1    
    96   47  170 1    
    97   48  171 1    
    98   48  172 1    
    99   48  173 1    
   100   49   50 am   BACKBONE|DICT|INTERRES
   101   49  174 1    
   102   50   51 2    
   103   50   52 1    
   104   52   53 1    
   105   52   54 1    
   106   52  175 1    
   107   53  176 1    
   108   53  177 1    
   109   53  178 1    
   110   54   55 am   BACKBONE|DICT|INTERRES
   111   54  179 1    
   112   55   56 2    
   113   55   57 1    
   114   57   58 1    
   115   57   59 1    
   116   57  180 1    
   117   58  181 1    
   118   58  182 1    
   119   58  183 1    
   120   59   60 am   BACKBONE|DICT|INTERRES
   121   59  184 1    
   122   60   61 2    
   123   60   62 1    
   124   62   63 1    
   125   62   64 1    
   126   62  185 1    
   127   63  186 1    
   128   63  187 1    
   129   63  188 1    
   130   64   65 am   BACKBONE|DICT|INTERRES
   131   64  189 1    
   132   65   66 2    
   133   67   68 2    
   134   67   69 am   BACKBONE|DICT|INTERRES
   135   69   70 1    
   136   69  190 1    
   137   70   71 1    
   138   70   72 1    
   139   70  191 1    
   140   71  192 1    
   141   71  193 1    
   142   71  194 1    
   143   72   73 2    
   144   72   74 am   BACKBONE|DICT|INTERRES
   145   74   75 1    
   146   74  195 1    
   147   75   76 1    
   148   75   77 1    
   149   75  196 1    
   150   76  197 1    
   151   76  198 1    
   152   76  199 1    
   153   77   78 2    
   154   77   79 am   BACKBONE|DICT|INTERRES
   155   79   80 1    
   156   79  200 1    
   157   80   81 1    
   158   80   82 1    
   159   80  201 1    
   160   81  202 1    
   161   81  203 1    
   162   81  204 1    
   163   82   83 2    
   164   82   84 am   BACKBONE|DICT|INTERRES
   165   84   85 1    
   166   84  205 1    
   167   85   86 1    
   168   85   87 1    
   169   85  206 1    
   170   86  207 1    
   171   86  208 1    
   172   86  209 1    
   173   87   88 2    
   174   87   89 am   BACKBONE|DICT|INTERRES
   175   89   90 1    
   176   89  210 1    
   177   90   91 1    
   178   90   92 1    
   179   90  211 1    
   180   91  212 1    
   181   91  213 1    
   182   91  214 1    
   183   92   93 2    
   184   92   94 am   BACKBONE|DICT|INTERRES
   185   94   95 1    
   186   94  215 1    
   187   95   96 1    
   188   95   97 1    
   189   95  216 1    
   190   96  217 1    
   191   96  218 1    
   192   96  219 1    
   193   97   98 2    
   194   97   99 am   BACKBONE|DICT|INTERRES
   195   99  100 1    
   196   99  220 1    
   197  100  101 1    
   198  100  102 1    
   199  100  221 1    
   200  101  222 1    
   201  101  223 1    
   202  101  224 1    
   203  102  103 2    
   204  102  104 am   BACKBONE|DICT|INTERRES
   205  104  105 1    
   206  104  225 1    
   207  105  106 1    
   208  105  107 1    
   209  105  226 1    
   210  106  227 1    
   211  106  228 1    
   212  106  229 1    
   213  107  108 2    
   214  107  109 am   BACKBONE|DICT|INTERRES
   215  109  110 1    
   216  109  230 1    
   217  110  111 1    
   218  110  112 1    
   219  110  231 1    
   220  111  232 1    
   221  111  233 1    
   222  111  234 1    
   223  112  113 2    
   224  112  114 am   BACKBONE|DICT|INTERRES
   225  114  115 1    
   226  114  235 1    
   227  115  116 1    
   228  115  117 1    
   229  115  236 1    
   230  116  237 1    
   231  116  238 1    
   232  116  239 1    
   233  117  118 2    
   234  117  119 am   BACKBONE|DICT|INTERRES
   235  119  120 1    
   236  119  240 1    
   237  120  121 1    
   238  120  124 1    
   239  120  241 1    
   240  121  122 am   BACKBONE|DICT|INTERRES
   241  121  123 2    
   242  122  242 1    
   243  122  243 1    
   244  124  125 1    
   245  124  244 1    
   246  124  245 1    
   247  125  126 1    
   248  126  246 1    
   249  126  247 1    
@<TRIPOS>SUBSTRUCTURE
     1 UNK         1 GROUP             0       ****    0 ROOT    
