@<TRIPOS>MOLECULE
3R540
247   249    1
SMALL
USER_CHARGES


@<TRIPOS>ATOM
      1 CA          7.3191  -15.1080  -46.8016 C.3       0 UNK        -0.1800 
      2 C           5.9823  -14.5035  -46.3981 C.2       0 UNK         0.5000 
      3 O           5.5522  -14.6671  -45.2562 O.2       0 UNK        -0.5000 
      4 N           5.3289  -13.7854  -47.3194 N.am      1 UNK        -0.5000 
      5 CA          4.0045  -13.1680  -47.1583 C.3       1 UNK         0.1400 
      6 C6          3.2891  -12.9659  -48.5220 C.3       23 UNK        -0.0398 
      7 S7          3.1413  -14.4981  -49.5030 S.3       23 UNK        -0.2404 
      8 C8          1.5045  -15.1046  -48.9865 C.3       23 UNK        -0.0205 
      9 C9          1.1091  -16.3604  -49.7473 C.ar      23 UNK        -0.0193 
     10 C10         0.0441  -16.3264  -50.6505 C.ar      23 UNK        -0.1150 
     11 C11        -0.3245  -17.4730  -51.3584 C.ar      23 UNK        -0.0193 
     12 C12         0.3882  -18.6610  -51.1639 C.ar      23 UNK        -0.1150 
     13 C13         1.4613  -18.7080  -50.2680 C.ar      23 UNK        -0.0193 
     14 C14         1.8074  -17.5566  -49.5535 C.ar      23 UNK        -0.1150 
     15 C15         2.2910  -19.9774  -50.1193 C.3       23 UNK        -0.0205 
     16 S16         2.1178  -20.7530  -48.4809 S.3       23 UNK        -0.2404 
     17 C17         0.4987  -21.5730  -48.6302 C.3       23 UNK        -0.0398 
     18 CA          0.2820  -22.6363  -47.5243 C.3       11 UNK         0.1400 
     19 N           0.1120  -22.0369  -46.1945 N.am      11 UNK        -0.5000 
     20 C           0.0225  -22.7245  -45.0466 C.2       10 UNK         0.5000 
     21 O           0.1426  -23.9462  -44.9736 O.2       10 UNK        -0.5000 
     22 CA         -0.3168  -21.9298  -43.7720 C.3       10 UNK         0.1400 
     23 CB          0.9342  -21.2644  -43.1793 C.3       10 UNK        -0.1800 
     24 N          -1.3616  -20.9301  -43.9968 N.am      10 UNK        -0.5000 
     25 C          -2.6269  -21.2227  -44.3299 C.2       9 UNK         0.5000 
     26 O          -3.0578  -22.3718  -44.4175 O.2       9 UNK        -0.5000 
     27 CA         -3.5561  -20.0427  -44.6720 C.3       9 UNK         0.1400 
     28 CB         -4.1590  -19.4267  -43.4015 C.3       9 UNK        -0.1800 
     29 N          -2.8879  -19.0074  -45.4628 N.am      9 UNK        -0.5000 
     30 C          -2.4025  -19.2063  -46.6969 C.2       8 UNK         0.5000 
     31 O          -2.5292  -20.2639  -47.3120 O.2       8 UNK        -0.5000 
     32 CA         -1.6002  -18.0566  -47.3331 C.3       8 UNK         0.1400 
     33 CB         -2.5437  -17.0219  -47.9623 C.3       8 UNK        -0.1800 
     34 N          -0.6980  -17.4031  -46.3824 N.am      8 UNK        -0.5000 
     35 C           0.3238  -18.0212  -45.7717 C.2       7 UNK         0.5000 
     36 O           0.6259  -19.1941  -45.9794 O.2       7 UNK        -0.5000 
     37 CA          1.0905  -17.2337  -44.6932 C.3       7 UNK         0.1400 
     38 CB          2.0951  -16.2464  -45.3024 C.3       7 UNK        -0.1800 
     39 N           0.1978  -16.5187  -43.7862 N.am      7 UNK        -0.5000 
     40 C          -0.6817  -17.1013  -42.9622 C.2       6 UNK         0.5000 
     41 O          -0.7965  -18.3191  -42.8317 O.2       6 UNK        -0.5000 
     42 CA         -1.6207  -16.1607  -42.1902 C.3       6 UNK         0.1400 
     43 CB         -0.9277  -15.5958  -40.9410 C.3       6 UNK        -0.1800 
     44 N          -2.0965  -15.0606  -43.0294 N.am      6 UNK        -0.5000 
     45 C          -2.9631  -15.2036  -44.0415 C.2       5 UNK         0.5000 
     46 O          -3.4699  -16.2787  -44.3618 O.2       5 UNK        -0.5000 
     47 CA         -3.2919  -13.9360  -44.8511 C.3       5 UNK         0.1400 
     48 CB         -4.3470  -13.0864  -44.1269 C.3       5 UNK        -0.1800 
     49 N          -2.1106  -13.1157  -45.1267 N.am      5 UNK        -0.5000 
     50 C          -1.1075  -13.4961  -45.9288 C.2       4 UNK         0.5000 
     51 O          -1.0692  -14.5760  -46.5143 O.2       4 UNK        -0.5000 
     52 CA          0.0780  -12.5289  -46.0763 C.3       4 UNK         0.1400 
     53 CB         -0.2345  -11.4484  -47.1218 C.3       4 UNK        -0.1800 
     54 N           0.5290  -11.8931  -44.8350 N.am      4 UNK        -0.5000 
     55 C           0.8451  -12.5266  -43.6971 C.2       3 UNK         0.5000 
     56 O           0.6589  -13.7275  -43.5014 O.2       3 UNK        -0.5000 
     57 CA          1.6066  -11.6923  -42.6610 C.3       3 UNK         0.1400 
     58 CB          1.5985  -12.3272  -41.2589 C.3       3 UNK        -0.1800 
     59 N           2.9748  -11.6302  -43.1558 N.am      3 UNK        -0.5000 
     60 C           3.6432  -10.5207  -43.4864 C.2       2 UNK         0.5000 
     61 O           3.2568   -9.3786  -43.2367 O.2       2 UNK        -0.5000 
     62 CA          4.9419  -10.7384  -44.2861 C.3       2 UNK         0.1400 
     63 CB          6.1278  -10.9944  -43.3439 C.3       2 UNK        -0.1800 
     64 N           4.8265  -11.8532  -45.2328 N.am      2 UNK        -0.5000 
     65 C           4.0540  -11.8590  -46.3287 C.2       1 UNK         0.5000 
     66 O           3.3963  -10.8804  -46.6854 O.2       1 UNK        -0.5000 
     67 C          -0.8902  -23.5747  -47.8819 C.2       11 UNK         0.5000 
     68 O          -0.6495  -24.6980  -48.3304 O.2       11 UNK        -0.5000 
     69 N          -2.1248  -23.1148  -47.6304 N.am      12 UNK        -0.5000 
     70 CA         -3.3600  -23.8698  -47.8448 C.3       12 UNK         0.1400 
     71 CB         -4.5700  -22.9523  -47.6131 C.3       12 UNK        -0.1800 
     72 C          -3.4532  -25.1258  -46.9613 C.2       12 UNK         0.5000 
     73 O          -3.8678  -26.1810  -47.4424 O.2       12 UNK        -0.5000 
     74 N          -3.0489  -24.9926  -45.6908 N.am      13 UNK        -0.5000 
     75 CA         -2.9805  -26.0849  -44.7221 C.3       13 UNK         0.1400 
     76 CB         -2.7677  -25.5056  -43.3153 C.3       13 UNK        -0.1800 
     77 C          -1.8869  -27.1171  -45.0542 C.2       13 UNK         0.5000 
     78 O          -2.0832  -28.3028  -44.7845 O.2       13 UNK        -0.5000 
     79 N          -0.7623  -26.6550  -45.6207 N.am      14 UNK        -0.5000 
     80 CA          0.3772  -27.4824  -46.0099 C.3       14 UNK         0.1400 
     81 CB          1.5885  -26.5987  -46.3519 C.3       14 UNK        -0.1800 
     82 C           0.0422  -28.4508  -47.1568 C.2       14 UNK         0.5000 
     83 O           0.1327  -29.6618  -46.9508 O.2       14 UNK        -0.5000 
     84 N          -0.3479  -27.9087  -48.3214 N.am      15 UNK        -0.5000 
     85 CA         -0.7106  -28.6661  -49.5299 C.3       15 UNK         0.1400 
     86 CB          0.4137  -29.6366  -49.9670 C.3       15 UNK        -0.1800 
     87 C          -1.0355  -27.7583  -50.7272 C.2       15 UNK         0.5000 
     88 O          -1.8092  -28.1686  -51.5941 O.2       15 UNK        -0.5000 
     89 N          -0.3967  -26.5831  -50.7988 N.am      16 UNK        -0.5000 
     90 CA         -0.4609  -25.6669  -51.9384 C.3       16 UNK         0.1400 
     91 CB          0.5968  -24.5692  -51.7409 C.3       16 UNK        -0.1800 
     92 C          -1.8513  -25.0390  -52.1491 C.2       16 UNK         0.5000 
     93 O          -2.6338  -24.9239  -51.2046 O.2       16 UNK        -0.5000 
     94 N          -2.1141  -24.6006  -53.3868 N.am      17 UNK        -0.5000 
     95 CA         -3.2681  -23.7746  -53.7354 C.3       17 UNK         0.1400 
     96 CB         -3.4467  -23.7600  -55.2627 C.3       17 UNK        -0.1800 
     97 C          -3.0565  -22.3568  -53.1800 C.2       17 UNK         0.5000 
     98 O          -2.1746  -21.6420  -53.6614 O.2       17 UNK        -0.5000 
     99 N          -3.8248  -22.0033  -52.1479 N.am      18 UNK        -0.5000 
    100 CA        -3.7438  -20.7333  -51.4428 C.3       18 UNK         0.1400 
    101 CB        -2.5134  -20.7314  -50.5180 C.3       18 UNK        -0.1800 
    102 C         -5.0408  -20.5013  -50.6573 C.2       18 UNK         0.5000 
    103 O         -5.8969  -21.3894  -50.6024 O.2       18 UNK        -0.5000 
    104 N         -5.1544  -19.3045  -50.0656 N.am      19 UNK        -0.5000 
    105 CA        -6.2370  -18.7944  -49.2135 C.3       19 UNK         0.1400 
    106 CB        -6.4286  -19.6613  -47.9540 C.3       19 UNK        -0.1800 
    107 C         -7.5643  -18.5616  -49.9602 C.2       19 UNK         0.5000 
    108 O         -8.0828  -17.4452  -49.9311 O.2       19 UNK        -0.5000 
    109 N         -8.0763  -19.5981  -50.6342 N.am      20 UNK        -0.5000 
    110 CA        -9.2448  -19.5263  -51.5128 C.3       20 UNK         0.1400 
    111 CB        -9.7746  -20.9447  -51.7739 C.3       20 UNK        -0.1800 
    112 C         -8.9092  -18.8117  -52.8345 C.2       20 UNK         0.5000 
    113 O         -9.6723  -17.9549  -53.2819 O.2       20 UNK        -0.5000 
    114 N         -7.7520  -19.1591  -53.4070 N.am      21 UNK        -0.5000 
    115 CA        -7.1463  -18.5633  -54.5908 C.3       21 UNK         0.1400 
    116 CB        -7.8939  -18.9965  -55.8653 C.3       21 UNK        -0.1800 
    117 C         -5.6853  -19.0272  -54.6300 C.2       21 UNK         0.5000 
    118 O         -5.4085  -20.1626  -54.2405 O.2       21 UNK        -0.5000 
    119 N         -4.7847  -18.1546  -55.0931 N.am      22 UNK        -0.5000 
    120 CA        -3.3362  -18.4160  -55.2010 C.3       22 UNK         0.1400 
    121 C         -2.9081  -19.1222  -56.5255 C.2       22 UNK         0.5000 
    122 N         -3.8223  -19.4460  -57.4327 N.am      22 UNK        -0.7600 
    123 O         -1.7289  -19.3848  -56.7420 O.2       22 UNK        -0.5000 
    124 C124       -2.5269  -17.1168  -54.9240 C.3       23 UNK        -0.0398 
    125 S125       -0.9426  -17.4043  -54.0613 S.3       23 UNK        -0.2404 
    126 C126       -1.4950  -17.4223  -52.3280 C.3       23 UNK        -0.0205 
    127 H127        7.5733  -14.8754  -47.8360 H         1 UNK         0.0600 
    128 H128        7.2868  -16.1923  -46.6949 H         1 UNK         0.0600 
    129 H129        8.1130  -14.7243  -46.1609 H         1 UNK         0.0600 
    130 H130        5.7448  -13.6715  -48.2329 H         1 UNK         0.3000 
    131 H131        3.3891  -13.8582  -46.5785 H         1 UNK         0.0600 
    132 H132        2.2919  -12.5462  -48.3844 H         1 UNK         0.0800 
    133 H133        3.8351  -12.2391  -49.1260 H         1 UNK         0.0800 
    134 H134        1.5145  -15.3268  -47.9228 H         1 UNK         0.0800 
    135 H135        0.7616  -14.3184  -49.1308 H         1 UNK         0.0800 
    136 H136       -0.4993  -15.4046  -50.8036 H         1 UNK         0.1150 
    137 H137        0.1214  -19.5402  -51.7326 H         1 UNK         0.1150 
    138 H138        2.6382  -17.5852  -48.8623 H         1 UNK         0.1150 
    139 H139        2.0431  -20.7015  -50.8969 H         1 UNK         0.0800 
    140 H140        3.3412  -19.7238  -50.2701 H         1 UNK         0.0800 
    141 H141        0.4450  -22.0267  -49.6202 H         1 UNK         0.0800 
    142 H142       -0.2809  -20.8124  -48.5994 H         1 UNK         0.0800 
    143 H143        1.1757  -23.2626  -47.4801 H         1 UNK         0.0600 
    144 H144        0.0758  -21.0211  -46.1579 H         1 UNK         0.3000 
    145 H145       -0.6958  -22.6394  -43.0337 H         1 UNK         0.0600 
    146 H146        0.7014  -20.7467  -42.2487 H         1 UNK         0.0600 
    147 H147        1.7002  -22.0079  -42.9562 H         1 UNK         0.0600 
    148 H148        1.3730  -20.5394  -43.8636 H         1 UNK         0.0600 
    149 H149       -1.0948  -19.9561  -43.8903 H         1 UNK         0.3000 
    150 H150       -4.3776  -20.4378  -45.2727 H         1 UNK         0.0600 
    151 H151       -4.6848  -20.1808  -42.8147 H         1 UNK         0.0600 
    152 H152       -4.8785  -18.6453  -43.6466 H         1 UNK         0.0600 
    153 H153       -3.3939  -18.9879  -42.7617 H         1 UNK         0.0600 
    154 H154       -2.7898  -18.0937  -45.0329 H         1 UNK         0.3000 
    155 H155       -0.9863  -18.4805  -48.1305 H         1 UNK         0.0600 
    156 H156       -3.1611  -16.5300  -47.2100 H         1 UNK         0.0600 
    157 H157       -1.9842  -16.2510  -48.4917 H         1 UNK         0.0600 
    158 H158       -3.2119  -17.4903  -48.6843 H         1 UNK         0.0600 
    159 H159       -0.8695  -16.4176  -46.2003 H         1 UNK         0.3000 
    160 H160        1.6539  -17.9600  -44.1039 H         1 UNK         0.0600 
    161 H161        2.7991  -15.8921  -44.5492 H         1 UNK         0.0600 
    162 H162        1.5900  -15.3728  -45.7097 H         1 UNK         0.0600 
    163 H163        2.6773  -16.7078  -46.1014 H         1 UNK         0.0600 
    164 H164        0.2546  -15.5026  -43.7923 H         1 UNK         0.3000 
    165 H165       -2.4857  -16.7423  -41.8648 H         1 UNK         0.0600 
    166 H166       -1.6034  -14.9610  -40.3677 H         1 UNK         0.0600 
    167 H167       -0.5995  -16.4005  -40.2820 H         1 UNK         0.0600 
    168 H168       -0.0483  -15.0046  -41.1976 H         1 UNK         0.0600 
    169 H169       -1.6649  -14.1596  -42.8833 H         1 UNK         0.3000 
    170 H170       -3.7122  -14.2552  -45.8073 H         1 UNK         0.0600 
    171 H171       -3.9771  -12.7085  -43.1730 H         1 UNK         0.0600 
    172 H172       -4.6482  -12.2317  -44.7328 H         1 UNK         0.0600 
    173 H173       -5.2450  -13.6711  -43.9226 H         1 UNK         0.0600 
    174 H174       -2.0552  -12.2160  -44.6725 H         1 UNK         0.3000 
    175 H175        0.9180  -13.1176  -46.4463 H         1 UNK         0.0600 
    176 H176        0.6389  -10.8283  -47.3240 H         1 UNK         0.0600 
    177 H177       -1.0418  -10.7926  -46.7937 H         1 UNK         0.0600 
    178 H178       -0.5386  -11.8965  -48.0689 H         1 UNK         0.0600 
    179 H179        0.7512  -10.9102  -44.9043 H         1 UNK         0.3000 
    180 H180        1.1505  -10.7017  -42.6056 H         1 UNK         0.0600 
    181 H181        2.0558  -13.3176  -41.2564 H         1 UNK         0.0600 
    182 H182        0.5794  -12.4328  -40.8853 H         1 UNK         0.0600 
    183 H183        2.1446  -11.7080  -40.5472 H         1 UNK         0.0600 
    184 H184        3.3726  -12.5173  -43.4309 H         1 UNK         0.3000 
    185 H185        5.1437   -9.8269  -44.8527 H         1 UNK         0.0600 
    186 H186        7.0609  -11.0825  -43.9008 H         1 UNK         0.0600 
    187 H187        6.2482  -10.1732  -42.6361 H         1 UNK         0.0600 
    188 H188        5.9944  -11.9100  -42.7663 H         1 UNK         0.0600 
    189 H189        5.3164  -12.7120  -45.0031 H         1 UNK         0.3000 
    190 H190       -2.2320  -22.1613  -47.2940 H         1 UNK         0.3000 
    191 H191       -3.3757  -24.1904  -48.8859 H         1 UNK         0.0600 
    192 H192       -4.5112  -22.0598  -48.2332 H         1 UNK         0.0600 
    193 H193       -5.5003  -23.4624  -47.8647 H         1 UNK         0.0600 
    194 H194       -4.6425  -22.6285  -46.5752 H         1 UNK         0.0600 
    195 H195       -2.7883  -24.0695  -45.3556 H         1 UNK         0.3000 
    196 H196       -3.9408  -26.6045  -44.7326 H         1 UNK         0.0600 
    197 H197       -2.7363  -26.2978  -42.5664 H         1 UNK         0.0600 
    198 H198       -3.5778  -24.8299  -43.0406 H         1 UNK         0.0600 
    199 H199       -1.8317  -24.9506  -43.2468 H         1 UNK         0.0600 
    200 H200       -0.6566  -25.6531  -45.7403 H         1 UNK         0.3000 
    201 H201        0.6524  -28.0867  -45.1429 H         1 UNK         0.0600 
    202 H202        1.8993  -26.0092  -45.4893 H         1 UNK         0.0600 
    203 H203        1.3772  -25.9081  -47.1672 H         1 UNK         0.0600 
    204 H204        2.4426  -27.2072  -46.6514 H         1 UNK         0.0600 
    205 H205       -0.4845  -26.9039  -48.3611 H         1 UNK         0.3000 
    206 H206       -1.6100  -29.2426  -49.3060 H         1 UNK         0.0600 
    207 H207        0.5095  -30.4872  -49.2939 H         1 UNK         0.0600 
    208 H208        0.2157  -30.0557  -50.9549 H         1 UNK         0.0600 
    209 H209        1.3800  -29.1334  -50.0154 H         1 UNK         0.0600 
    210 H210        0.1903  -26.2928  -50.0316 H         1 UNK         0.3000 
    211 H211       -0.2061  -26.2348  -52.8357 H         1 UNK         0.0600 
    212 H212        0.4114  -24.0007  -50.8306 H         1 UNK         0.0600 
    213 H213        0.5982  -23.8641  -52.5732 H         1 UNK         0.0600 
    214 H214        1.5991  -24.9926  -51.6734 H         1 UNK         0.0600 
    215 H215       -1.4083  -24.6999  -54.1018 H         1 UNK         0.3000 
    216 H216       -4.1669  -24.2091  -53.2921 H         1 UNK         0.0600 
    217 H217       -4.2944  -23.1348  -55.5465 H         1 UNK         0.0600 
    218 H218       -3.6365  -24.7621  -55.6473 H         1 UNK         0.0600 
    219 H219       -2.5658  -23.3659  -55.7713 H         1 UNK         0.0600 
    220 H220       -4.5490  -22.6227  -51.8062 H         1 UNK         0.3000 
    221 H221       -3.6589  -19.9340  -52.1784 H         1 UNK         0.0600 
    222 H222       -1.5963  -20.9322  -51.0692 H         1 UNK         0.0600 
    223 H223       -2.6032  -21.4960  -49.7489 H         1 UNK         0.0600 
    224 H224       -2.3857  -19.7708  -50.0194 H         1 UNK         0.0600 
    225 H225       -4.4057  -18.6449  -50.2150 H         1 UNK         0.3000 
    226 H226       -5.8986  -17.8143  -48.8731 H         1 UNK         0.0600 
    227 H227       -5.4938  -19.7620  -47.4031 H         1 UNK         0.0600 
    228 H228       -7.1567  -19.2100  -47.2793 H         1 UNK         0.0600 
    229 H229       -6.7852  -20.6634  -48.1928 H         1 UNK         0.0600 
    230 H230       -7.5489  -20.4673  -50.6223 H         1 UNK         0.3000 
    231 H231      -10.0285  -18.9569  -51.0086 H         1 UNK         0.0600 
    232 H232       -9.0241  -21.5759  -52.2515 H         1 UNK         0.0600 
    233 H233      -10.6486  -20.9208  -52.4261 H         1 UNK         0.0600 
    234 H234      -10.0756  -21.4286  -50.8446 H         1 UNK         0.0600 
    235 H235       -7.1815  -19.8770  -52.9780 H         1 UNK         0.3000 
    236 H236       -7.1762  -17.4760  -54.4950 H         1 UNK         0.0600 
    237 H237       -8.9287  -18.6545  -55.8581 H         1 UNK         0.0600 
    238 H238       -7.4235  -18.5778  -56.7557 H         1 UNK         0.0600 
    239 H239       -7.9015  -20.0817  -55.9755 H         1 UNK         0.0600 
    240 H240       -5.0975  -17.2528  -55.4239 H         1 UNK         0.3000 
    241 H241       -3.0826  -19.1286  -54.4147 H         1 UNK         0.0600 
    242 H242       -4.7964  -19.2461  -57.2762 H         1 UNK         0.3800 
    243 H243       -3.5342  -19.9024  -58.2840 H         1 UNK         0.3800 
    244 H244       -2.3284  -16.5749  -55.8504 H         1 UNK         0.0800 
    245 H245       -3.1081  -16.4263  -54.3113 H         1 UNK         0.0800 
    246 H246       -2.1331  -18.2877  -52.1665 H         1 UNK         0.0800 
    247 H247       -2.1098  -16.5428  -52.1309 H         1 UNK         0.0800 
@<TRIPOS>BOND
     1    1    2 1    
     2    1  127 1    
     3    1  128 1    
     4    1  129 1    
     5    2    3 2    
     6    2    4 am   BACKBONE|DICT|INTERRES
     7    4    5 1    
     8    4  130 1    
     9    5    6 1    
    10    5   65 1    
    11    5  131 1    
    12    6    7 1    
    13    6  132 1    
    14    6  133 1    
    15    7    8 1    
    16    8    9 1    
    17    8  134 1    
    18    8  135 1    
    19    9   10 ar   
    20    9   14 ar   
    21   10   11 ar   
    22   10  136 1    
    23   11   12 ar   
    24   11  126 1    
    25   12   13 ar   
    26   12  137 1    
    27   13   14 ar   
    28   13   15 1    
    29   14  138 1    
    30   15   16 1    
    31   15  139 1    
    32   15  140 1    
    33   16   17 1    
    34   17   18 1    
    35   17  141 1    
    36   17  142 1    
    37   18   19 1    
    38   18   67 1    
    39   18  143 1    
    40   19   20 am   BACKBONE|DICT|INTERRES
    41   19  144 1    
    42   20   21 2    
    43   20   22 1    
    44   22   23 1    
    45   22   24 1    
    46   22  145 1    
    47   23  146 1    
    48   23  147 1    
    49   23  148 1    
    50   24   25 am   BACKBONE|DICT|INTERRES
    51   24  149 1    
    52   25   26 2    
    53   25   27 1    
    54   27   28 1    
    55   27   29 1    
    56   27  150 1    
    57   28  151 1    
    58   28  152 1    
    59   28  153 1    
    60   29   30 am   BACKBONE|DICT|INTERRES
    61   29  154 1    
    62   30   31 2    
    63   30   32 1    
    64   32   33 1    
    65   32   34 1    
    66   32  155 1    
    67   33  156 1    
    68   33  157 1    
    69   33  158 1    
    70   34   35 am   BACKBONE|DICT|INTERRES
    71   34  159 1    
    72   35   36 2    
    73   35   37 1    
    74   37   38 1    
    75   37   39 1    
    76   37  160 1    
    77   38  161 1    
    78   38  162 1    
    79   38  163 1    
    80   39   40 am   BACKBONE|DICT|INTERRES
    81   39  164 1    
    82   40   41 2    
    83   40   42 1    
    84   42   43 1    
    85   42   44 1    
    86   42  165 1    
    87   43  166 1    
    88   43  167 1    
    89   43  168 1    
    90   44   45 am   BACKBONE|DICT|INTERRES
    91   44  169 1    
    92   45   46 2    
    93   45   47 1    
    94   47   48 1    
    95   47   49 1    
    96   47  170 1    
    97   48  171 1    
    98   48  172 1    
    99   48  173 1    
   100   49   50 am   BACKBONE|DICT|INTERRES
   101   49  174 1    
   102   50   51 2    
   103   50   52 1    
   104   52   53 1    
   105   52   54 1    
   106   52  175 1    
   107   53  176 1    
   108   53  177 1    
   109   53  178 1    
   110   54   55 am   BACKBONE|DICT|INTERRES
   111   54  179 1    
   112   55   56 2    
   113   55   57 1    
   114   57   58 1    
   115   57   59 1    
   116   57  180 1    
   117   58  181 1    
   118   58  182 1    
   119   58  183 1    
   120   59   60 am   BACKBONE|DICT|INTERRES
   121   59  184 1    
   122   60   61 2    
   123   60   62 1    
   124   62   63 1    
   125   62   64 1    
   126   62  185 1    
   127   63  186 1    
   128   63  187 1    
   129   63  188 1    
   130   64   65 am   BACKBONE|DICT|INTERRES
   131   64  189 1    
   132   65   66 2    
   133   67   68 2    
   134   67   69 am   BACKBONE|DICT|INTERRES
   135   69   70 1    
   136   69  190 1    
   137   70   71 1    
   138   70   72 1    
   139   70  191 1    
   140   71  192 1    
   141   71  193 1    
   142   71  194 1    
   143   72   73 2    
   144   72   74 am   BACKBONE|DICT|INTERRES
   145   74   75 1    
   146   74  195 1    
   147   75   76 1    
   148   75   77 1    
   149   75  196 1    
   150   76  197 1    
   151   76  198 1    
   152   76  199 1    
   153   77   78 2    
   154   77   79 am   BACKBONE|DICT|INTERRES
   155   79   80 1    
   156   79  200 1    
   157   80   81 1    
   158   80   82 1    
   159   80  201 1    
   160   81  202 1    
   161   81  203 1    
   162   81  204 1    
   163   82   83 2    
   164   82   84 am   BACKBONE|DICT|INTERRES
   165   84   85 1    
   166   84  205 1    
   167   85   86 1    
   168   85   87 1    
   169   85  206 1    
   170   86  207 1    
   171   86  208 1    
   172   86  209 1    
   173   87   88 2    
   174   87   89 am   BACKBONE|DICT|INTERRES
   175   89   90 1    
   176   89  210 1    
   177   90   91 1    
   178   90   92 1    
   179   90  211 1    
   180   91  212 1    
   181   91  213 1    
   182   91  214 1    
   183   92   93 2    
   184   92   94 am   BACKBONE|DICT|INTERRES
   185   94   95 1    
   186   94  215 1    
   187   95   96 1    
   188   95   97 1    
   189   95  216 1    
   190   96  217 1    
   191   96  218 1    
   192   96  219 1    
   193   97   98 2    
   194   97   99 am   BACKBONE|DICT|INTERRES
   195   99  100 1    
   196   99  220 1    
   197  100  101 1    
   198  100  102 1    
   199  100  221 1    
   200  101  222 1    
   201  101  223 1    
   202  101  224 1    
   203  102  103 2    
   204  102  104 am   BACKBONE|DICT|INTERRES
   205  104  105 1    
   206  104  225 1    
   207  105  106 1    
   208  105  107 1    
   209  105  226 1    
   210  106  227 1    
   211  106  228 1    
   212  106  229 1    
   213  107  108 2    
   214  107  109 am   BACKBONE|DICT|INTERRES
   215  109  110 1    
   216  109  230 1    
   217  110  111 1    
   218  110  112 1    
   219  110  231 1    
   220  111  232 1    
   221  111  233 1    
   222  111  234 1    
   223  112  113 2    
   224  112  114 am   BACKBONE|DICT|INTERRES
   225  114  115 1    
   226  114  235 1    
   227  115  116 1    
   228  115  117 1    
   229  115  236 1    
   230  116  237 1    
   231  116  238 1    
   232  116  239 1    
   233  117  118 2    
   234  117  119 am   BACKBONE|DICT|INTERRES
   235  119  120 1    
   236  119  240 1    
   237  120  121 1    
   238  120  124 1    
   239  120  241 1    
   240  121  122 am   BACKBONE|DICT|INTERRES
   241  121  123 2    
   242  122  242 1    
   243  122  243 1    
   244  124  125 1    
   245  124  244 1    
   246  124  245 1    
   247  125  126 1    
   248  126  246 1    
   249  126  247 1    
@<TRIPOS>SUBSTRUCTURE
     1 UNK         1 GROUP             0       ****    0 ROOT    
