@<TRIPOS>MOLECULE
3R540
247   249    1
SMALL
USER_CHARGES


@<TRIPOS>ATOM
      1 CA          4.0787  -12.2815  -47.4711 C.3       0 UNK        -0.1800 
      2 C           2.6303  -12.7412  -47.4065 C.2       0 UNK         0.5000 
      3 O           2.0532  -12.7843  -46.3193 O.2       0 UNK        -0.5000 
      4 N           2.0320  -13.0550  -48.5639 N.am      1 UNK        -0.5000 
      5 CA          0.6752  -13.5971  -48.7566 C.3       1 UNK         0.1400 
      6 C6          0.5160  -14.2452  -50.1587 C.3       23 UNK        -0.0398 
      7 S7          1.6858  -15.6135  -50.4711 S.3       23 UNK        -0.2404 
      8 C8          0.8061  -16.9899  -49.6702 C.3       23 UNK        -0.0205 
      9 C9          1.0324  -18.3173  -50.3755 C.ar      23 UNK        -0.0193 
     10 C10         0.4112  -18.5749  -51.6007 C.ar      23 UNK        -0.1150 
     11 C11         0.5639  -19.8162  -52.2227 C.ar      23 UNK        -0.0193 
     12 C12         1.3085  -20.8141  -51.5900 C.ar      23 UNK        -0.1150 
     13 C13         1.9362  -20.5775  -50.3634 C.ar      23 UNK        -0.0193 
     14 C14         1.8193  -19.3075  -49.7802 C.ar      23 UNK        -0.1150 
     15 C15         2.7122  -21.7375  -49.7330 C.3       23 UNK        -0.0205 
     16 S16         3.4442  -21.4682  -48.0791 S.3       23 UNK        -0.2404 
     17 C17         1.9983  -21.1701  -47.0068 C.3       23 UNK        -0.0398 
     18 CA          1.3541  -22.4509  -46.4219 C.3       11 UNK         0.1400 
     19 N           0.8126  -22.2126  -45.0820 N.am      11 UNK        -0.5000 
     20 C           0.2601  -23.1340  -44.2819 C.2       10 UNK         0.5000 
     21 O           0.2052  -24.3336  -44.5528 O.2       10 UNK        -0.5000 
     22 CA         -0.3908  -22.6122  -42.9864 C.3       10 UNK         0.1400 
     23 CB          0.6569  -22.4052  -41.8825 C.3       10 UNK        -0.1800 
     24 N          -1.1347  -21.3682  -43.2024 N.am      10 UNK        -0.5000 
     25 C          -2.2465  -21.2803  -43.9471 C.2       9 UNK         0.5000 
     26 O          -2.7868  -22.2503  -44.4787 O.2       9 UNK        -0.5000 
     27 CA         -2.8293  -19.8725  -44.1730 C.3       9 UNK         0.1400 
     28 CB         -3.6714  -19.4308  -42.9671 C.3       9 UNK        -0.1800 
     29 N          -1.8010  -18.8685  -44.4496 N.am      9 UNK        -0.5000 
     30 C          -0.9978  -18.8765  -45.5230 C.2       8 UNK         0.5000 
     31 O          -1.0726  -19.7068  -46.4260 O.2       8 UNK        -0.5000 
     32 CA          0.1164  -17.8165  -45.5724 C.3       8 UNK         0.1400 
     33 CB         -0.4240  -16.4803  -46.1005 C.3       8 UNK        -0.1800 
     34 N           0.7573  -17.6086  -44.2740 N.am      8 UNK        -0.5000 
     35 C           1.4033  -18.5515  -43.5734 C.2       7 UNK         0.5000 
     36 O           1.5600  -19.7064  -43.9633 O.2       7 UNK        -0.5000 
     37 CA          1.9085  -18.1541  -42.1786 C.3       7 UNK         0.1400 
     38 CB          3.2486  -17.4097  -42.2701 C.3       7 UNK        -0.1800 
     39 N           0.9249  -17.3331  -41.4746 N.am      7 UNK        -0.5000 
     40 C          -0.2224  -17.8073  -40.9689 C.2       6 UNK         0.5000 
     41 O          -0.5396  -18.9974  -40.9937 O.2       6 UNK        -0.5000 
     42 CA         -1.1913  -16.7710  -40.3685 C.3       6 UNK         0.1400 
     43 CB         -0.8122  -16.4533  -38.9144 C.3       6 UNK        -0.1800 
     44 N          -1.2399  -15.5268  -41.1407 N.am      6 UNK        -0.5000 
     45 C          -1.7468  -15.4289  -42.3777 C.2       5 UNK         0.5000 
     46 O          -2.2505  -16.3748  -42.9822 O.2       5 UNK        -0.5000 
     47 CA         -1.6380  -14.0578  -43.0746 C.3       5 UNK         0.1400 
     48 CB         -2.8415  -13.1755  -42.7129 C.3       5 UNK        -0.1800 
     49 N          -0.3990  -13.3240  -42.7953 N.am      5 UNK        -0.5000 
     50 C           0.8435  -13.7860  -42.9944 C.2       4 UNK         0.5000 
     51 O           1.0903  -14.9295  -43.3775 O.2       4 UNK        -0.5000 
     52 CA          1.9828  -12.7865  -42.7457 C.3       4 UNK         0.1400 
     53 CB          3.3775  -13.3941  -42.9804 C.3       4 UNK        -0.1800 
     54 N           1.8029  -11.6567  -43.6495 N.am      4 UNK        -0.5000 
     55 C           1.5945  -10.3883  -43.2790 C.2       3 UNK         0.5000 
     56 O           1.5567  -10.0118  -42.1071 O.2       3 UNK        -0.5000 
     57 CA          1.3734   -9.3668  -44.4097 C.3       3 UNK         0.1400 
     58 CB          2.7194   -8.8149  -44.9038 C.3       3 UNK        -0.1800 
     59 N           0.6340   -9.9139  -45.5492 N.am      3 UNK        -0.5000 
     60 C          -0.6604  -10.2666  -45.5280 C.2       2 UNK         0.5000 
     61 O          -1.3793  -10.1879  -44.5321 O.2       2 UNK        -0.5000 
     62 CA         -1.2333  -10.8175  -46.8408 C.3       2 UNK         0.1400 
     63 CB         -1.5079   -9.6673  -47.8307 C.3       2 UNK        -0.1800 
     64 N          -0.2989  -11.7967  -47.3903 N.am      2 UNK        -0.5000 
     65 C          -0.4643  -12.5856  -48.4543 C.2       1 UNK         0.5000 
     66 O          -1.4653  -12.5480  -49.1713 O.2       1 UNK        -0.5000 
     67 C           0.2737  -23.0086  -47.3707 C.2       11 UNK         0.5000 
     68 O           0.5005  -24.0290  -48.0173 O.2       11 UNK        -0.5000 
     69 N          -0.8947  -22.3529  -47.3986 N.am      12 UNK        -0.5000 
     70 CA         -2.0676  -22.7443  -48.1781 C.3       12 UNK         0.1400 
     71 CB         -3.1539  -21.6687  -48.0272 C.3       12 UNK        -0.1800 
     72 C          -2.6118  -24.1318  -47.7938 C.2       12 UNK         0.5000 
     73 O          -2.9511  -24.9196  -48.6771 O.2       12 UNK        -0.5000 
     74 N          -2.6458  -24.4267  -46.4866 N.am      13 UNK        -0.5000 
     75 CA         -3.0218  -25.7335  -45.9469 C.3       13 UNK         0.1400 
     76 CB         -3.1511  -25.6460  -44.4189 C.3       13 UNK        -0.1800 
     77 C          -2.0427  -26.8504  -46.3564 C.2       13 UNK         0.5000 
     78 O          -2.4887  -27.9415  -46.7119 O.2       13 UNK        -0.5000 
     79 N          -0.7358  -26.5515  -46.3330 N.am      14 UNK        -0.5000 
     80 CA          0.3294  -27.4541  -46.7743 C.3       14 UNK         0.1400 
     81 CB          1.6885  -26.9135  -46.3038 C.3       14 UNK        -0.1800 
     82 C           0.3239  -27.6828  -48.2985 C.2       14 UNK         0.5000 
     83 O           0.5083  -28.8165  -48.7432 O.2       14 UNK        -0.5000 
     84 N           0.0945  -26.6100  -49.0683 N.am      15 UNK        -0.5000 
     85 CA         -0.0219  -26.6272  -50.5289 C.3       15 UNK         0.1400 
     86 CB          0.0635  -25.1847  -51.0543 C.3       15 UNK        -0.1800 
     87 C          -1.3142  -27.2985  -51.0342 C.2       15 UNK         0.5000 
     88 O          -1.3446  -27.7595  -52.1758 O.2       15 UNK        -0.5000 
     89 N          -2.3481  -27.3264  -50.1812 N.am      16 UNK        -0.5000 
     90 CA         -3.7095  -27.8065  -50.4300 C.3       16 UNK         0.1400 
     91 CB         -3.7241  -29.3196  -50.7323 C.3       16 UNK        -0.1800 
     92 C          -4.4474  -26.9582  -51.4877 C.2       16 UNK         0.5000 
     93 O          -5.2017  -27.4952  -52.3014 O.2       16 UNK        -0.5000 
     94 N          -4.2216  -25.6407  -51.4476 N.am      17 UNK        -0.5000 
     95 CA         -4.8439  -24.6416  -52.3085 C.3       17 UNK         0.1400 
     96 CB         -4.0805  -24.5339  -53.6403 C.3       17 UNK        -0.1800 
     97 C          -4.8283  -23.3074  -51.5577 C.2       17 UNK         0.5000 
     98 O          -3.8092  -22.9765  -50.9520 O.2       17 UNK        -0.5000 
     99 N          -5.9472  -22.5731  -51.5994 N.am      18 UNK        -0.5000 
    100 CA        -6.1117  -21.2751  -50.9423 C.3       18 UNK         0.1400 
    101 CB        -7.5684  -20.8129  -51.1018 C.3       18 UNK        -0.1800 
    102 C         -5.1549  -20.2149  -51.5131 C.2       18 UNK         0.5000 
    103 O         -5.0006  -20.1431  -52.7334 O.2       18 UNK        -0.5000 
    104 N         -4.5798  -19.3816  -50.6345 N.am      19 UNK        -0.5000 
    105 CA        -3.6113  -18.3310  -50.9737 C.3       19 UNK         0.1400 
    106 CB        -3.1859  -17.6005  -49.6898 C.3       19 UNK        -0.1800 
    107 C         -4.1241  -17.3252  -52.0224 C.2       19 UNK         0.5000 
    108 O         -3.3688  -16.9169  -52.9045 O.2       19 UNK        -0.5000 
    109 N         -5.4161  -16.9842  -51.9297 N.am      20 UNK        -0.5000 
    110 CA        -6.1178  -16.1116  -52.8708 C.3       20 UNK         0.1400 
    111 CB        -7.4437  -15.6661  -52.2345 C.3       20 UNK        -0.1800 
    112 C         -6.3741  -16.7631  -54.2452 C.2       20 UNK         0.5000 
    113 O         -6.5759  -16.0371  -55.2195 O.2       20 UNK        -0.5000 
    114 N         -6.3765  -18.1022  -54.3052 N.am      21 UNK        -0.5000 
    115 CA        -6.5682  -18.8711  -55.5317 C.3       21 UNK         0.1400 
    116 CB        -7.3029  -20.1853  -55.2173 C.3       21 UNK        -0.1800 
    117 C         -5.2260  -19.1388  -56.2290 C.2       21 UNK         0.5000 
    118 O         -5.1254  -18.9165  -57.4367 O.2       21 UNK        -0.5000 
    119 N         -4.2237  -19.6073  -55.4708 N.am      22 UNK        -0.5000 
    120 CA        -2.8799  -19.8986  -55.9964 C.3       22 UNK         0.1400 
    121 C         -1.9852  -18.6477  -56.2312 C.2       22 UNK         0.5000 
    122 N         -2.2180  -17.5227  -55.5661 N.am      22 UNK        -0.7600 
    123 O         -1.0676  -18.6964  -57.0458 O.2       22 UNK        -0.5000 
    124 C124       -2.1498  -21.0134  -55.2025 C.3       23 UNK        -0.0398 
    125 S125       -1.7799  -20.6241  -53.4569 S.3       23 UNK        -0.2404 
    126 C126       -0.0519  -20.0763  -53.5871 C.3       23 UNK        -0.0205 
    127 H127        4.1612  -11.2514  -47.1255 H         1 UNK         0.0600 
    128 H128        4.4764  -12.3352  -48.4848 H         1 UNK         0.0600 
    129 H129        4.6975  -12.9081  -46.8289 H         1 UNK         0.0600 
    130 H130        2.5691  -12.9696  -49.4150 H         1 UNK         0.3000 
    131 H131        0.5488  -14.3938  -48.0233 H         1 UNK         0.0600 
    132 H132        0.6639  -13.4929  -50.9352 H         1 UNK         0.0800 
    133 H133       -0.4965  -14.6245  -50.3082 H         1 UNK         0.0800 
    134 H134        1.1275  -17.0467  -48.6296 H         1 UNK         0.0800 
    135 H135       -0.2646  -16.7958  -49.6460 H         1 UNK         0.0800 
    136 H136       -0.1885  -17.8082  -52.0719 H         1 UNK         0.1150 
    137 H137        1.4052  -21.7828  -52.0608 H         1 UNK         0.1150 
    138 H138        2.3134  -19.0828  -48.8475 H         1 UNK         0.1150 
    139 H139        2.0643  -22.6128  -49.6877 H         1 UNK         0.0800 
    140 H140        3.5254  -22.0036  -50.4097 H         1 UNK         0.0800 
    141 H141        1.2574  -20.5444  -47.5023 H         1 UNK         0.0800 
    142 H142        2.3884  -20.5533  -46.1986 H         1 UNK         0.0800 
    143 H143        2.1262  -23.2150  -46.3100 H         1 UNK         0.0600 
    144 H144        0.8671  -21.2566  -44.7390 H         1 UNK         0.3000 
    145 H145       -1.0972  -23.3704  -42.6420 H         1 UNK         0.0600 
    146 H146        0.1897  -22.0803  -40.9526 H         1 UNK         0.0600 
    147 H147        1.1893  -23.3337  -41.6732 H         1 UNK         0.0600 
    148 H148        1.3996  -21.6577  -42.1608 H         1 UNK         0.0600 
    149 H149       -0.7543  -20.5269  -42.7883 H         1 UNK         0.3000 
    150 H150       -3.4867  -19.9221  -45.0432 H         1 UNK         0.0600 
    151 H151       -4.4524  -20.1597  -42.7474 H         1 UNK         0.0600 
    152 H152       -4.1620  -18.4764  -43.1588 H         1 UNK         0.0600 
    153 H153       -3.0632  -19.3187  -42.0692 H         1 UNK         0.0600 
    154 H154       -1.7200  -18.1050  -43.7851 H         1 UNK         0.3000 
    155 H155        0.8845  -18.1709  -46.2626 H         1 UNK         0.0600 
    156 H156        0.3574  -15.7207  -46.1180 H         1 UNK         0.0600 
    157 H157       -0.8103  -16.5874  -47.1143 H         1 UNK         0.0600 
    158 H158       -1.2397  -16.1061  -45.4840 H         1 UNK         0.0600 
    159 H159        0.7255  -16.6651  -43.8939 H         1 UNK         0.3000 
    160 H160        2.0692  -19.0688  -41.6038 H         1 UNK         0.0600 
    161 H161        3.1756  -16.5167  -42.8901 H         1 UNK         0.0600 
    162 H162        4.0149  -18.0482  -42.7113 H         1 UNK         0.0600 
    163 H163        3.6035  -17.1087  -41.2844 H         1 UNK         0.0600 
    164 H164        1.0767  -16.3348  -41.4871 H         1 UNK         0.3000 
    165 H165       -2.1905  -17.2120  -40.3712 H         1 UNK         0.0600 
    166 H166       -1.5379  -15.7814  -38.4557 H         1 UNK         0.0600 
    167 H167       -0.7856  -17.3618  -38.3112 H         1 UNK         0.0600 
    168 H168        0.1703  -15.9847  -38.8458 H         1 UNK         0.0600 
    169 H169       -0.8427  -14.7028  -40.7140 H         1 UNK         0.3000 
    170 H170       -1.6665  -14.2354  -44.1506 H         1 UNK         0.0600 
    171 H171       -3.7806  -13.6872  -42.9278 H         1 UNK         0.0600 
    172 H172       -2.8446  -12.9127  -41.6544 H         1 UNK         0.0600 
    173 H173       -2.8396  -12.2499  -43.2888 H         1 UNK         0.0600 
    174 H174       -0.5068  -12.3631  -42.5030 H         1 UNK         0.3000 
    175 H175        1.9185  -12.4732  -41.7020 H         1 UNK         0.0600 
    176 H176        3.5662  -14.2150  -42.2884 H         1 UNK         0.0600 
    177 H177        3.4845  -13.7814  -43.9947 H         1 UNK         0.0600 
    178 H178        4.1602  -12.6521  -42.8229 H         1 UNK         0.0600 
    179 H179        1.8061  -11.8936  -44.6380 H         1 UNK         0.3000 
    180 H180        0.7946   -8.5371  -43.9984 H         1 UNK         0.0600 
    181 H181        3.3383   -9.5975  -45.3443 H         1 UNK         0.0600 
    182 H182        3.2851   -8.3731  -44.0824 H         1 UNK         0.0600 
    183 H183        2.5763   -8.0366  -45.6535 H         1 UNK         0.0600 
    184 H184        1.1407   -9.9856  -46.4189 H         1 UNK         0.3000 
    185 H185       -2.1721  -11.3264  -46.6135 H         1 UNK         0.0600 
    186 H186       -2.1226   -8.8937  -47.3686 H         1 UNK         0.0600 
    187 H187       -0.5841   -9.1956  -48.1674 H         1 UNK         0.0600 
    188 H188       -2.0460  -10.0141  -48.7123 H         1 UNK         0.0600 
    189 H189        0.5336  -11.9752  -46.8320 H         1 UNK         0.3000 
    190 H190       -0.9823  -21.4873  -46.8704 H         1 UNK         0.3000 
    191 H191       -1.7674  -22.7850  -49.2267 H         1 UNK         0.0600 
    192 H192       -3.4032  -21.4891  -46.9823 H         1 UNK         0.0600 
    193 H193       -4.0722  -21.9658  -48.5309 H         1 UNK         0.0600 
    194 H194       -2.8299  -20.7241  -48.4633 H         1 UNK         0.0600 
    195 H195       -2.4052  -23.7045  -45.8150 H         1 UNK         0.3000 
    196 H196       -4.0026  -25.9889  -46.3533 H         1 UNK         0.0600 
    197 H197       -3.4635  -26.6026  -43.9984 H         1 UNK         0.0600 
    198 H198       -3.8953  -24.9041  -44.1286 H         1 UNK         0.0600 
    199 H199       -2.2070  -25.3732  -43.9477 H         1 UNK         0.0600 
    200 H200       -0.4484  -25.6415  -45.9871 H         1 UNK         0.3000 
    201 H201        0.1695  -28.4218  -46.2942 H         1 UNK         0.0600 
    202 H202        1.7188  -26.8170  -45.2184 H         1 UNK         0.0600 
    203 H203        1.9051  -25.9341  -46.7307 H         1 UNK         0.0600 
    204 H204        2.4975  -27.5847  -46.5944 H         1 UNK         0.0600 
    205 H205        0.0347  -25.6967  -48.6217 H         1 UNK         0.3000 
    206 H206        0.8226  -27.1898  -50.9317 H         1 UNK         0.0600 
    207 H207        1.0033  -24.7140  -50.7657 H         1 UNK         0.0600 
    208 H208        0.0077  -25.1589  -52.1433 H         1 UNK         0.0600 
    209 H209       -0.7513  -24.5693  -50.6704 H         1 UNK         0.0600 
    210 H210       -2.2249  -26.8412  -49.3004 H         1 UNK         0.3000 
    211 H211       -4.2510  -27.6567  -49.4949 H         1 UNK         0.0600 
    212 H212       -3.2630  -29.5483  -51.6933 H         1 UNK         0.0600 
    213 H213       -4.7455  -29.7005  -50.7627 H         1 UNK         0.0600 
    214 H214       -3.1926  -29.8792  -49.9624 H         1 UNK         0.0600 
    215 H215       -3.6305  -25.2599  -50.7132 H         1 UNK         0.3000 
    216 H216       -5.8796  -24.9267  -52.5050 H         1 UNK         0.0600 
    217 H217       -3.0361  -24.2613  -53.4814 H         1 UNK         0.0600 
    218 H218       -4.5246  -23.7728  -54.2831 H         1 UNK         0.0600 
    219 H219       -4.1012  -25.4766  -54.1872 H         1 UNK         0.0600 
    220 H220       -6.7300  -22.9002  -52.1457 H         1 UNK         0.3000 
    221 H221       -5.9062  -21.4062  -49.8789 H         1 UNK         0.0600 
    222 H222       -8.2608  -21.5299  -50.6603 H         1 UNK         0.0600 
    223 H223       -7.8393  -20.6871  -52.1509 H         1 UNK         0.0600 
    224 H224       -7.7328  -19.8563  -50.6042 H         1 UNK         0.0600 
    225 H225       -4.7784  -19.4993  -49.6522 H         1 UNK         0.3000 
    226 H226       -2.7284  -18.8153  -51.3924 H         1 UNK         0.0600 
    227 H227       -2.6219  -18.2587  -49.0281 H         1 UNK         0.0600 
    228 H228       -2.5496  -16.7456  -49.9190 H         1 UNK         0.0600 
    229 H229       -4.0464  -17.2224  -49.1367 H         1 UNK         0.0600 
    230 H230       -5.9632  -17.3749  -51.1771 H         1 UNK         0.3000 
    231 H231       -5.5036  -15.2242  -53.0380 H         1 UNK         0.0600 
    232 H232       -8.0973  -16.5152  -52.0306 H         1 UNK         0.0600 
    233 H233       -7.9850  -14.9862  -52.8938 H         1 UNK         0.0600 
    234 H234       -7.2737  -15.1386  -51.2957 H         1 UNK         0.0600 
    235 H235       -6.1136  -18.6339  -53.4841 H         1 UNK         0.3000 
    236 H236       -7.1980  -18.3043  -56.2210 H         1 UNK         0.0600 
    237 H237       -8.2610  -19.9943  -54.7340 H         1 UNK         0.0600 
    238 H238       -7.5062  -20.7422  -56.1327 H         1 UNK         0.0600 
    239 H239       -6.7226  -20.8370  -54.5644 H         1 UNK         0.0600 
    240 H240       -4.3766  -19.7777  -54.4794 H         1 UNK         0.3000 
    241 H241       -3.0264  -20.3192  -56.9936 H         1 UNK         0.0600 
    242 H242       -1.6340  -16.7213  -55.7404 H         1 UNK         0.3800 
    243 H243       -2.8979  -17.4834  -54.8156 H         1 UNK         0.3800 
    244 H244       -1.2293  -21.2990  -55.7141 H         1 UNK         0.0800 
    245 H245       -2.7675  -21.9122  -55.2061 H         1 UNK         0.0800 
    246 H246        0.5302  -20.8307  -54.1185 H         1 UNK         0.0800 
    247 H247        0.0014  -19.1678  -54.1877 H         1 UNK         0.0800 
@<TRIPOS>BOND
     1    1    2 1    
     2    1  127 1    
     3    1  128 1    
     4    1  129 1    
     5    2    3 2    
     6    2    4 am   BACKBONE|DICT|INTERRES
     7    4    5 1    
     8    4  130 1    
     9    5    6 1    
    10    5   65 1    
    11    5  131 1    
    12    6    7 1    
    13    6  132 1    
    14    6  133 1    
    15    7    8 1    
    16    8    9 1    
    17    8  134 1    
    18    8  135 1    
    19    9   10 ar   
    20    9   14 ar   
    21   10   11 ar   
    22   10  136 1    
    23   11   12 ar   
    24   11  126 1    
    25   12   13 ar   
    26   12  137 1    
    27   13   14 ar   
    28   13   15 1    
    29   14  138 1    
    30   15   16 1    
    31   15  139 1    
    32   15  140 1    
    33   16   17 1    
    34   17   18 1    
    35   17  141 1    
    36   17  142 1    
    37   18   19 1    
    38   18   67 1    
    39   18  143 1    
    40   19   20 am   BACKBONE|DICT|INTERRES
    41   19  144 1    
    42   20   21 2    
    43   20   22 1    
    44   22   23 1    
    45   22   24 1    
    46   22  145 1    
    47   23  146 1    
    48   23  147 1    
    49   23  148 1    
    50   24   25 am   BACKBONE|DICT|INTERRES
    51   24  149 1    
    52   25   26 2    
    53   25   27 1    
    54   27   28 1    
    55   27   29 1    
    56   27  150 1    
    57   28  151 1    
    58   28  152 1    
    59   28  153 1    
    60   29   30 am   BACKBONE|DICT|INTERRES
    61   29  154 1    
    62   30   31 2    
    63   30   32 1    
    64   32   33 1    
    65   32   34 1    
    66   32  155 1    
    67   33  156 1    
    68   33  157 1    
    69   33  158 1    
    70   34   35 am   BACKBONE|DICT|INTERRES
    71   34  159 1    
    72   35   36 2    
    73   35   37 1    
    74   37   38 1    
    75   37   39 1    
    76   37  160 1    
    77   38  161 1    
    78   38  162 1    
    79   38  163 1    
    80   39   40 am   BACKBONE|DICT|INTERRES
    81   39  164 1    
    82   40   41 2    
    83   40   42 1    
    84   42   43 1    
    85   42   44 1    
    86   42  165 1    
    87   43  166 1    
    88   43  167 1    
    89   43  168 1    
    90   44   45 am   BACKBONE|DICT|INTERRES
    91   44  169 1    
    92   45   46 2    
    93   45   47 1    
    94   47   48 1    
    95   47   49 1    
    96   47  170 1    
    97   48  171 1    
    98   48  172 1    
    99   48  173 1    
   100   49   50 am   BACKBONE|DICT|INTERRES
   101   49  174 1    
   102   50   51 2    
   103   50   52 1    
   104   52   53 1    
   105   52   54 1    
   106   52  175 1    
   107   53  176 1    
   108   53  177 1    
   109   53  178 1    
   110   54   55 am   BACKBONE|DICT|INTERRES
   111   54  179 1    
   112   55   56 2    
   113   55   57 1    
   114   57   58 1    
   115   57   59 1    
   116   57  180 1    
   117   58  181 1    
   118   58  182 1    
   119   58  183 1    
   120   59   60 am   BACKBONE|DICT|INTERRES
   121   59  184 1    
   122   60   61 2    
   123   60   62 1    
   124   62   63 1    
   125   62   64 1    
   126   62  185 1    
   127   63  186 1    
   128   63  187 1    
   129   63  188 1    
   130   64   65 am   BACKBONE|DICT|INTERRES
   131   64  189 1    
   132   65   66 2    
   133   67   68 2    
   134   67   69 am   BACKBONE|DICT|INTERRES
   135   69   70 1    
   136   69  190 1    
   137   70   71 1    
   138   70   72 1    
   139   70  191 1    
   140   71  192 1    
   141   71  193 1    
   142   71  194 1    
   143   72   73 2    
   144   72   74 am   BACKBONE|DICT|INTERRES
   145   74   75 1    
   146   74  195 1    
   147   75   76 1    
   148   75   77 1    
   149   75  196 1    
   150   76  197 1    
   151   76  198 1    
   152   76  199 1    
   153   77   78 2    
   154   77   79 am   BACKBONE|DICT|INTERRES
   155   79   80 1    
   156   79  200 1    
   157   80   81 1    
   158   80   82 1    
   159   80  201 1    
   160   81  202 1    
   161   81  203 1    
   162   81  204 1    
   163   82   83 2    
   164   82   84 am   BACKBONE|DICT|INTERRES
   165   84   85 1    
   166   84  205 1    
   167   85   86 1    
   168   85   87 1    
   169   85  206 1    
   170   86  207 1    
   171   86  208 1    
   172   86  209 1    
   173   87   88 2    
   174   87   89 am   BACKBONE|DICT|INTERRES
   175   89   90 1    
   176   89  210 1    
   177   90   91 1    
   178   90   92 1    
   179   90  211 1    
   180   91  212 1    
   181   91  213 1    
   182   91  214 1    
   183   92   93 2    
   184   92   94 am   BACKBONE|DICT|INTERRES
   185   94   95 1    
   186   94  215 1    
   187   95   96 1    
   188   95   97 1    
   189   95  216 1    
   190   96  217 1    
   191   96  218 1    
   192   96  219 1    
   193   97   98 2    
   194   97   99 am   BACKBONE|DICT|INTERRES
   195   99  100 1    
   196   99  220 1    
   197  100  101 1    
   198  100  102 1    
   199  100  221 1    
   200  101  222 1    
   201  101  223 1    
   202  101  224 1    
   203  102  103 2    
   204  102  104 am   BACKBONE|DICT|INTERRES
   205  104  105 1    
   206  104  225 1    
   207  105  106 1    
   208  105  107 1    
   209  105  226 1    
   210  106  227 1    
   211  106  228 1    
   212  106  229 1    
   213  107  108 2    
   214  107  109 am   BACKBONE|DICT|INTERRES
   215  109  110 1    
   216  109  230 1    
   217  110  111 1    
   218  110  112 1    
   219  110  231 1    
   220  111  232 1    
   221  111  233 1    
   222  111  234 1    
   223  112  113 2    
   224  112  114 am   BACKBONE|DICT|INTERRES
   225  114  115 1    
   226  114  235 1    
   227  115  116 1    
   228  115  117 1    
   229  115  236 1    
   230  116  237 1    
   231  116  238 1    
   232  116  239 1    
   233  117  118 2    
   234  117  119 am   BACKBONE|DICT|INTERRES
   235  119  120 1    
   236  119  240 1    
   237  120  121 1    
   238  120  124 1    
   239  120  241 1    
   240  121  122 am   BACKBONE|DICT|INTERRES
   241  121  123 2    
   242  122  242 1    
   243  122  243 1    
   244  124  125 1    
   245  124  244 1    
   246  124  245 1    
   247  125  126 1    
   248  126  246 1    
   249  126  247 1    
@<TRIPOS>SUBSTRUCTURE
     1 UNK         1 GROUP             0       ****    0 ROOT    
