@<TRIPOS>MOLECULE
3R540
247   249    1
SMALL
USER_CHARGES


@<TRIPOS>ATOM
      1 CA          6.8093  -10.8136  -48.5180 C.3       0 UNK        -0.1800 
      2 C           5.9067  -11.5422  -47.5327 C.2       0 UNK         0.5000 
      3 O           5.8062  -11.1351  -46.3754 O.2       0 UNK        -0.5000 
      4 N           5.2464  -12.6151  -47.9880 N.am      1 UNK        -0.5000 
      5 CA          4.3493  -13.4565  -47.1825 C.3       1 UNK         0.1400 
      6 C6          3.9726  -14.7788  -47.8998 C.3       23 UNK        -0.0398 
      7 S7          5.3928  -15.7432  -48.5139 S.3       23 UNK        -0.2404 
      8 C8          5.1688  -15.6175  -50.3204 C.3       23 UNK        -0.0205 
      9 C9          3.9064  -16.3178  -50.8109 C.ar      23 UNK        -0.0193 
     10 C10         2.8283  -15.5764  -51.3089 C.ar      23 UNK        -0.1150 
     11 C11         1.6820  -16.2201  -51.7876 C.ar      23 UNK        -0.0193 
     12 C12         1.6221  -17.6151  -51.7723 C.ar      23 UNK        -0.1150 
     13 C13         2.6838  -18.3657  -51.2625 C.ar      23 UNK        -0.0193 
     14 C14         3.8252  -17.7130  -50.7884 C.ar      23 UNK        -0.1150 
     15 C15         2.5945  -19.8818  -51.2189 C.3       23 UNK        -0.0205 
     16 S16         2.0183  -20.4591  -49.5944 S.3       23 UNK        -0.2404 
     17 C17         0.2847  -19.8866  -49.5850 C.3       23 UNK        -0.0398 
     18 CA         -0.6279  -20.8544  -48.7956 C.3       11 UNK         0.1400 
     19 N          -0.2325  -20.9343  -47.3867 N.am      11 UNK        -0.5000 
     20 C          -0.4022  -21.9706  -46.5563 C.2       10 UNK         0.5000 
     21 O          -1.0675  -22.9682  -46.8473 O.2       10 UNK        -0.5000 
     22 CA          0.2169  -21.8414  -45.1513 C.3       10 UNK         0.1400 
     23 CB          0.6798  -23.1891  -44.5687 C.3       10 UNK        -0.1800 
     24 N           1.2759  -20.8314  -45.0746 N.am      10 UNK        -0.5000 
     25 C           2.4983  -20.8491  -45.6305 C.2       9 UNK         0.5000 
     26 O           2.9422  -21.7817  -46.2994 O.2       9 UNK        -0.5000 
     27 CA          3.3795  -19.6072  -45.3762 C.3       9 UNK         0.1400 
     28 CB          3.4945  -18.7321  -46.6353 C.3       9 UNK        -0.1800 
     29 N           2.8573  -18.7988  -44.2700 N.am      9 UNK        -0.5000 
     30 C           3.1201  -19.0446  -42.9789 C.2       8 UNK         0.5000 
     31 O           3.9509  -19.8649  -42.5878 O.2       8 UNK        -0.5000 
     32 CA          2.2641  -18.2795  -41.9583 C.3       8 UNK         0.1400 
     33 CB          2.6816  -16.8030  -41.8836 C.3       8 UNK        -0.1800 
     34 N           0.8328  -18.3827  -42.2614 N.am      8 UNK        -0.5000 
     35 C           0.0984  -19.4871  -42.0566 C.2       7 UNK         0.5000 
     36 O           0.5675  -20.5402  -41.6265 O.2       7 UNK        -0.5000 
     37 CA         -1.4027  -19.4300  -42.3862 C.3       7 UNK         0.1400 
     38 CB         -2.1910  -18.8750  -41.1898 C.3       7 UNK        -0.1800 
     39 N          -1.6959  -18.6155  -43.5658 N.am      7 UNK        -0.5000 
     40 C          -2.4117  -19.0278  -44.6230 C.2       6 UNK         0.5000 
     41 O          -2.8066  -20.1828  -44.7912 O.2       6 UNK        -0.5000 
     42 CA         -2.7649  -17.9675  -45.6817 C.3       6 UNK         0.1400 
     43 CB         -4.1032  -17.3073  -45.3151 C.3       6 UNK        -0.1800 
     44 N          -1.7630  -16.9186  -45.8439 N.am      6 UNK        -0.5000 
     45 C          -0.4796  -17.1040  -46.1718 C.2       5 UNK         0.5000 
     46 O           0.0253  -18.2032  -46.4005 O.2       5 UNK        -0.5000 
     47 CA          0.3974  -15.8413  -46.2116 C.3       5 UNK         0.1400 
     48 CB          0.3603  -15.2565  -47.6292 C.3       5 UNK        -0.1800 
     49 N           0.0452  -14.7904  -45.2431 N.am      5 UNK        -0.5000 
     50 C          -0.1216  -14.9458  -43.9205 C.2       4 UNK         0.5000 
     51 O          -0.1691  -16.0496  -43.3736 O.2       4 UNK        -0.5000 
     52 CA         -0.2545  -13.6725  -43.0626 C.3       4 UNK         0.1400 
     53 CB          0.2660  -13.8847  -41.6245 C.3       4 UNK        -0.1800 
     54 N           0.4059  -12.5092  -43.6664 N.am      4 UNK        -0.5000 
     55 C           0.1122  -11.2369  -43.3534 C.2       3 UNK         0.5000 
     56 O          -0.7911  -10.9187  -42.5782 O.2       3 UNK        -0.5000 
     57 CA          0.9609  -10.1208  -43.9992 C.3       3 UNK         0.1400 
     58 CB          2.1699   -9.7870  -43.1120 C.3       3 UNK        -0.1800 
     59 N           1.4343  -10.4452  -45.3431 N.am      3 UNK        -0.5000 
     60 C           0.6446  -10.6420  -46.4050 C.2       2 UNK         0.5000 
     61 O          -0.5741  -10.4664  -46.3847 O.2       2 UNK        -0.5000 
     62 CA          1.3058  -11.1321  -47.7092 C.3       2 UNK         0.1400 
     63 CB          1.3830   -9.9844  -48.7283 C.3       2 UNK        -0.1800 
     64 N           2.6361  -11.7486  -47.6087 N.am      2 UNK        -0.5000 
     65 C           3.0413  -12.7356  -46.7936 C.2       1 UNK         0.5000 
     66 O           2.4103  -13.1262  -45.8118 O.2       1 UNK        -0.5000 
     67 C          -2.1298  -20.5340  -48.9587 C.2       11 UNK         0.5000 
     68 O          -2.5143  -19.7364  -49.8149 O.2       11 UNK        -0.5000 
     69 N          -2.9448  -21.1937  -48.1352 N.am      12 UNK        -0.5000 
     70 CA         -4.3951  -21.2860  -48.1945 C.3       12 UNK         0.1400 
     71 CB         -5.0830  -19.9681  -47.8020 C.3       12 UNK        -0.1800 
     72 C          -4.8176  -22.4369  -47.2744 C.2       12 UNK         0.5000 
     73 O          -5.5756  -23.3010  -47.7091 O.2       12 UNK        -0.5000 
     74 N          -4.2812  -22.4532  -46.0424 N.am      13 UNK        -0.5000 
     75 CA         -4.5556  -23.4611  -45.0164 C.3       13 UNK         0.1400 
     76 CB         -3.9140  -23.0272  -43.6877 C.3       13 UNK        -0.1800 
     77 C          -4.1016  -24.8791  -45.4097 C.2       13 UNK         0.5000 
     78 O          -4.9309  -25.7875  -45.4697 O.2       13 UNK        -0.5000 
     79 N          -2.8010  -25.0436  -45.6901 N.am      14 UNK        -0.5000 
     80 CA         -2.2124  -26.3199  -46.1124 C.3       14 UNK         0.1400 
     81 CB         -0.7089  -26.3263  -45.8001 C.3       14 UNK        -0.1800 
     82 C          -2.4515  -26.5930  -47.6064 C.2       14 UNK         0.5000 
     83 O          -2.5125  -27.7515  -48.0178 O.2       14 UNK        -0.5000 
     84 N          -2.6096  -25.5136  -48.3822 N.am      15 UNK        -0.5000 
     85 CA         -2.9269  -25.5274  -49.8088 C.3       15 UNK         0.1400 
     86 CB         -2.5783  -24.1478  -50.3786 C.3       15 UNK        -0.1800 
     87 C          -4.3951  -25.8911  -50.1213 C.2       15 UNK         0.5000 
     88 O          -4.7384  -26.0330  -51.2978 O.2       15 UNK        -0.5000 
     89 N          -5.2348  -25.9960  -49.0778 N.am      16 UNK        -0.5000 
     90 CA         -6.6605  -26.3505  -49.0840 C.3       16 UNK         0.1400 
     91 CB         -6.8341  -27.8275  -49.4932 C.3       16 UNK        -0.1800 
     92 C          -7.5361  -25.3994  -49.9284 C.2       16 UNK         0.5000 
     93 O          -8.5721  -25.8165  -50.4486 O.2       16 UNK        -0.5000 
     94 N          -7.0729  -24.1496  -50.0824 N.am      17 UNK        -0.5000 
     95 CA         -7.5763  -23.1028  -50.9798 C.3       17 UNK         0.1400 
     96 CB         -8.9557  -22.6037  -50.5047 C.3       17 UNK        -0.1800 
     97 C          -7.5757  -23.5032  -52.4771 C.2       17 UNK         0.5000 
     98 O          -8.2783  -22.8739  -53.2703 O.2       17 UNK        -0.5000 
     99 N          -6.8137  -24.5462  -52.8375 N.am      18 UNK        -0.5000 
    100 CA        -6.8200  -25.1798  -54.1534 C.3       18 UNK         0.1400 
    101 CB        -7.1736  -26.6674  -53.9907 C.3       18 UNK        -0.1800 
    102 C         -5.4650  -25.0149  -54.8515 C.2       18 UNK         0.5000 
    103 O         -5.4282  -24.5694  -55.9992 O.2       18 UNK        -0.5000 
    104 N         -4.3735  -25.3607  -54.1530 N.am      19 UNK        -0.5000 
    105 CA        -3.0050  -25.2302  -54.6674 C.3       19 UNK         0.1400 
    106 CB        -2.0744  -26.1569  -53.8700 C.3       19 UNK        -0.1800 
    107 C         -2.4962  -23.7748  -54.6365 C.2       19 UNK         0.5000 
    108 O         -1.6051  -23.4189  -55.4081 O.2       19 UNK        -0.5000 
    109 N         -3.0879  -22.9674  -53.7533 N.am      20 UNK        -0.5000 
    110 CA        -2.8573  -21.5497  -53.5270 C.3       20 UNK         0.1400 
    111 CB        -1.4949  -21.3149  -52.8474 C.3       20 UNK        -0.1800 
    112 C         -4.0047  -21.0596  -52.6346 C.2       20 UNK         0.5000 
    113 O         -4.6069  -21.8665  -51.9203 O.2       20 UNK        -0.5000 
    114 N         -4.2825  -19.7561  -52.6845 N.am      21 UNK        -0.5000 
    115 CA        -5.3069  -19.0941  -51.8831 C.3       21 UNK         0.1400 
    116 CB        -6.6835  -19.2240  -52.5640 C.3       21 UNK        -0.1800 
    117 C         -4.8689  -17.6419  -51.6453 C.2       21 UNK         0.5000 
    118 O         -5.5546  -16.7038  -52.0538 O.2       21 UNK        -0.5000 
    119 N         -3.6969  -17.4922  -51.0187 N.am      22 UNK        -0.5000 
    120 CA        -3.0629  -16.2050  -50.6879 C.3       22 UNK         0.1400 
    121 C         -3.6797  -15.4802  -49.4493 C.2       22 UNK         0.5000 
    122 N         -4.6663  -16.0475  -48.7664 N.am      22 UNK        -0.7600 
    123 O         -3.2767  -14.3728  -49.1080 O.2       22 UNK        -0.5000 
    124 C124       -1.5227  -16.3699  -50.5780 C.3       23 UNK        -0.0398 
    125 S125       -0.6027  -14.8487  -51.0155 S.3       23 UNK        -0.2404 
    126 C126        0.5159  -15.4113  -52.3371 C.3       23 UNK        -0.0205 
    127 H127        6.8022  -11.2859  -49.5007 H         1 UNK         0.0600 
    128 H128        7.8358  -10.8070  -48.1517 H         1 UNK         0.0600 
    129 H129        6.4809   -9.7808  -48.6345 H         1 UNK         0.0600 
    130 H130        5.3928  -12.9178  -48.9398 H         1 UNK         0.3000 
    131 H131        4.8707  -13.7085  -46.2566 H         1 UNK         0.0600 
    132 H132        3.4232  -15.4285  -47.2171 H         1 UNK         0.0800 
    133 H133        3.2925  -14.5792  -48.7285 H         1 UNK         0.0800 
    134 H134        6.0338  -16.0663  -50.8108 H         1 UNK         0.0800 
    135 H135        5.1673  -14.5669  -50.6135 H         1 UNK         0.0800 
    136 H136        2.8797  -14.4969  -51.3290 H         1 UNK         0.1150 
    137 H137        0.7454  -18.1188  -52.1527 H         1 UNK         0.1150 
    138 H138        4.6500  -18.2909  -50.3954 H         1 UNK         0.1150 
    139 H139        1.9329  -20.2555  -52.0021 H         1 UNK         0.0800 
    140 H140        3.5765  -20.3130  -51.4185 H         1 UNK         0.0800 
    141 H141       -0.0536  -19.8060  -50.6180 H         1 UNK         0.0800 
    142 H142        0.2455  -18.8806  -49.1639 H         1 UNK         0.0800 
    143 H143       -0.4951  -21.8461  -49.2328 H         1 UNK         0.0600 
    144 H144        0.2217  -20.1039  -47.0209 H         1 UNK         0.3000 
    145 H145       -0.5804  -21.4811  -44.5046 H         1 UNK         0.0600 
    146 H146        1.1766  -23.0538  -43.6078 H         1 UNK         0.0600 
    147 H147       -0.1726  -23.8454  -44.3976 H         1 UNK         0.0600 
    148 H148        1.3692  -23.7068  -45.2362 H         1 UNK         0.0600 
    149 H149        1.0307  -19.9946  -44.5680 H         1 UNK         0.3000 
    150 H150        4.3819  -19.9610  -45.1258 H         1 UNK         0.0600 
    151 H151        3.9605  -19.2864  -47.4507 H         1 UNK         0.0600 
    152 H152        4.1125  -17.8538  -46.4500 H         1 UNK         0.0600 
    153 H153        2.5239  -18.3908  -46.9922 H         1 UNK         0.0600 
    154 H154        2.1672  -18.1002  -44.5018 H         1 UNK         0.3000 
    155 H155        2.4395  -18.7235  -40.9758 H         1 UNK         0.0600 
    156 H156        3.7398  -16.7092  -41.6368 H         1 UNK         0.0600 
    157 H157        2.1214  -16.2804  -41.1087 H         1 UNK         0.0600 
    158 H158        2.5186  -16.2824  -42.8276 H         1 UNK         0.0600 
    159 H159        0.3886  -17.5368  -42.6141 H         1 UNK         0.3000 
    160 H160       -1.7289  -20.4595  -42.5488 H         1 UNK         0.0600 
    161 H161       -1.9235  -17.8389  -40.9778 H         1 UNK         0.0600 
    162 H162       -1.9978  -19.4574  -40.2879 H         1 UNK         0.0600 
    163 H163       -3.2644  -18.9120  -41.3765 H         1 UNK         0.0600 
    164 H164       -1.3750  -17.6532  -43.5453 H         1 UNK         0.3000 
    165 H165       -2.8663  -18.4748  -46.6422 H         1 UNK         0.0600 
    166 H166       -4.4411  -16.6323  -46.0990 H         1 UNK         0.0600 
    167 H167       -4.8877  -18.0494  -45.1647 H         1 UNK         0.0600 
    168 H168       -4.0246  -16.7314  -44.3920 H         1 UNK         0.0600 
    169 H169       -2.0687  -15.9735  -45.6656 H         1 UNK         0.3000 
    170 H170        1.4208  -16.1475  -45.9894 H         1 UNK         0.0600 
    171 H171        0.7207  -15.9827  -48.3596 H         1 UNK         0.0600 
    172 H172       -0.6523  -14.9682  -47.9137 H         1 UNK         0.0600 
    173 H173        0.9843  -14.3735  -47.7273 H         1 UNK         0.0600 
    174 H174        0.0703  -13.8468  -45.5999 H         1 UNK         0.3000 
    175 H175       -1.3265  -13.4730  -43.0093 H         1 UNK         0.0600 
    176 H176       -0.1997  -14.7496  -41.1504 H         1 UNK         0.0600 
    177 H177        1.3448  -14.0400  -41.6144 H         1 UNK         0.0600 
    178 H178        0.0495  -13.0256  -40.9900 H         1 UNK         0.0600 
    179 H179        1.1677  -12.6998  -44.3130 H         1 UNK         0.3000 
    180 H180        0.3340   -9.2296  -44.0710 H         1 UNK         0.0600 
    181 H181        2.8508  -10.6349  -43.0255 H         1 UNK         0.0600 
    182 H182        1.8524   -9.5163  -42.1042 H         1 UNK         0.0600 
    183 H183        2.7325   -8.9433  -43.5122 H         1 UNK         0.0600 
    184 H184        2.4196  -10.6420  -45.4449 H         1 UNK         0.3000 
    185 H185        0.6417  -11.8961  -48.1180 H         1 UNK         0.0600 
    186 H186        1.7079  -10.3432  -49.7052 H         1 UNK         0.0600 
    187 H187        0.4089   -9.5133  -48.8677 H         1 UNK         0.0600 
    188 H188        2.0793   -9.2095  -48.4051 H         1 UNK         0.0600 
    189 H189        3.2740  -11.4995  -48.3503 H         1 UNK         0.3000 
    190 H190       -2.4980  -21.8429  -47.4946 H         1 UNK         0.3000 
    191 H191       -4.6798  -21.5394  -49.2173 H         1 UNK         0.0600 
    192 H192       -4.9289  -19.7382  -46.7495 H         1 UNK         0.0600 
    193 H193       -6.1592  -20.0348  -47.9642 H         1 UNK         0.0600 
    194 H194       -4.7176  -19.1274  -48.3900 H         1 UNK         0.0600 
    195 H195       -3.7070  -21.6695  -45.7441 H         1 UNK         0.3000 
    196 H196       -5.6372  -23.4936  -44.8695 H         1 UNK         0.0600 
    197 H197       -4.0909  -23.7668  -42.9059 H         1 UNK         0.0600 
    198 H198       -4.3329  -22.0825  -43.3403 H         1 UNK         0.0600 
    199 H199       -2.8352  -22.8966  -43.7805 H         1 UNK         0.0600 
    200 H200       -2.1882  -24.2365  -45.7045 H         1 UNK         0.3000 
    201 H201       -2.6765  -27.1312  -45.5473 H         1 UNK         0.0600 
    202 H202       -0.5277  -26.1986  -44.7331 H         1 UNK         0.0600 
    203 H203       -0.1819  -25.5346  -46.3336 H         1 UNK         0.0600 
    204 H204       -0.2549  -27.2741  -46.0921 H         1 UNK         0.0600 
    205 H205       -2.4966  -24.6078  -47.9496 H         1 UNK         0.3000 
    206 H206       -2.2958  -26.2728  -50.2965 H         1 UNK         0.0600 
    207 H207       -1.5373  -23.8888  -50.1865 H         1 UNK         0.0600 
    208 H208       -2.7209  -24.1301  -51.4548 H         1 UNK         0.0600 
    209 H209       -3.2088  -23.3669  -49.9566 H         1 UNK         0.0600 
    210 H210       -4.8567  -25.7903  -48.1633 H         1 UNK         0.3000 
    211 H211       -7.0042  -26.2451  -48.0540 H         1 UNK         0.0600 
    212 H212       -6.5670  -27.9900  -50.5381 H         1 UNK         0.0600 
    213 H213       -7.8669  -28.1531  -49.3644 H         1 UNK         0.0600 
    214 H214       -6.2114  -28.4812  -48.8823 H         1 UNK         0.0600 
    215 H215       -6.2587  -23.8993  -49.5316 H         1 UNK         0.3000 
    216 H216       -6.8857  -22.2661  -50.8833 H         1 UNK         0.0600 
    217 H217       -9.2679  -21.7220  -51.0655 H         1 UNK         0.0600 
    218 H218       -8.9313  -22.3235  -49.4516 H         1 UNK         0.0600 
    219 H219       -9.7273  -23.3632  -50.6331 H         1 UNK         0.0600 
    220 H220       -6.2370  -24.9900  -52.1307 H         1 UNK         0.3000 
    221 H221       -7.5779  -24.7264  -54.7956 H         1 UNK         0.0600 
    222 H222       -6.4663  -27.1856  -53.3417 H         1 UNK         0.0600 
    223 H223       -8.1671  -26.7869  -53.5579 H         1 UNK         0.0600 
    224 H224       -7.1739  -27.1781  -54.9544 H         1 UNK         0.0600 
    225 H225       -4.4794  -25.7172  -53.2075 H         1 UNK         0.3000 
    226 H226       -2.9900  -25.5589  -55.7089 H         1 UNK         0.0600 
    227 H227       -2.3901  -27.1969  -53.9542 H         1 UNK         0.0600 
    228 H228       -1.0511  -26.0973  -54.2430 H         1 UNK         0.0600 
    229 H229       -2.0524  -25.9007  -52.8119 H         1 UNK         0.0600 
    230 H230       -3.8361  -23.3374  -53.1794 H         1 UNK         0.3000 
    231 H231       -2.8961  -21.0260  -54.4840 H         1 UNK         0.0600 
    232 H232       -0.6704  -21.6623  -53.4696 H         1 UNK         0.0600 
    233 H233       -1.4304  -21.8297  -51.8887 H         1 UNK         0.0600 
    234 H234       -1.3324  -20.2528  -52.6615 H         1 UNK         0.0600 
    235 H235       -3.7279  -19.1484  -53.2716 H         1 UNK         0.3000 
    236 H236       -5.3637  -19.5693  -50.9014 H         1 UNK         0.0600 
    237 H237       -7.4582  -18.7289  -51.9775 H         1 UNK         0.0600 
    238 H238       -6.6832  -18.7762  -53.5584 H         1 UNK         0.0600 
    239 H239       -6.9761  -20.2687  -52.6691 H         1 UNK         0.0600 
    240 H240       -3.2218  -18.3270  -50.6754 H         1 UNK         0.3000 
    241 H241       -3.2583  -15.5431  -51.5338 H         1 UNK         0.0600 
    242 H242       -5.0736  -15.5505  -47.9912 H         1 UNK         0.3800 
    243 H243       -5.0377  -16.9383  -49.0472 H         1 UNK         0.3800 
    244 H244       -1.2365  -16.7037  -49.5803 H         1 UNK         0.0800 
    245 H245       -1.1955  -17.1628  -51.2498 H         1 UNK         0.0800 
    246 H246       -0.0434  -15.9874  -53.0760 H         1 UNK         0.0800 
    247 H247        0.8994  -14.5368  -52.8647 H         1 UNK         0.0800 
@<TRIPOS>BOND
     1    1    2 1    
     2    1  127 1    
     3    1  128 1    
     4    1  129 1    
     5    2    3 2    
     6    2    4 am   BACKBONE|DICT|INTERRES
     7    4    5 1    
     8    4  130 1    
     9    5    6 1    
    10    5   65 1    
    11    5  131 1    
    12    6    7 1    
    13    6  132 1    
    14    6  133 1    
    15    7    8 1    
    16    8    9 1    
    17    8  134 1    
    18    8  135 1    
    19    9   10 ar   
    20    9   14 ar   
    21   10   11 ar   
    22   10  136 1    
    23   11   12 ar   
    24   11  126 1    
    25   12   13 ar   
    26   12  137 1    
    27   13   14 ar   
    28   13   15 1    
    29   14  138 1    
    30   15   16 1    
    31   15  139 1    
    32   15  140 1    
    33   16   17 1    
    34   17   18 1    
    35   17  141 1    
    36   17  142 1    
    37   18   19 1    
    38   18   67 1    
    39   18  143 1    
    40   19   20 am   BACKBONE|DICT|INTERRES
    41   19  144 1    
    42   20   21 2    
    43   20   22 1    
    44   22   23 1    
    45   22   24 1    
    46   22  145 1    
    47   23  146 1    
    48   23  147 1    
    49   23  148 1    
    50   24   25 am   BACKBONE|DICT|INTERRES
    51   24  149 1    
    52   25   26 2    
    53   25   27 1    
    54   27   28 1    
    55   27   29 1    
    56   27  150 1    
    57   28  151 1    
    58   28  152 1    
    59   28  153 1    
    60   29   30 am   BACKBONE|DICT|INTERRES
    61   29  154 1    
    62   30   31 2    
    63   30   32 1    
    64   32   33 1    
    65   32   34 1    
    66   32  155 1    
    67   33  156 1    
    68   33  157 1    
    69   33  158 1    
    70   34   35 am   BACKBONE|DICT|INTERRES
    71   34  159 1    
    72   35   36 2    
    73   35   37 1    
    74   37   38 1    
    75   37   39 1    
    76   37  160 1    
    77   38  161 1    
    78   38  162 1    
    79   38  163 1    
    80   39   40 am   BACKBONE|DICT|INTERRES
    81   39  164 1    
    82   40   41 2    
    83   40   42 1    
    84   42   43 1    
    85   42   44 1    
    86   42  165 1    
    87   43  166 1    
    88   43  167 1    
    89   43  168 1    
    90   44   45 am   BACKBONE|DICT|INTERRES
    91   44  169 1    
    92   45   46 2    
    93   45   47 1    
    94   47   48 1    
    95   47   49 1    
    96   47  170 1    
    97   48  171 1    
    98   48  172 1    
    99   48  173 1    
   100   49   50 am   BACKBONE|DICT|INTERRES
   101   49  174 1    
   102   50   51 2    
   103   50   52 1    
   104   52   53 1    
   105   52   54 1    
   106   52  175 1    
   107   53  176 1    
   108   53  177 1    
   109   53  178 1    
   110   54   55 am   BACKBONE|DICT|INTERRES
   111   54  179 1    
   112   55   56 2    
   113   55   57 1    
   114   57   58 1    
   115   57   59 1    
   116   57  180 1    
   117   58  181 1    
   118   58  182 1    
   119   58  183 1    
   120   59   60 am   BACKBONE|DICT|INTERRES
   121   59  184 1    
   122   60   61 2    
   123   60   62 1    
   124   62   63 1    
   125   62   64 1    
   126   62  185 1    
   127   63  186 1    
   128   63  187 1    
   129   63  188 1    
   130   64   65 am   BACKBONE|DICT|INTERRES
   131   64  189 1    
   132   65   66 2    
   133   67   68 2    
   134   67   69 am   BACKBONE|DICT|INTERRES
   135   69   70 1    
   136   69  190 1    
   137   70   71 1    
   138   70   72 1    
   139   70  191 1    
   140   71  192 1    
   141   71  193 1    
   142   71  194 1    
   143   72   73 2    
   144   72   74 am   BACKBONE|DICT|INTERRES
   145   74   75 1    
   146   74  195 1    
   147   75   76 1    
   148   75   77 1    
   149   75  196 1    
   150   76  197 1    
   151   76  198 1    
   152   76  199 1    
   153   77   78 2    
   154   77   79 am   BACKBONE|DICT|INTERRES
   155   79   80 1    
   156   79  200 1    
   157   80   81 1    
   158   80   82 1    
   159   80  201 1    
   160   81  202 1    
   161   81  203 1    
   162   81  204 1    
   163   82   83 2    
   164   82   84 am   BACKBONE|DICT|INTERRES
   165   84   85 1    
   166   84  205 1    
   167   85   86 1    
   168   85   87 1    
   169   85  206 1    
   170   86  207 1    
   171   86  208 1    
   172   86  209 1    
   173   87   88 2    
   174   87   89 am   BACKBONE|DICT|INTERRES
   175   89   90 1    
   176   89  210 1    
   177   90   91 1    
   178   90   92 1    
   179   90  211 1    
   180   91  212 1    
   181   91  213 1    
   182   91  214 1    
   183   92   93 2    
   184   92   94 am   BACKBONE|DICT|INTERRES
   185   94   95 1    
   186   94  215 1    
   187   95   96 1    
   188   95   97 1    
   189   95  216 1    
   190   96  217 1    
   191   96  218 1    
   192   96  219 1    
   193   97   98 2    
   194   97   99 am   BACKBONE|DICT|INTERRES
   195   99  100 1    
   196   99  220 1    
   197  100  101 1    
   198  100  102 1    
   199  100  221 1    
   200  101  222 1    
   201  101  223 1    
   202  101  224 1    
   203  102  103 2    
   204  102  104 am   BACKBONE|DICT|INTERRES
   205  104  105 1    
   206  104  225 1    
   207  105  106 1    
   208  105  107 1    
   209  105  226 1    
   210  106  227 1    
   211  106  228 1    
   212  106  229 1    
   213  107  108 2    
   214  107  109 am   BACKBONE|DICT|INTERRES
   215  109  110 1    
   216  109  230 1    
   217  110  111 1    
   218  110  112 1    
   219  110  231 1    
   220  111  232 1    
   221  111  233 1    
   222  111  234 1    
   223  112  113 2    
   224  112  114 am   BACKBONE|DICT|INTERRES
   225  114  115 1    
   226  114  235 1    
   227  115  116 1    
   228  115  117 1    
   229  115  236 1    
   230  116  237 1    
   231  116  238 1    
   232  116  239 1    
   233  117  118 2    
   234  117  119 am   BACKBONE|DICT|INTERRES
   235  119  120 1    
   236  119  240 1    
   237  120  121 1    
   238  120  124 1    
   239  120  241 1    
   240  121  122 am   BACKBONE|DICT|INTERRES
   241  121  123 2    
   242  122  242 1    
   243  122  243 1    
   244  124  125 1    
   245  124  244 1    
   246  124  245 1    
   247  125  126 1    
   248  126  246 1    
   249  126  247 1    
@<TRIPOS>SUBSTRUCTURE
     1 UNK         1 GROUP             0       ****    0 ROOT    
