@<TRIPOS>MOLECULE
3R540
247   249    1
SMALL
USER_CHARGES


@<TRIPOS>ATOM
      1 CA         -0.2231  -15.8726  -53.1618 C.3       0 UNK        -0.1800 
      2 C          -0.2844  -14.9312  -51.9697 C.2       0 UNK         0.5000 
      3 O          -0.9173  -13.8787  -52.0491 O.2       0 UNK        -0.5000 
      4 N           0.3804  -15.3035  -50.8714 N.am      1 UNK        -0.5000 
      5 CA          0.3906  -14.5668  -49.6072 C.3       1 UNK         0.1400 
      6 C6          1.6693  -14.8539  -48.7783 C.3       23 UNK        -0.0398 
      7 S7          2.0200  -16.6285  -48.5126 S.3       23 UNK        -0.2404 
      8 C8          3.2117  -16.9905  -49.8475 C.3       23 UNK        -0.0205 
      9 C9          2.8026  -18.2174  -50.6513 C.ar      23 UNK        -0.0193 
     10 C10         2.6227  -18.1410  -52.0354 C.ar      23 UNK        -0.1150 
     11 C11         2.2722  -19.2793  -52.7690 C.ar      23 UNK        -0.0193 
     12 C12         2.0772  -20.4923  -52.1032 C.ar      23 UNK        -0.1150 
     13 C13         2.2509  -20.5865  -50.7190 C.ar      23 UNK        -0.0193 
     14 C14         2.6285  -19.4433  -50.0062 C.ar      23 UNK        -0.1150 
     15 C15         1.9913  -21.9277  -50.0367 C.3       23 UNK        -0.0205 
     16 S16         2.9733  -22.2519  -48.5300 S.3       23 UNK        -0.2404 
     17 C17         1.9748  -21.4781  -47.2087 C.3       23 UNK        -0.0398 
     18 CA          0.9642  -22.4708  -46.5809 C.3       11 UNK         0.1400 
     19 N           0.8751  -22.3546  -45.1229 N.am      11 UNK        -0.5000 
     20 C           0.2268  -23.2302  -44.3403 C.2       10 UNK         0.5000 
     21 O          -0.3171  -24.2503  -44.7631 O.2       10 UNK        -0.5000 
     22 CA          0.1136  -22.8804  -42.8464 C.3       10 UNK         0.1400 
     23 CB          1.4037  -23.2435  -42.0967 C.3       10 UNK        -0.1800 
     24 N          -0.2093  -21.4700  -42.6305 N.am      10 UNK        -0.5000 
     25 C          -1.3455  -20.8847  -43.0359 C.2       9 UNK         0.5000 
     26 O          -2.2712  -21.4914  -43.5746 O.2       9 UNK        -0.5000 
     27 CA         -1.4441  -19.3595  -42.8577 C.3       9 UNK         0.1400 
     28 CB         -1.8288  -19.0026  -41.4142 C.3       9 UNK        -0.1800 
     29 N          -0.2072  -18.6676  -43.2200 N.am      9 UNK        -0.5000 
     30 C           0.3445  -18.6623  -44.4420 C.2       8 UNK         0.5000 
     31 O          -0.1555  -19.2120  -45.4203 O.2       8 UNK        -0.5000 
     32 CA          1.7167  -17.9836  -44.5807 C.3       8 UNK         0.1400 
     33 CB          1.5726  -16.4635  -44.7289 C.3       8 UNK        -0.1800 
     34 N           2.5886  -18.2896  -43.4481 N.am      8 UNK        -0.5000 
     35 C           3.1107  -19.4998  -43.2062 C.2       7 UNK         0.5000 
     36 O           2.9366  -20.4781  -43.9333 O.2       7 UNK        -0.5000 
     37 CA          3.9273  -19.6466  -41.9098 C.3       7 UNK         0.1400 
     38 CB          5.3614  -19.1340  -42.1089 C.3       7 UNK        -0.1800 
     39 N           3.3111  -18.9462  -40.7810 N.am      7 UNK        -0.5000 
     40 C           2.1475  -19.3036  -40.2202 C.2       6 UNK         0.5000 
     41 O           1.4871  -20.2773  -40.5800 O.2       6 UNK        -0.5000 
     42 CA          1.6086  -18.3959  -39.0991 C.3       6 UNK         0.1400 
     43 CB          2.2217  -18.7877  -37.7465 C.3       6 UNK        -0.1800 
     44 N           1.8261  -16.9649  -39.3367 N.am      6 UNK        -0.5000 
     45 C           1.3412  -16.2828  -40.3818 C.2       5 UNK         0.5000 
     46 O           0.7181  -16.8019  -41.3114 O.2       5 UNK        -0.5000 
     47 CA          1.6240  -14.7766  -40.4140 C.3       5 UNK         0.1400 
     48 CB          3.0108  -14.4985  -41.0161 C.3       5 UNK        -0.1800 
     49 N           0.6072  -14.1442  -41.2453 N.am      5 UNK        -0.5000 
     50 C          -0.0620  -13.0225  -40.9618 C.2       4 UNK         0.5000 
     51 O           0.1581  -12.3279  -39.9686 O.2       4 UNK        -0.5000 
     52 CA         -1.1619  -12.5964  -41.9544 C.3       4 UNK         0.1400 
     53 CB         -0.6907  -11.4008  -42.7972 C.3       4 UNK        -0.1800 
     54 N          -1.5634  -13.6712  -42.8639 N.am      4 UNK        -0.5000 
     55 C          -2.4305  -14.6517  -42.5888 C.2       3 UNK         0.5000 
     56 O          -3.0030  -14.7563  -41.5031 O.2       3 UNK        -0.5000 
     57 CA         -2.7075  -15.6724  -43.7217 C.3       3 UNK         0.1400 
     58 CB         -3.9105  -16.5836  -43.4141 C.3       3 UNK        -0.1800 
     59 N          -2.9303  -15.0593  -45.0370 N.am      3 UNK        -0.5000 
     60 C          -2.0047  -14.4865  -45.8152 C.2       2 UNK         0.5000 
     61 O          -0.8251  -14.3499  -45.4825 O.2       2 UNK        -0.5000 
     62 CA         -2.4931  -13.9147  -47.1570 C.3       2 UNK         0.1400 
     63 CB         -3.1000  -12.5176  -46.9546 C.3       2 UNK        -0.1800 
     64 N          -1.3853  -13.8123  -48.1043 N.am      2 UNK        -0.5000 
     65 C          -0.8957  -14.8433  -48.8021 C.2       1 UNK         0.5000 
     66 O          -1.4138  -15.9629  -48.8204 O.2       1 UNK        -0.5000 
     67 C          -0.4199  -22.3520  -47.2494 C.2       11 UNK         0.5000 
     68 O          -0.7280  -23.1436  -48.1370 O.2       11 UNK        -0.5000 
     69 N          -1.2429  -21.3976  -46.7939 N.am      12 UNK        -0.5000 
     70 CA         -2.6088  -21.1860  -47.2712 C.3       12 UNK         0.1400 
     71 CB         -3.1821  -19.8920  -46.6740 C.3       12 UNK        -0.1800 
     72 C          -3.5358  -22.3843  -46.9993 C.2       12 UNK         0.5000 
     73 O          -4.3615  -22.7179  -47.8479 O.2       12 UNK        -0.5000 
     74 N          -3.3600  -23.0397  -45.8451 N.am      13 UNK        -0.5000 
     75 CA         -4.0457  -24.2841  -45.5024 C.3       13 UNK         0.1400 
     76 CB         -3.8506  -24.5797  -44.0074 C.3       13 UNK        -0.1800 
     77 C          -3.5778  -25.4734  -46.3648 C.2       13 UNK         0.5000 
     78 O          -4.4084  -26.2778  -46.7890 O.2       13 UNK        -0.5000 
     79 N          -2.2627  -25.5678  -46.6012 N.am      14 UNK        -0.5000 
     80 CA         -1.6307  -26.6669  -47.3294 C.3       14 UNK         0.1400 
     81 CB         -0.1394  -26.7209  -46.9619 C.3       14 UNK        -0.1800 
     82 C          -1.7958  -26.5846  -48.8580 C.2       14 UNK         0.5000 
     83 O          -2.0309  -27.6147  -49.4916 O.2       14 UNK        -0.5000 
     84 N          -1.6262  -25.3854  -49.4279 N.am      15 UNK        -0.5000 
     85 CA         -1.4514  -25.1645  -50.8639 C.3       15 UNK         0.1400 
     86 CB          0.0467  -25.2563  -51.2111 C.3       15 UNK        -0.1800 
     87 C          -2.0948  -23.8501  -51.3426 C.2       15 UNK         0.5000 
     88 O          -1.5984  -23.2351  -52.2901 O.2       15 UNK        -0.5000 
     89 N          -3.2091  -23.4603  -50.7100 N.am      16 UNK        -0.5000 
     90 CA         -4.1340  -22.3733  -51.0639 C.3       16 UNK         0.1400 
     91 CB         -4.7192  -22.5794  -52.4726 C.3       16 UNK        -0.1800 
     92 C          -3.5836  -20.9436  -50.8972 C.2       16 UNK         0.5000 
     93 O          -4.2579  -20.1116  -50.2892 O.2       16 UNK        -0.5000 
     94 N          -2.3803  -20.6764  -51.4201 N.am      17 UNK        -0.5000 
     95 CA         -1.7013  -19.3774  -51.4578 C.3       17 UNK         0.1400 
     96 CB         -1.1464  -19.0245  -50.0623 C.3       17 UNK        -0.1800 
     97 C          -2.6037  -18.2875  -52.0829 C.2       17 UNK         0.5000 
     98 O          -2.8659  -18.3468  -53.2828 O.2       17 UNK        -0.5000 
     99 N          -3.0872  -17.3281  -51.2820 N.am      18 UNK        -0.5000 
    100 CA        -4.0185  -16.2832  -51.7175 C.3       18 UNK         0.1400 
    101 CB        -4.1054  -15.1958  -50.6356 C.3       18 UNK        -0.1800 
    102 C         -5.4368  -16.7800  -52.0708 C.2       18 UNK         0.5000 
    103 O         -6.1550  -16.0601  -52.7674 O.2       18 UNK        -0.5000 
    104 N         -5.8431  -17.9613  -51.5811 N.am      19 UNK        -0.5000 
    105 CA        -7.1924  -18.5122  -51.7402 C.3       19 UNK         0.1400 
    106 CB        -7.4385  -19.5806  -50.6594 C.3       19 UNK        -0.1800 
    107 C         -7.4471  -19.0479  -53.1649 C.2       19 UNK         0.5000 
    108 O         -7.4447  -20.2602  -53.3787 O.2       19 UNK        -0.5000 
    109 N         -7.6708  -18.1209  -54.1065 N.am      20 UNK        -0.5000 
    110 CA        -7.9319  -18.3426  -55.5342 C.3       20 UNK         0.1400 
    111 CB        -9.2387  -19.1362  -55.7506 C.3       20 UNK        -0.1800 
    112 C         -6.7162  -18.9409  -56.2736 C.2       20 UNK         0.5000 
    113 O         -6.8725  -19.8495  -57.0918 O.2       20 UNK        -0.5000 
    114 N         -5.5372  -18.3758  -55.9749 N.am      21 UNK        -0.5000 
    115 CA        -4.1987  -18.7096  -56.4754 C.3       21 UNK         0.1400 
    116 CB        -4.1374  -18.6877  -58.0170 C.3       21 UNK        -0.1800 
    117 C         -3.6284  -20.0200  -55.8974 C.2       21 UNK         0.5000 
    118 O         -4.3663  -20.8865  -55.4257 O.2       21 UNK        -0.5000 
    119 N         -2.2944  -20.1025  -55.9210 N.am      22 UNK        -0.5000 
    120 CA        -1.4780  -21.1489  -55.2920 C.3       22 UNK         0.1400 
    121 C         -1.7161  -22.5618  -55.8931 C.2       22 UNK         0.5000 
    122 N         -1.7259  -23.5993  -55.0691 N.am      22 UNK        -0.7600 
    123 O         -1.8369  -22.7299  -57.1050 O.2       22 UNK        -0.5000 
    124 C124        0.0317  -20.7913  -55.3466 C.3       23 UNK        -0.0398 
    125 S125        0.3974  -19.0836  -54.8026 S.3       23 UNK        -0.2404 
    126 C126        2.1349  -19.2043  -54.2823 C.3       23 UNK        -0.0205 
    127 H127        0.0847  -16.8724  -52.8583 H         1 UNK         0.0600 
    128 H128        0.4875  -15.5030  -53.9006 H         1 UNK         0.0600 
    129 H129       -1.2010  -15.9515  -53.6367 H         1 UNK         0.0600 
    130 H130        0.8424  -16.2009  -50.8397 H         1 UNK         0.3000 
    131 H131        0.4022  -13.5005  -49.8446 H         1 UNK         0.0600 
    132 H132        1.6020  -14.3749  -47.7995 H         1 UNK         0.0800 
    133 H133        2.5284  -14.3868  -49.2606 H         1 UNK         0.0800 
    134 H134        3.3245  -16.1288  -50.5064 H         1 UNK         0.0800 
    135 H135        4.1931  -17.1664  -49.4052 H         1 UNK         0.0800 
    136 H136        2.7729  -17.2005  -52.5470 H         1 UNK         0.1150 
    137 H137        1.7932  -21.3693  -52.6670 H         1 UNK         0.1150 
    138 H138        2.7870  -19.4855  -48.9408 H         1 UNK         0.1150 
    139 H139        0.9267  -22.0114  -49.8233 H         1 UNK         0.0800 
    140 H140        2.2223  -22.7289  -50.7399 H         1 UNK         0.0800 
    141 H141        1.4847  -20.5696  -47.5623 H         1 UNK         0.0800 
    142 H142        2.6895  -21.1427  -46.4573 H         1 UNK         0.0800 
    143 H143        1.3183  -23.4869  -46.7695 H         1 UNK         0.0600 
    144 H144        1.3291  -21.5549  -44.6950 H         1 UNK         0.3000 
    145 H145       -0.7001  -23.4762  -42.4278 H         1 UNK         0.0600 
    146 H146        1.6543  -24.2956  -42.2378 H         1 UNK         0.0600 
    147 H147        2.2528  -22.6538  -42.4427 H         1 UNK         0.0600 
    148 H148        1.2959  -23.0758  -41.0250 H         1 UNK         0.0600 
    149 H149        0.4806  -20.9152  -42.1325 H         1 UNK         0.3000 
    150 H150       -2.2297  -18.9979  -43.5227 H         1 UNK         0.0600 
    151 H151       -1.8858  -17.9234  -41.2716 H         1 UNK         0.0600 
    152 H152       -1.1069  -19.3921  -40.6968 H         1 UNK         0.0600 
    153 H153       -2.8033  -19.4194  -41.1574 H         1 UNK         0.0600 
    154 H154        0.2547  -18.1473  -42.4776 H         1 UNK         0.3000 
    155 H155        2.1892  -18.3666  -45.4882 H         1 UNK         0.0600 
    156 H156        0.9879  -16.2246  -45.6173 H         1 UNK         0.0600 
    157 H157        2.5434  -15.9816  -44.8439 H         1 UNK         0.0600 
    158 H158        1.0697  -16.0120  -43.8739 H         1 UNK         0.0600 
    159 H159        2.7323  -17.5549  -42.7721 H         1 UNK         0.3000 
    160 H160        3.9759  -20.7101  -41.6659 H         1 UNK         0.0600 
    161 H161        5.8481  -19.6503  -42.9374 H         1 UNK         0.0600 
    162 H162        5.9679  -19.3056  -41.2194 H         1 UNK         0.0600 
    163 H163        5.3829  -18.0660  -42.3293 H         1 UNK         0.0600 
    164 H164        3.7896  -18.1316  -40.4260 H         1 UNK         0.3000 
    165 H165        0.5304  -18.5570  -39.0399 H         1 UNK         0.0600 
    166 H166        1.7716  -18.2220  -36.9304 H         1 UNK         0.0600 
    167 H167        2.0579  -19.8454  -37.5352 H         1 UNK         0.0600 
    168 H168        3.2978  -18.6113  -37.7248 H         1 UNK         0.0600 
    169 H169        2.3412  -16.4671  -38.6247 H         1 UNK         0.3000 
    170 H170        1.5799  -14.3924  -39.3927 H         1 UNK         0.0600 
    171 H171        3.2149  -13.4282  -41.0510 H         1 UNK         0.0600 
    172 H172        3.7992  -14.9596  -40.4199 H         1 UNK         0.0600 
    173 H173        3.0945  -14.8869  -42.0322 H         1 UNK         0.0600 
    174 H174        0.3069  -14.6978  -42.0358 H         1 UNK         0.3000 
    175 H175       -2.0300  -12.2834  -41.3706 H         1 UNK         0.0600 
    176 H176        0.1750  -11.6574  -43.4093 H         1 UNK         0.0600 
    177 H177       -1.4806  -11.0526  -43.4632 H         1 UNK         0.0600 
    178 H178       -0.4078  -10.5602  -42.1623 H         1 UNK         0.0600 
    179 H179       -1.1295  -13.6821  -43.7841 H         1 UNK         0.3000 
    180 H180       -1.8204  -16.3048  -43.7905 H         1 UNK         0.0600 
    181 H181       -4.0327  -17.3481  -44.1818 H         1 UNK         0.0600 
    182 H182       -4.8388  -16.0140  -43.3576 H         1 UNK         0.0600 
    183 H183       -3.7894  -17.1004  -42.4624 H         1 UNK         0.0600 
    184 H184       -3.8843  -15.0800  -45.3672 H         1 UNK         0.3000 
    185 H185       -3.2596  -14.5763  -47.5661 H         1 UNK         0.0600 
    186 H186       -2.3755  -11.8202  -46.5314 H         1 UNK         0.0600 
    187 H187       -3.4545  -12.1021  -47.8982 H         1 UNK         0.0600 
    188 H188       -3.9536  -12.5541  -46.2767 H         1 UNK         0.0600 
    189 H189       -0.8899  -12.9330  -48.1108 H         1 UNK         0.3000 
    190 H190       -0.8944  -20.7316  -46.1072 H         1 UNK         0.3000 
    191 H191       -2.5448  -21.0603  -48.3499 H         1 UNK         0.0600 
    192 H192       -3.2790  -19.9555  -45.5906 H         1 UNK         0.0600 
    193 H193       -4.1717  -19.6833  -47.0825 H         1 UNK         0.0600 
    194 H194       -2.5491  -19.0347  -46.9042 H         1 UNK         0.0600 
    195 H195       -2.7095  -22.6645  -45.1620 H         1 UNK         0.3000 
    196 H196       -5.1139  -24.1432  -45.6804 H         1 UNK         0.0600 
    197 H197       -4.3778  -25.4893  -43.7173 H         1 UNK         0.0600 
    198 H198       -4.2383  -23.7675  -43.3921 H         1 UNK         0.0600 
    199 H199       -2.7987  -24.7149  -43.7553 H         1 UNK         0.0600 
    200 H200       -1.6404  -24.8887  -46.1753 H         1 UNK         0.3000 
    201 H201       -2.0869  -27.6026  -46.9986 H         1 UNK         0.0600 
    202 H202       -0.0028  -26.8729  -45.8911 H         1 UNK         0.0600 
    203 H203        0.3758  -25.7998  -47.2369 H         1 UNK         0.0600 
    204 H204        0.3615  -27.5435  -47.4738 H         1 UNK         0.0600 
    205 H205       -1.4095  -24.5811  -48.8367 H         1 UNK         0.3000 
    206 H206       -1.9707  -25.9495  -51.4169 H         1 UNK         0.0600 
    207 H207        0.2215  -25.1114  -52.2779 H         1 UNK         0.0600 
    208 H208        0.6216  -24.5033  -50.6733 H         1 UNK         0.0600 
    209 H209        0.4526  -26.2336  -50.9499 H         1 UNK         0.0600 
    210 H210       -3.4890  -23.9991  -49.9014 H         1 UNK         0.3000 
    211 H211       -4.9686  -22.4616  -50.3676 H         1 UNK         0.0600 
    212 H212       -3.9558  -22.5252  -53.2483 H         1 UNK         0.0600 
    213 H213       -5.4574  -21.8115  -52.7003 H         1 UNK         0.0600 
    214 H214       -5.2173  -23.5448  -52.5578 H         1 UNK         0.0600 
    215 H215       -1.9096  -21.4474  -51.8855 H         1 UNK         0.3000 
    216 H216       -0.8488  -19.4971  -52.1263 H         1 UNK         0.0600 
    217 H217       -1.9357  -18.8475  -49.3320 H         1 UNK         0.0600 
    218 H218       -0.5252  -18.1299  -50.1076 H         1 UNK         0.0600 
    219 H219       -0.5179  -19.8267  -49.6763 H         1 UNK         0.0600 
    220 H220       -2.8147  -17.3180  -50.3076 H         1 UNK         0.3000 
    221 H221       -3.6109  -15.8238  -52.6203 H         1 UNK         0.0600 
    222 H222       -4.3628  -15.6145  -49.6622 H         1 UNK         0.0600 
    223 H223       -3.1603  -14.6651  -50.5395 H         1 UNK         0.0600 
    224 H224       -4.8598  -14.4475  -50.8824 H         1 UNK         0.0600 
    225 H225       -5.1854  -18.5328  -51.0580 H         1 UNK         0.3000 
    226 H226       -7.9102  -17.7089  -51.5601 H         1 UNK         0.0600 
    227 H227       -7.2591  -19.1831  -49.6603 H         1 UNK         0.0600 
    228 H228       -8.4707  -19.9310  -50.6901 H         1 UNK         0.0600 
    229 H229       -6.7977  -20.4519  -50.7929 H         1 UNK         0.0600 
    230 H230       -7.5686  -17.1520  -53.8225 H         1 UNK         0.3000 
    231 H231       -8.0850  -17.3529  -55.9668 H         1 UNK         0.0600 
    232 H232       -9.5043  -19.1660  -56.8079 H         1 UNK         0.0600 
    233 H233       -9.1517  -20.1680  -55.4094 H         1 UNK         0.0600 
    234 H234      -10.0725  -18.6759  -55.2206 H         1 UNK         0.0600 
    235 H235       -5.5467  -17.6701  -55.2526 H         1 UNK         0.3000 
    236 H236       -3.5590  -17.9032  -56.1120 H         1 UNK         0.0600 
    237 H237       -4.6731  -19.5277  -58.4594 H         1 UNK         0.0600 
    238 H238       -4.5618  -17.7672  -58.4178 H         1 UNK         0.0600 
    239 H239       -3.1061  -18.7471  -58.3661 H         1 UNK         0.0600 
    240 H240       -1.7688  -19.3384  -56.3182 H         1 UNK         0.3000 
    241 H241       -1.7757  -21.1768  -54.2424 H         1 UNK         0.0600 
    242 H242       -1.8591  -24.5242  -55.4452 H         1 UNK         0.3800 
    243 H243       -1.6284  -23.4750  -54.0625 H         1 UNK         0.3800 
    244 H244        0.5960  -21.4913  -54.7289 H         1 UNK         0.0800 
    245 H245        0.4150  -20.9017  -56.3627 H         1 UNK         0.0800 
    246 H246        2.6679  -18.3309  -54.6612 H         1 UNK         0.0800 
    247 H247        2.6128  -20.0686  -54.7456 H         1 UNK         0.0800 
@<TRIPOS>BOND
     1    1    2 1    
     2    1  127 1    
     3    1  128 1    
     4    1  129 1    
     5    2    3 2    
     6    2    4 am   BACKBONE|DICT|INTERRES
     7    4    5 1    
     8    4  130 1    
     9    5    6 1    
    10    5   65 1    
    11    5  131 1    
    12    6    7 1    
    13    6  132 1    
    14    6  133 1    
    15    7    8 1    
    16    8    9 1    
    17    8  134 1    
    18    8  135 1    
    19    9   10 ar   
    20    9   14 ar   
    21   10   11 ar   
    22   10  136 1    
    23   11   12 ar   
    24   11  126 1    
    25   12   13 ar   
    26   12  137 1    
    27   13   14 ar   
    28   13   15 1    
    29   14  138 1    
    30   15   16 1    
    31   15  139 1    
    32   15  140 1    
    33   16   17 1    
    34   17   18 1    
    35   17  141 1    
    36   17  142 1    
    37   18   19 1    
    38   18   67 1    
    39   18  143 1    
    40   19   20 am   BACKBONE|DICT|INTERRES
    41   19  144 1    
    42   20   21 2    
    43   20   22 1    
    44   22   23 1    
    45   22   24 1    
    46   22  145 1    
    47   23  146 1    
    48   23  147 1    
    49   23  148 1    
    50   24   25 am   BACKBONE|DICT|INTERRES
    51   24  149 1    
    52   25   26 2    
    53   25   27 1    
    54   27   28 1    
    55   27   29 1    
    56   27  150 1    
    57   28  151 1    
    58   28  152 1    
    59   28  153 1    
    60   29   30 am   BACKBONE|DICT|INTERRES
    61   29  154 1    
    62   30   31 2    
    63   30   32 1    
    64   32   33 1    
    65   32   34 1    
    66   32  155 1    
    67   33  156 1    
    68   33  157 1    
    69   33  158 1    
    70   34   35 am   BACKBONE|DICT|INTERRES
    71   34  159 1    
    72   35   36 2    
    73   35   37 1    
    74   37   38 1    
    75   37   39 1    
    76   37  160 1    
    77   38  161 1    
    78   38  162 1    
    79   38  163 1    
    80   39   40 am   BACKBONE|DICT|INTERRES
    81   39  164 1    
    82   40   41 2    
    83   40   42 1    
    84   42   43 1    
    85   42   44 1    
    86   42  165 1    
    87   43  166 1    
    88   43  167 1    
    89   43  168 1    
    90   44   45 am   BACKBONE|DICT|INTERRES
    91   44  169 1    
    92   45   46 2    
    93   45   47 1    
    94   47   48 1    
    95   47   49 1    
    96   47  170 1    
    97   48  171 1    
    98   48  172 1    
    99   48  173 1    
   100   49   50 am   BACKBONE|DICT|INTERRES
   101   49  174 1    
   102   50   51 2    
   103   50   52 1    
   104   52   53 1    
   105   52   54 1    
   106   52  175 1    
   107   53  176 1    
   108   53  177 1    
   109   53  178 1    
   110   54   55 am   BACKBONE|DICT|INTERRES
   111   54  179 1    
   112   55   56 2    
   113   55   57 1    
   114   57   58 1    
   115   57   59 1    
   116   57  180 1    
   117   58  181 1    
   118   58  182 1    
   119   58  183 1    
   120   59   60 am   BACKBONE|DICT|INTERRES
   121   59  184 1    
   122   60   61 2    
   123   60   62 1    
   124   62   63 1    
   125   62   64 1    
   126   62  185 1    
   127   63  186 1    
   128   63  187 1    
   129   63  188 1    
   130   64   65 am   BACKBONE|DICT|INTERRES
   131   64  189 1    
   132   65   66 2    
   133   67   68 2    
   134   67   69 am   BACKBONE|DICT|INTERRES
   135   69   70 1    
   136   69  190 1    
   137   70   71 1    
   138   70   72 1    
   139   70  191 1    
   140   71  192 1    
   141   71  193 1    
   142   71  194 1    
   143   72   73 2    
   144   72   74 am   BACKBONE|DICT|INTERRES
   145   74   75 1    
   146   74  195 1    
   147   75   76 1    
   148   75   77 1    
   149   75  196 1    
   150   76  197 1    
   151   76  198 1    
   152   76  199 1    
   153   77   78 2    
   154   77   79 am   BACKBONE|DICT|INTERRES
   155   79   80 1    
   156   79  200 1    
   157   80   81 1    
   158   80   82 1    
   159   80  201 1    
   160   81  202 1    
   161   81  203 1    
   162   81  204 1    
   163   82   83 2    
   164   82   84 am   BACKBONE|DICT|INTERRES
   165   84   85 1    
   166   84  205 1    
   167   85   86 1    
   168   85   87 1    
   169   85  206 1    
   170   86  207 1    
   171   86  208 1    
   172   86  209 1    
   173   87   88 2    
   174   87   89 am   BACKBONE|DICT|INTERRES
   175   89   90 1    
   176   89  210 1    
   177   90   91 1    
   178   90   92 1    
   179   90  211 1    
   180   91  212 1    
   181   91  213 1    
   182   91  214 1    
   183   92   93 2    
   184   92   94 am   BACKBONE|DICT|INTERRES
   185   94   95 1    
   186   94  215 1    
   187   95   96 1    
   188   95   97 1    
   189   95  216 1    
   190   96  217 1    
   191   96  218 1    
   192   96  219 1    
   193   97   98 2    
   194   97   99 am   BACKBONE|DICT|INTERRES
   195   99  100 1    
   196   99  220 1    
   197  100  101 1    
   198  100  102 1    
   199  100  221 1    
   200  101  222 1    
   201  101  223 1    
   202  101  224 1    
   203  102  103 2    
   204  102  104 am   BACKBONE|DICT|INTERRES
   205  104  105 1    
   206  104  225 1    
   207  105  106 1    
   208  105  107 1    
   209  105  226 1    
   210  106  227 1    
   211  106  228 1    
   212  106  229 1    
   213  107  108 2    
   214  107  109 am   BACKBONE|DICT|INTERRES
   215  109  110 1    
   216  109  230 1    
   217  110  111 1    
   218  110  112 1    
   219  110  231 1    
   220  111  232 1    
   221  111  233 1    
   222  111  234 1    
   223  112  113 2    
   224  112  114 am   BACKBONE|DICT|INTERRES
   225  114  115 1    
   226  114  235 1    
   227  115  116 1    
   228  115  117 1    
   229  115  236 1    
   230  116  237 1    
   231  116  238 1    
   232  116  239 1    
   233  117  118 2    
   234  117  119 am   BACKBONE|DICT|INTERRES
   235  119  120 1    
   236  119  240 1    
   237  120  121 1    
   238  120  124 1    
   239  120  241 1    
   240  121  122 am   BACKBONE|DICT|INTERRES
   241  121  123 2    
   242  122  242 1    
   243  122  243 1    
   244  124  125 1    
   245  124  244 1    
   246  124  245 1    
   247  125  126 1    
   248  126  246 1    
   249  126  247 1    
@<TRIPOS>SUBSTRUCTURE
     1 UNK         1 GROUP             0       ****    0 ROOT    
