@<TRIPOS>MOLECULE
3R540
247   249    1
SMALL
USER_CHARGES


@<TRIPOS>ATOM
      1 CA         -7.9243  -16.7769  -49.3672 C.3       0 UNK        -0.1800 
      2 C          -7.3955  -15.3996  -48.9901 C.2       0 UNK         0.5000 
      3 O          -7.9240  -14.7678  -48.0746 O.2       0 UNK        -0.5000 
      4 N          -6.3613  -14.9313  -49.6972 N.am      1 UNK        -0.5000 
      5 CA         -5.6377  -13.6859  -49.4236 C.3       1 UNK         0.1400 
      6 C6         -4.7723  -13.2402  -50.6351 C.3       23 UNK        -0.0398 
      7 S7         -3.7497  -14.5659  -51.3726 S.3       23 UNK        -0.2404 
      8 C8         -2.1132  -14.1996  -50.6722 C.3       23 UNK        -0.0205 
      9 C9         -1.2611  -15.4548  -50.6194 C.ar      23 UNK        -0.0193 
     10 C10        -0.3613  -15.7550  -51.6450 C.ar      23 UNK        -0.1150 
     11 C11         0.4040  -16.9296  -51.6037 C.ar      23 UNK        -0.0193 
     12 C12         0.2604  -17.7935  -50.5110 C.ar      23 UNK        -0.1150 
     13 C13        -0.6334  -17.4985  -49.4785 C.ar      23 UNK        -0.0193 
     14 C14        -1.3903  -16.3284  -49.5400 C.ar      23 UNK        -0.1150 
     15 C15        -0.7960  -18.4337  -48.2937 C.3       23 UNK        -0.0205 
     16 S16        -2.3631  -19.3486  -48.3932 S.3       23 UNK        -0.2404 
     17 C17        -2.5485  -19.9279  -46.6758 C.3       23 UNK        -0.0398 
     18 CA         -2.2141  -21.4344  -46.5256 C.3       11 UNK         0.1400 
     19 N          -0.8480  -21.6738  -46.0488 N.am      11 UNK        -0.5000 
     20 C          -0.2744  -22.8840  -45.9696 C.2       10 UNK         0.5000 
     21 O          -0.8083  -23.9195  -46.3634 O.2       10 UNK        -0.5000 
     22 CA          1.0910  -22.9674  -45.2658 C.3       10 UNK         0.1400 
     23 CB          2.2290  -22.5465  -46.2076 C.3       10 UNK        -0.1800 
     24 N           1.1273  -22.1690  -44.0401 N.am      10 UNK        -0.5000 
     25 C           0.3593  -22.3987  -42.9648 C.2       9 UNK         0.5000 
     26 O          -0.4070  -23.3569  -42.8660 O.2       9 UNK        -0.5000 
     27 CA          0.4129  -21.3570  -41.8330 C.3       9 UNK         0.1400 
     28 CB          1.6015  -21.6177  -40.8961 C.3       9 UNK        -0.1800 
     29 N           0.4694  -19.9859  -42.3431 N.am      9 UNK        -0.5000 
     30 C          -0.5387  -19.3760  -42.9838 C.2       8 UNK         0.5000 
     31 O          -1.6366  -19.8953  -43.1816 O.2       8 UNK        -0.5000 
     32 CA         -0.2571  -17.9678  -43.5404 C.3       8 UNK         0.1400 
     33 CB         -0.4955  -16.9028  -42.4612 C.3       8 UNK        -0.1800 
     34 N           1.0985  -17.8281  -44.0751 N.am      8 UNK        -0.5000 
     35 C           1.5803  -18.5343  -45.1072 C.2       7 UNK         0.5000 
     36 O           0.9094  -19.3454  -45.7447 O.2       7 UNK        -0.5000 
     37 CA          3.0749  -18.3607  -45.4301 C.3       7 UNK         0.1400 
     38 CB          3.3339  -17.0588  -46.2014 C.3       7 UNK        -0.1800 
     39 N           3.9068  -18.3977  -44.2255 N.am      7 UNK        -0.5000 
     40 C           4.0602  -19.4703  -43.4381 C.2       6 UNK         0.5000 
     41 O           3.5397  -20.5590  -43.6779 O.2       6 UNK        -0.5000 
     42 CA          4.8749  -19.3030  -42.1393 C.3       6 UNK         0.1400 
     43 CB          6.3864  -19.4591  -42.3937 C.3       6 UNK        -0.1800 
     44 N           4.5535  -18.0759  -41.3959 N.am      6 UNK        -0.5000 
     45 C           4.8308  -16.8073  -41.7231 C.2       5 UNK         0.5000 
     46 O           5.5162  -16.4777  -42.6944 O.2       5 UNK        -0.5000 
     47 CA          4.1935  -15.7246  -40.8282 C.3       5 UNK         0.1400 
     48 CB          5.1597  -15.3186  -39.7053 C.3       5 UNK        -0.1800 
     49 N           3.8050  -14.5273  -41.5791 N.am      5 UNK        -0.5000 
     50 C           2.9994  -14.5109  -42.6503 C.2       4 UNK         0.5000 
     51 O           2.4271  -15.5144  -43.0851 O.2       4 UNK        -0.5000 
     52 CA          2.8431  -13.1488  -43.3589 C.3       4 UNK         0.1400 
     53 CB          4.2033  -12.6237  -43.8530 C.3       4 UNK        -0.1800 
     54 N           1.9448  -13.2244  -44.5105 N.am      4 UNK        -0.5000 
     55 C           0.6102  -13.2818  -44.4524 C.2       3 UNK         0.5000 
     56 O          -0.0448  -13.1973  -43.4096 O.2       3 UNK        -0.5000 
     57 CA         -0.1003  -13.4671  -45.8005 C.3       3 UNK         0.1400 
     58 CB          0.1046  -14.8900  -46.3488 C.3       3 UNK        -0.1800 
     59 N          -1.5302  -13.2147  -45.6545 N.am      3 UNK        -0.5000 
     60 C          -2.3032  -12.6434  -46.5816 C.2       2 UNK         0.5000 
     61 O          -1.8806  -12.2047  -47.6543 O.2       2 UNK        -0.5000 
     62 CA         -3.8004  -12.5179  -46.2438 C.3       2 UNK         0.1400 
     63 CB         -4.0918  -11.1654  -45.5753 C.3       2 UNK        -0.1800 
     64 N          -4.6324  -12.6466  -47.4417 N.am      2 UNK        -0.5000 
     65 C          -4.8088  -13.7870  -48.1226 C.2       1 UNK         0.5000 
     66 O          -4.3427  -14.8723  -47.7654 O.2       1 UNK        -0.5000 
     67 C          -3.2648  -22.1521  -45.6570 C.2       11 UNK         0.5000 
     68 O          -4.1578  -22.7863  -46.2151 O.2       11 UNK        -0.5000 
     69 N          -3.1384  -22.0752  -44.3252 N.am      12 UNK        -0.5000 
     70 CA         -4.0267  -22.7558  -43.3796 C.3       12 UNK         0.1400 
     71 CB         -3.6930  -22.3250  -41.9436 C.3       12 UNK        -0.1800 
     72 C          -3.9892  -24.2894  -43.5220 C.2       12 UNK         0.5000 
     73 O          -5.0459  -24.9215  -43.5358 O.2       12 UNK        -0.5000 
     74 N          -2.7819  -24.8510  -43.6748 N.am      13 UNK        -0.5000 
     75 CA         -2.5499  -26.2764  -43.9147 C.3       13 UNK         0.1400 
     76 CB         -1.0482  -26.5744  -43.7875 C.3       13 UNK        -0.1800 
     77 C          -3.0861  -26.7539  -45.2785 C.2       13 UNK         0.5000 
     78 O          -3.6554  -27.8427  -45.3610 O.2       13 UNK        -0.5000 
     79 N          -2.9101  -25.9266  -46.3170 N.am      14 UNK        -0.5000 
     80 CA         -3.3546  -26.1898  -47.6872 C.3       14 UNK         0.1400 
     81 CB         -2.5159  -25.3291  -48.6459 C.3       14 UNK        -0.1800 
     82 C          -4.8562  -25.9305  -47.9219 C.2       14 UNK         0.5000 
     83 O          -5.3438  -26.2310  -49.0108 O.2       14 UNK        -0.5000 
     84 N          -5.5521  -25.3427  -46.9373 N.am      15 UNK        -0.5000 
     85 CA         -6.9390  -24.8642  -47.0004 C.3       15 UNK         0.1400 
     86 CB         -7.9279  -26.0395  -47.1467 C.3       15 UNK        -0.1800 
     87 C          -7.1192  -23.7705  -48.0767 C.2       15 UNK         0.5000 
     88 O          -8.0417  -23.8315  -48.8905 O.2       15 UNK        -0.5000 
     89 N          -6.1878  -22.8072  -48.0632 N.am      16 UNK        -0.5000 
     90 CA         -6.0304  -21.6453  -48.9438 C.3       16 UNK         0.1400 
     91 CB         -7.2898  -20.7560  -48.9443 C.3       16 UNK        -0.1800 
     92 C          -5.5520  -21.9714  -50.3727 C.2       16 UNK         0.5000 
     93 O          -5.3356  -21.0412  -51.1488 O.2       16 UNK        -0.5000 
     94 N          -5.3402  -23.2545  -50.7051 N.am      17 UNK        -0.5000 
     95 CA         -4.8973  -23.6990  -52.0326 C.3       17 UNK         0.1400 
     96 CB         -5.0107  -25.2265  -52.1319 C.3       17 UNK        -0.1800 
     97 C          -3.4749  -23.2345  -52.4045 C.2       17 UNK         0.5000 
     98 O          -3.1690  -23.1192  -53.5912 O.2       17 UNK        -0.5000 
     99 N          -2.6452  -22.9317  -51.3945 N.am      18 UNK        -0.5000 
    100 CA        -1.2956  -22.3828  -51.5534 C.3       18 UNK         0.1400 
    101 CB        -0.5751  -22.3893  -50.1965 C.3       18 UNK        -0.1800 
    102 C         -1.2677  -20.9729  -52.1787 C.2       18 UNK         0.5000 
    103 O         -0.2391  -20.5898  -52.7357 O.2       18 UNK        -0.5000 
    104 N         -2.3942  -20.2435  -52.1268 N.am      19 UNK        -0.5000 
    105 CA        -2.5648  -18.9307  -52.7537 C.3       19 UNK         0.1400 
    106 CB        -3.9096  -18.3266  -52.3275 C.3       19 UNK        -0.1800 
    107 C         -2.4429  -18.9623  -54.2895 C.2       19 UNK         0.5000 
    108 O         -2.0517  -17.9581  -54.8847 O.2       19 UNK        -0.5000 
    109 N         -2.7337  -20.1201  -54.9042 N.am      20 UNK        -0.5000 
    110 CA        -2.6287  -20.3550  -56.3461 C.3       20 UNK         0.1400 
    111 CB        -3.2128  -21.7354  -56.6789 C.3       20 UNK        -0.1800 
    112 C         -1.1918  -20.2333  -56.8903 C.2       20 UNK         0.5000 
    113 O         -1.0191  -19.8690  -58.0542 O.2       20 UNK        -0.5000 
    114 N         -0.1855  -20.4847  -56.0381 N.am      21 UNK        -0.5000 
    115 CA         1.2377  -20.3287  -56.3573 C.3       21 UNK         0.1400 
    116 CB         2.0765  -20.9308  -55.2198 C.3       21 UNK        -0.1800 
    117 C          1.6524  -18.8647  -56.6138 C.2       21 UNK         0.5000 
    118 O          2.6630  -18.6289  -57.2769 O.2       21 UNK        -0.5000 
    119 N          0.8578  -17.9193  -56.1001 N.am      22 UNK        -0.5000 
    120 CA         0.9959  -16.4725  -56.3073 C.3       22 UNK         0.1400 
    121 C          0.1160  -15.9409  -57.4791 C.2       22 UNK         0.5000 
    122 N         -0.5943  -16.7787  -58.2277 N.am      22 UNK        -0.7600 
    123 O          0.0923  -14.7399  -57.7341 O.2       22 UNK        -0.5000 
    124 C124        0.7289  -15.7026  -54.9876 C.3       23 UNK        -0.0398 
    125 S125        2.0362  -15.9844  -53.7402 S.3       23 UNK        -0.2404 
    126 C126        1.3441  -17.3449  -52.7357 C.3       23 UNK        -0.0205 
    127 H127       -7.3511  -17.2223  -50.1810 H         1 UNK         0.0600 
    128 H128       -8.9653  -16.7071  -49.6823 H         1 UNK         0.0600 
    129 H129       -7.8706  -17.4466  -48.5089 H         1 UNK         0.0600 
    130 H130       -5.9452  -15.5094  -50.4135 H         1 UNK         0.3000 
    131 H131       -6.3889  -12.9094  -49.2621 H         1 UNK         0.0600 
    132 H132       -4.1455  -12.3834  -50.3805 H         1 UNK         0.0800 
    133 H133       -5.4360  -12.8819  -51.4230 H         1 UNK         0.0800 
    134 H134       -2.2217  -13.8026  -49.6637 H         1 UNK         0.0800 
    135 H135       -1.6261  -13.4220  -51.2622 H         1 UNK         0.0800 
    136 H136       -0.2806  -15.0731  -52.4770 H         1 UNK         0.1150 
    137 H137        0.8307  -18.7113  -50.4753 H         1 UNK         0.1150 
    138 H138       -2.0950  -16.1045  -48.7507 H         1 UNK         0.1150 
    139 H139        0.0302  -19.1441  -48.2431 H         1 UNK         0.0800 
    140 H140       -0.7633  -17.8452  -47.3758 H         1 UNK         0.0800 
    141 H141       -3.5843  -19.7116  -46.4059 H         1 UNK         0.0800 
    142 H142       -1.9477  -19.3219  -45.9977 H         1 UNK         0.0800 
    143 H143       -2.2885  -21.9082  -47.5057 H         1 UNK         0.0600 
    144 H144       -0.3137  -20.8635  -45.7481 H         1 UNK         0.3000 
    145 H145        1.2556  -24.0098  -44.9856 H         1 UNK         0.0600 
    146 H146        3.1996  -22.6479  -45.7219 H         1 UNK         0.0600 
    147 H147        2.2441  -23.1717  -47.1011 H         1 UNK         0.0600 
    148 H148        2.1268  -21.5126  -46.5354 H         1 UNK         0.0600 
    149 H149        1.7795  -21.3914  -44.0222 H         1 UNK         0.3000 
    150 H150       -0.5026  -21.4571  -41.2462 H         1 UNK         0.0600 
    151 H151        1.5284  -22.6090  -40.4472 H         1 UNK         0.0600 
    152 H152        1.6301  -20.8940  -40.0814 H         1 UNK         0.0600 
    153 H153        2.5537  -21.5708  -41.4232 H         1 UNK         0.0600 
    154 H154        1.3481  -19.4991  -42.2585 H         1 UNK         0.3000 
    155 H155       -0.9589  -17.7868  -44.3565 H         1 UNK         0.0600 
    156 H156        0.2163  -16.9944  -41.6399 H         1 UNK         0.0600 
    157 H157       -1.4988  -16.9864  -42.0414 H         1 UNK         0.0600 
    158 H158       -0.3997  -15.8989  -42.8740 H         1 UNK         0.0600 
    159 H159        1.6917  -17.1251  -43.6380 H         1 UNK         0.3000 
    160 H160        3.3712  -19.1951  -46.0693 H         1 UNK         0.0600 
    161 H161        3.1209  -16.1794  -45.5940 H         1 UNK         0.0600 
    162 H162        2.7119  -17.0047  -47.0959 H         1 UNK         0.0600 
    163 H163        4.3731  -16.9951  -46.5242 H         1 UNK         0.0600 
    164 H164        4.3619  -17.5351  -43.9447 H         1 UNK         0.3000 
    165 H165        4.5792  -20.1217  -41.4817 H         1 UNK         0.0600 
    166 H166        6.7646  -18.7225  -43.1027 H         1 UNK         0.0600 
    167 H167        6.9547  -19.3593  -41.4690 H         1 UNK         0.0600 
    168 H168        6.6070  -20.4442  -42.8064 H         1 UNK         0.0600 
    169 H169        3.9826  -18.2262  -40.5756 H         1 UNK         0.3000 
    170 H170        3.2865  -16.1339  -40.3786 H         1 UNK         0.0600 
    171 H171        6.0729  -14.8739  -40.1031 H         1 UNK         0.0600 
    172 H172        4.7005  -14.5967  -39.0296 H         1 UNK         0.0600 
    173 H173        5.4500  -16.1829  -39.1063 H         1 UNK         0.0600 
    174 H174        4.2549  -13.6679  -41.3014 H         1 UNK         0.3000 
    175 H175        2.4321  -12.4388  -42.6383 H         1 UNK         0.0600 
    176 H176        4.6828  -13.3299  -44.5324 H         1 UNK         0.0600 
    177 H177        4.0923  -11.6754  -44.3794 H         1 UNK         0.0600 
    178 H178        4.8905  -12.4480  -43.0249 H         1 UNK         0.0600 
    179 H179        2.3932  -13.3321  -45.4080 H         1 UNK         0.3000 
    180 H180        0.3338  -12.7478  -46.4986 H         1 UNK         0.0600 
    181 H181       -0.3967  -15.0129  -47.3071 H         1 UNK         0.0600 
    182 H182       -0.2848  -15.6457  -45.6662 H         1 UNK         0.0600 
    183 H183        1.1601  -15.1023  -46.5120 H         1 UNK         0.0600 
    184 H184       -1.9137  -13.4660  -44.7527 H         1 UNK         0.3000 
    185 H185       -4.0730  -13.3155  -45.5491 H         1 UNK         0.0600 
    186 H186       -5.1431  -11.0790  -45.3000 H         1 UNK         0.0600 
    187 H187       -3.5071  -11.0469  -44.6621 H         1 UNK         0.0600 
    188 H188       -3.8460  -10.3301  -46.2325 H         1 UNK         0.0600 
    189 H189       -5.0204  -11.7888  -47.8060 H         1 UNK         0.3000 
    190 H190       -2.4143  -21.4829  -43.9282 H         1 UNK         0.3000 
    191 H191       -5.0462  -22.4308  -43.5976 H         1 UNK         0.0600 
    192 H192       -4.3792  -22.7834  -41.2305 H         1 UNK         0.0600 
    193 H193       -3.7762  -21.2443  -41.8266 H         1 UNK         0.0600 
    194 H194       -2.6826  -22.6156  -41.6577 H         1 UNK         0.0600 
    195 H195       -1.9576  -24.2600  -43.6064 H         1 UNK         0.3000 
    196 H196       -3.0739  -26.8365  -43.1375 H         1 UNK         0.0600 
    197 H197       -0.4640  -26.0182  -44.5215 H         1 UNK         0.0600 
    198 H198       -0.6770  -26.3099  -42.7972 H         1 UNK         0.0600 
    199 H199       -0.8450  -27.6351  -43.9396 H         1 UNK         0.0600 
    200 H200       -2.3719  -25.0759  -46.1769 H         1 UNK         0.3000 
    201 H201       -3.1657  -27.2396  -47.9203 H         1 UNK         0.0600 
    202 H202       -2.7630  -25.5376  -49.6865 H         1 UNK         0.0600 
    203 H203       -2.6789  -24.2650  -48.4720 H         1 UNK         0.0600 
    204 H204       -1.4513  -25.5293  -48.5249 H         1 UNK         0.0600 
    205 H205       -5.0437  -25.0936  -46.0989 H         1 UNK         0.3000 
    206 H206       -7.1388  -24.3849  -46.0409 H         1 UNK         0.0600 
    207 H207       -7.7742  -26.7821  -46.3638 H         1 UNK         0.0600 
    208 H208       -8.9585  -25.6919  -47.0668 H         1 UNK         0.0600 
    209 H209       -7.8280  -26.5414  -48.1094 H         1 UNK         0.0600 
    210 H210       -5.4615  -22.8854  -47.3497 H         1 UNK         0.3000 
    211 H211       -5.2258  -21.0584  -48.4983 H         1 UNK         0.0600 
    212 H212       -7.1049  -19.8211  -49.4745 H         1 UNK         0.0600 
    213 H213       -7.5915  -20.4974  -47.9294 H         1 UNK         0.0600 
    214 H214       -8.1331  -21.2428  -49.4341 H         1 UNK         0.0600 
    215 H215       -5.5519  -23.9759  -50.0290 H         1 UNK         0.3000 
    216 H216       -5.5791  -23.2651  -52.7671 H         1 UNK         0.0600 
    217 H217       -4.3177  -25.7286  -51.4577 H         1 UNK         0.0600 
    218 H218       -4.7853  -25.5681  -53.1430 H         1 UNK         0.0600 
    219 H219       -6.0185  -25.5659  -51.8914 H         1 UNK         0.0600 
    220 H220       -2.9850  -23.0412  -50.4519 H         1 UNK         0.3000 
    221 H221       -0.7478  -23.0433  -52.2287 H         1 UNK         0.0600 
    222 H222       -0.5207  -23.3939  -49.7775 H         1 UNK         0.0600 
    223 H223       -1.0756  -21.7484  -49.4737 H         1 UNK         0.0600 
    224 H224        0.4483  -22.0256  -50.2968 H         1 UNK         0.0600 
    225 H225       -3.2103  -20.6280  -51.6669 H         1 UNK         0.3000 
    226 H226       -1.7767  -18.2805  -52.3810 H         1 UNK         0.0600 
    227 H227       -4.7502  -18.9259  -52.6780 H         1 UNK         0.0600 
    228 H228       -3.9790  -18.2448  -51.2423 H         1 UNK         0.0600 
    229 H229       -4.0303  -17.3232  -52.7369 H         1 UNK         0.0600 
    230 H230       -3.0143  -20.9114  -54.3389 H         1 UNK         0.3000 
    231 H231       -3.2341  -19.5977  -56.8483 H         1 UNK         0.0600 
    232 H232       -3.2117  -21.9105  -57.7555 H         1 UNK         0.0600 
    233 H233       -4.2441  -21.8227  -56.3363 H         1 UNK         0.0600 
    234 H234       -2.6363  -22.5373  -56.2162 H         1 UNK         0.0600 
    235 H235       -0.4074  -20.7390  -55.0840 H         1 UNK         0.3000 
    236 H236        1.4408  -20.8935  -57.2694 H         1 UNK         0.0600 
    237 H237        3.1389  -20.9084  -55.4657 H         1 UNK         0.0600 
    238 H238        1.9460  -20.3784  -54.2887 H         1 UNK         0.0600 
    239 H239        1.8073  -21.9708  -55.0349 H         1 UNK         0.0600 
    240 H240        0.0207  -18.2044  -55.6075 H         1 UNK         0.3000 
    241 H241        2.0221  -16.2544  -56.6082 H         1 UNK         0.0600 
    242 H242       -1.1481  -16.4107  -58.9849 H         1 UNK         0.3800 
    243 H243       -0.5805  -17.7766  -58.0606 H         1 UNK         0.3800 
    244 H244       -0.2479  -15.9692  -54.5827 H         1 UNK         0.0800 
    245 H245        0.6977  -14.6267  -55.1665 H         1 UNK         0.0800 
    246 H246        0.8210  -18.0524  -53.3786 H         1 UNK         0.0800 
    247 H247        2.1879  -17.8920  -52.3127 H         1 UNK         0.0800 
@<TRIPOS>BOND
     1    1    2 1    
     2    1  127 1    
     3    1  128 1    
     4    1  129 1    
     5    2    3 2    
     6    2    4 am   BACKBONE|DICT|INTERRES
     7    4    5 1    
     8    4  130 1    
     9    5    6 1    
    10    5   65 1    
    11    5  131 1    
    12    6    7 1    
    13    6  132 1    
    14    6  133 1    
    15    7    8 1    
    16    8    9 1    
    17    8  134 1    
    18    8  135 1    
    19    9   10 ar   
    20    9   14 ar   
    21   10   11 ar   
    22   10  136 1    
    23   11   12 ar   
    24   11  126 1    
    25   12   13 ar   
    26   12  137 1    
    27   13   14 ar   
    28   13   15 1    
    29   14  138 1    
    30   15   16 1    
    31   15  139 1    
    32   15  140 1    
    33   16   17 1    
    34   17   18 1    
    35   17  141 1    
    36   17  142 1    
    37   18   19 1    
    38   18   67 1    
    39   18  143 1    
    40   19   20 am   BACKBONE|DICT|INTERRES
    41   19  144 1    
    42   20   21 2    
    43   20   22 1    
    44   22   23 1    
    45   22   24 1    
    46   22  145 1    
    47   23  146 1    
    48   23  147 1    
    49   23  148 1    
    50   24   25 am   BACKBONE|DICT|INTERRES
    51   24  149 1    
    52   25   26 2    
    53   25   27 1    
    54   27   28 1    
    55   27   29 1    
    56   27  150 1    
    57   28  151 1    
    58   28  152 1    
    59   28  153 1    
    60   29   30 am   BACKBONE|DICT|INTERRES
    61   29  154 1    
    62   30   31 2    
    63   30   32 1    
    64   32   33 1    
    65   32   34 1    
    66   32  155 1    
    67   33  156 1    
    68   33  157 1    
    69   33  158 1    
    70   34   35 am   BACKBONE|DICT|INTERRES
    71   34  159 1    
    72   35   36 2    
    73   35   37 1    
    74   37   38 1    
    75   37   39 1    
    76   37  160 1    
    77   38  161 1    
    78   38  162 1    
    79   38  163 1    
    80   39   40 am   BACKBONE|DICT|INTERRES
    81   39  164 1    
    82   40   41 2    
    83   40   42 1    
    84   42   43 1    
    85   42   44 1    
    86   42  165 1    
    87   43  166 1    
    88   43  167 1    
    89   43  168 1    
    90   44   45 am   BACKBONE|DICT|INTERRES
    91   44  169 1    
    92   45   46 2    
    93   45   47 1    
    94   47   48 1    
    95   47   49 1    
    96   47  170 1    
    97   48  171 1    
    98   48  172 1    
    99   48  173 1    
   100   49   50 am   BACKBONE|DICT|INTERRES
   101   49  174 1    
   102   50   51 2    
   103   50   52 1    
   104   52   53 1    
   105   52   54 1    
   106   52  175 1    
   107   53  176 1    
   108   53  177 1    
   109   53  178 1    
   110   54   55 am   BACKBONE|DICT|INTERRES
   111   54  179 1    
   112   55   56 2    
   113   55   57 1    
   114   57   58 1    
   115   57   59 1    
   116   57  180 1    
   117   58  181 1    
   118   58  182 1    
   119   58  183 1    
   120   59   60 am   BACKBONE|DICT|INTERRES
   121   59  184 1    
   122   60   61 2    
   123   60   62 1    
   124   62   63 1    
   125   62   64 1    
   126   62  185 1    
   127   63  186 1    
   128   63  187 1    
   129   63  188 1    
   130   64   65 am   BACKBONE|DICT|INTERRES
   131   64  189 1    
   132   65   66 2    
   133   67   68 2    
   134   67   69 am   BACKBONE|DICT|INTERRES
   135   69   70 1    
   136   69  190 1    
   137   70   71 1    
   138   70   72 1    
   139   70  191 1    
   140   71  192 1    
   141   71  193 1    
   142   71  194 1    
   143   72   73 2    
   144   72   74 am   BACKBONE|DICT|INTERRES
   145   74   75 1    
   146   74  195 1    
   147   75   76 1    
   148   75   77 1    
   149   75  196 1    
   150   76  197 1    
   151   76  198 1    
   152   76  199 1    
   153   77   78 2    
   154   77   79 am   BACKBONE|DICT|INTERRES
   155   79   80 1    
   156   79  200 1    
   157   80   81 1    
   158   80   82 1    
   159   80  201 1    
   160   81  202 1    
   161   81  203 1    
   162   81  204 1    
   163   82   83 2    
   164   82   84 am   BACKBONE|DICT|INTERRES
   165   84   85 1    
   166   84  205 1    
   167   85   86 1    
   168   85   87 1    
   169   85  206 1    
   170   86  207 1    
   171   86  208 1    
   172   86  209 1    
   173   87   88 2    
   174   87   89 am   BACKBONE|DICT|INTERRES
   175   89   90 1    
   176   89  210 1    
   177   90   91 1    
   178   90   92 1    
   179   90  211 1    
   180   91  212 1    
   181   91  213 1    
   182   91  214 1    
   183   92   93 2    
   184   92   94 am   BACKBONE|DICT|INTERRES
   185   94   95 1    
   186   94  215 1    
   187   95   96 1    
   188   95   97 1    
   189   95  216 1    
   190   96  217 1    
   191   96  218 1    
   192   96  219 1    
   193   97   98 2    
   194   97   99 am   BACKBONE|DICT|INTERRES
   195   99  100 1    
   196   99  220 1    
   197  100  101 1    
   198  100  102 1    
   199  100  221 1    
   200  101  222 1    
   201  101  223 1    
   202  101  224 1    
   203  102  103 2    
   204  102  104 am   BACKBONE|DICT|INTERRES
   205  104  105 1    
   206  104  225 1    
   207  105  106 1    
   208  105  107 1    
   209  105  226 1    
   210  106  227 1    
   211  106  228 1    
   212  106  229 1    
   213  107  108 2    
   214  107  109 am   BACKBONE|DICT|INTERRES
   215  109  110 1    
   216  109  230 1    
   217  110  111 1    
   218  110  112 1    
   219  110  231 1    
   220  111  232 1    
   221  111  233 1    
   222  111  234 1    
   223  112  113 2    
   224  112  114 am   BACKBONE|DICT|INTERRES
   225  114  115 1    
   226  114  235 1    
   227  115  116 1    
   228  115  117 1    
   229  115  236 1    
   230  116  237 1    
   231  116  238 1    
   232  116  239 1    
   233  117  118 2    
   234  117  119 am   BACKBONE|DICT|INTERRES
   235  119  120 1    
   236  119  240 1    
   237  120  121 1    
   238  120  124 1    
   239  120  241 1    
   240  121  122 am   BACKBONE|DICT|INTERRES
   241  121  123 2    
   242  122  242 1    
   243  122  243 1    
   244  124  125 1    
   245  124  244 1    
   246  124  245 1    
   247  125  126 1    
   248  126  246 1    
   249  126  247 1    
@<TRIPOS>SUBSTRUCTURE
     1 UNK         1 GROUP             0       ****    0 ROOT    
