@<TRIPOS>MOLECULE
3R540
247   249    1
SMALL
USER_CHARGES


@<TRIPOS>ATOM
      1 CA          2.5926  -15.5024  -48.8737 C.3       0 UNK        -0.1800 
      2 C           1.5405  -14.6585  -48.1702 C.2       0 UNK         0.5000 
      3 O           1.6065  -14.4831  -46.9531 O.2       0 UNK        -0.5000 
      4 N           0.5594  -14.1409  -48.9223 N.am      1 UNK        -0.5000 
      5 CA         -0.5059  -13.2839  -48.3942 C.3       1 UNK         0.1400 
      6 C6         -1.6990  -13.1445  -49.3784 C.3       23 UNK        -0.0398 
      7 S7         -3.3405  -13.0509  -48.5708 S.3       23 UNK        -0.2404 
      8 C8         -3.4855  -14.5626  -47.5460 C.3       23 UNK        -0.0205 
      9 C9         -3.6592  -15.8525  -48.3419 C.ar      23 UNK        -0.0193 
     10 C10        -2.5953  -16.3994  -49.0664 C.ar      23 UNK        -0.1150 
     11 C11        -2.7439  -17.6017  -49.7613 C.ar      23 UNK        -0.0193 
     12 C12        -3.9734  -18.2621  -49.7265 C.ar      23 UNK        -0.1150 
     13 C13        -5.0224  -17.7727  -48.9448 C.ar      23 UNK        -0.0193 
     14 C14        -4.8679  -16.5535  -48.2783 C.ar      23 UNK        -0.1150 
     15 C15        -6.3032  -18.5820  -48.7765 C.3       23 UNK        -0.0205 
     16 S16        -6.0093  -20.2781  -48.1527 S.3       23 UNK        -0.2404 
     17 C17        -4.9254  -20.0226  -46.6997 C.3       23 UNK        -0.0398 
     18 CA         -3.4437  -20.3585  -47.0165 C.3       11 UNK         0.1400 
     19 N          -2.5028  -19.4810  -46.3089 N.am      11 UNK        -0.5000 
     20 C          -1.2231  -19.2950  -46.6565 C.2       10 UNK         0.5000 
     21 O          -0.6875  -19.8944  -47.5879 O.2       10 UNK        -0.5000 
     22 CA         -0.3843  -18.3253  -45.8073 C.3       10 UNK         0.1400 
     23 CB         -0.7241  -16.8611  -46.1254 C.3       10 UNK        -0.1800 
     24 N          -0.4293  -18.5813  -44.3643 N.am      10 UNK        -0.5000 
     25 C          -1.4521  -18.4577  -43.5054 C.2       9 UNK         0.5000 
     26 O          -2.5920  -18.1366  -43.8434 O.2       9 UNK        -0.5000 
     27 CA         -1.1526  -18.7005  -42.0117 C.3       9 UNK         0.1400 
     28 CB         -2.1306  -19.7122  -41.3789 C.3       9 UNK        -0.1800 
     29 N           0.2535  -19.0291  -41.7368 N.am      9 UNK        -0.5000 
     30 C           0.8929  -20.1881  -41.9416 C.2       8 UNK         0.5000 
     31 O           0.3544  -21.2085  -42.3702 O.2       8 UNK        -0.5000 
     32 CA          2.4092  -20.1577  -41.6670 C.3       8 UNK         0.1400 
     33 CB          3.0725  -21.5446  -41.7992 C.3       8 UNK        -0.1800 
     34 N           3.1099  -19.1727  -42.5011 N.am      8 UNK        -0.5000 
     35 C           3.1640  -19.1231  -43.8414 C.2       7 UNK         0.5000 
     36 O           2.5341  -19.8850  -44.5748 O.2       7 UNK        -0.5000 
     37 CA          4.0584  -18.0412  -44.4863 C.3       7 UNK         0.1400 
     38 CB          3.2969  -17.2445  -45.5589 C.3       7 UNK        -0.1800 
     39 N           4.6430  -17.0979  -43.5312 N.am      7 UNK        -0.5000 
     40 C           5.7355  -17.3176  -42.7870 C.2       6 UNK         0.5000 
     41 O           6.3549  -18.3813  -42.7790 O.2       6 UNK        -0.5000 
     42 CA          6.1993  -16.1596  -41.8881 C.3       6 UNK         0.1400 
     43 CB          7.0629  -15.1718  -42.6884 C.3       6 UNK        -0.1800 
     44 N           5.0579  -15.4443  -41.3180 N.am      6 UNK        -0.5000 
     45 C           4.5229  -15.6927  -40.1151 C.2       5 UNK         0.5000 
     46 O           4.9659  -16.5299  -39.3283 O.2       5 UNK        -0.5000 
     47 CA          3.2724  -14.8774  -39.7262 C.3       5 UNK         0.1400 
     48 CB          3.6771  -13.5834  -39.0041 C.3       5 UNK        -0.1800 
     49 N           2.4280  -14.5412  -40.8739 N.am      5 UNK        -0.5000 
     50 C           1.7301  -15.4354  -41.5858 C.2       4 UNK         0.5000 
     51 O           1.6619  -16.6305  -41.2980 O.2       4 UNK        -0.5000 
     52 CA          1.0112  -14.9293  -42.8508 C.3       4 UNK         0.1400 
     53 CB         -0.4750  -14.6697  -42.5660 C.3       4 UNK        -0.1800 
     54 N           1.5862  -13.7304  -43.4693 N.am      4 UNK        -0.5000 
     55 C           2.8439  -13.5812  -43.9125 C.2       3 UNK         0.5000 
     56 O           3.7295  -14.4165  -43.7258 O.2       3 UNK        -0.5000 
     57 CA          3.1533  -12.2850  -44.6861 C.3       3 UNK         0.1400 
     58 CB          4.2819  -12.4730  -45.7158 C.3       3 UNK        -0.1800 
     59 N           1.9483  -11.8086  -45.3666 N.am      3 UNK        -0.5000 
     60 C           1.4569  -10.5624  -45.3240 C.2       2 UNK         0.5000 
     61 O           2.0163   -9.6363  -44.7353 O.2       2 UNK        -0.5000 
     62 CA          0.0881  -10.3098  -46.0003 C.3       2 UNK         0.1400 
     63 CB          0.0615   -8.9995  -46.8152 C.3       2 UNK        -0.1800 
     64 N          -0.4137  -11.4528  -46.7773 N.am      2 UNK        -0.5000 
     65 C           0.0602  -11.9229  -47.9400 C.2       1 UNK         0.5000 
     66 O           0.9286  -11.3673  -48.6162 O.2       1 UNK        -0.5000 
     67 C          -3.1123  -21.8605  -46.8700 C.2       11 UNK         0.5000 
     68 O          -3.6171  -22.6717  -47.6467 O.2       11 UNK        -0.5000 
     69 N          -2.2085  -22.2055  -45.9416 N.am      12 UNK        -0.5000 
     70 CA         -1.5773  -23.5207  -45.8396 C.3       12 UNK         0.1400 
     71 CB         -0.7136  -23.5692  -44.5716 C.3       12 UNK        -0.1800 
     72 C          -0.7323  -23.8736  -47.0811 C.2       12 UNK         0.5000 
     73 O          -0.7265  -25.0339  -47.4914 O.2       12 UNK        -0.5000 
     74 N          -0.0828  -22.8699  -47.6947 N.am      13 UNK        -0.5000 
     75 CA          0.6884  -23.0219  -48.9342 C.3       13 UNK         0.1400 
     76 CB          1.5752  -21.7849  -49.1457 C.3       13 UNK        -0.1800 
     77 C          -0.2115  -23.2533  -50.1628 C.2       13 UNK         0.5000 
     78 O           0.2139  -23.9029  -51.1173 O.2       13 UNK        -0.5000 
     79 N          -1.4492  -22.7465  -50.0954 N.am      14 UNK        -0.5000 
     80 CA         -2.5035  -22.9629  -51.0838 C.3       14 UNK         0.1400 
     81 CB         -3.3963  -21.7145  -51.1270 C.3       14 UNK        -0.1800 
     82 C          -3.3511  -24.2148  -50.7889 C.2       14 UNK         0.5000 
     83 O          -4.3173  -24.4599  -51.5117 O.2       14 UNK        -0.5000 
     84 N          -3.0170  -24.9589  -49.7227 N.am      15 UNK        -0.5000 
     85 CA         -3.7116  -26.1487  -49.2227 C.3       15 UNK         0.1400 
     86 CB         -3.4856  -27.3380  -50.1787 C.3       15 UNK        -0.1800 
     87 C          -5.2012  -25.8809  -48.9164 C.2       15 UNK         0.5000 
     88 O          -6.0690  -26.6447  -49.3410 O.2       15 UNK        -0.5000 
     89 N          -5.4615  -24.7676  -48.2137 N.am      16 UNK        -0.5000 
     90 CA         -6.7812  -24.2261  -47.8692 C.3       16 UNK         0.1400 
     91 CB         -7.5542  -25.1803  -46.9345 C.3       16 UNK        -0.1800 
     92 C          -7.5811  -23.8051  -49.1200 C.2       16 UNK         0.5000 
     93 O          -8.7739  -24.0941  -49.2284 O.2       16 UNK        -0.5000 
     94 N          -6.8817  -23.1288  -50.0423 N.am      17 UNK        -0.5000 
     95 CA         -7.3613  -22.5823  -51.3162 C.3       17 UNK         0.1400 
     96 CB         -8.4669  -21.5287  -51.0973 C.3       17 UNK        -0.1800 
     97 C          -7.7490  -23.6493  -52.3611 C.2       17 UNK         0.5000 
     98 O          -8.4590  -23.3326  -53.3167 O.2       17 UNK        -0.5000 
     99 N          -7.2438  -24.8807  -52.2031 N.am      18 UNK        -0.5000 
    100 CA        -7.3266  -25.9367  -53.2149 C.3       18 UNK         0.1400 
    101 CB        -7.0044  -27.2912  -52.5689 C.3       18 UNK        -0.1800 
    102 C         -6.3832  -25.6559  -54.4010 C.2       18 UNK         0.5000 
    103 O         -6.7290  -25.9555  -55.5442 O.2       18 UNK        -0.5000 
    104 N         -5.2307  -25.0460  -54.1029 N.am      19 UNK        -0.5000 
    105 CA        -4.2576  -24.5160  -55.0470 C.3       19 UNK         0.1400 
    106 CB        -2.9148  -25.2396  -54.8397 C.3       19 UNK        -0.1800 
    107 C         -4.1629  -23.0033  -54.7949 C.2       19 UNK         0.5000 
    108 O         -3.1385  -22.5120  -54.3205 O.2       19 UNK        -0.5000 
    109 N         -5.2603  -22.2900  -55.0863 N.am      20 UNK        -0.5000 
    110 CA        -5.4919  -20.8661  -54.7973 C.3       20 UNK         0.1400 
    111 CB        -6.9110  -20.4993  -55.2589 C.3       20 UNK        -0.1800 
    112 C         -4.4605  -19.8689  -55.3734 C.2       20 UNK         0.5000 
    113 O         -4.4546  -18.7080  -54.9643 O.2       20 UNK        -0.5000 
    114 N         -3.5979  -20.3306  -56.2881 N.am      21 UNK        -0.5000 
    115 CA        -2.4236  -19.6111  -56.7844 C.3       21 UNK         0.1400 
    116 CB        -1.9129  -20.3249  -58.0462 C.3       21 UNK        -0.1800 
    117 C         -1.2887  -19.4770  -55.7421 C.2       21 UNK         0.5000 
    118 O         -0.3721  -18.6855  -55.9658 O.2       21 UNK        -0.5000 
    119 N         -1.3577  -20.2462  -54.6440 N.am      22 UNK        -0.5000 
    120 CA        -0.3979  -20.2786  -53.5231 C.3       22 UNK         0.1400 
    121 C          0.9439  -21.0030  -53.8486 C.2       22 UNK         0.5000 
    122 N          1.0413  -21.7596  -54.9352 N.am      22 UNK        -0.7600 
    123 O          1.9076  -20.9025  -53.0943 O.2       22 UNK        -0.5000 
    124 C124       -0.1736  -18.8973  -52.8366 C.3       23 UNK        -0.0398 
    125 S125       -1.7162  -18.0833  -52.2902 S.3       23 UNK        -0.2404 
    126 C126       -1.5596  -18.2244  -50.4852 C.3       23 UNK        -0.0205 
    127 H127        3.5898  -15.1326  -48.6350 H         1 UNK         0.0600 
    128 H128        2.5228  -16.5380  -48.5414 H         1 UNK         0.0600 
    129 H129        2.4709  -15.4819  -49.9569 H         1 UNK         0.0600 
    130 H130        0.5780  -14.2677  -49.9238 H         1 UNK         0.3000 
    131 H131       -0.8459  -13.7923  -47.4952 H         1 UNK         0.0600 
    132 H132       -1.5804  -12.2619  -50.0100 H         1 UNK         0.0800 
    133 H133       -1.7297  -13.9729  -50.0847 H         1 UNK         0.0800 
    134 H134       -4.3528  -14.4200  -46.8997 H         1 UNK         0.0800 
    135 H135       -2.6509  -14.6643  -46.8573 H         1 UNK         0.0800 
    136 H136       -1.6363  -15.9076  -49.0698 H         1 UNK         0.1150 
    137 H137       -4.0957  -19.1947  -50.2541 H         1 UNK         0.1150 
    138 H138       -5.6804  -16.1660  -47.6798 H         1 UNK         0.1150 
    139 H139       -6.8121  -18.6425  -49.7392 H         1 UNK         0.0800 
    140 H140       -6.9909  -18.0782  -48.0958 H         1 UNK         0.0800 
    141 H141       -5.0237  -18.9835  -46.3829 H         1 UNK         0.0800 
    142 H142       -5.2983  -20.6176  -45.8643 H         1 UNK         0.0800 
    143 H143       -3.2760  -20.1576  -48.0734 H         1 UNK         0.0600 
    144 H144       -2.8473  -18.9746  -45.4966 H         1 UNK         0.3000 
    145 H145        0.6536  -18.4859  -46.0986 H         1 UNK         0.0600 
    146 H146       -0.1121  -16.1726  -45.5453 H         1 UNK         0.0600 
    147 H147       -0.5335  -16.6476  -47.1756 H         1 UNK         0.0600 
    148 H148       -1.7703  -16.6342  -45.9226 H         1 UNK         0.0600 
    149 H149        0.4395  -18.9275  -43.9789 H         1 UNK         0.3000 
    150 H150       -1.3238  -17.7460  -41.5143 H         1 UNK         0.0600 
    151 H151       -3.1530  -19.3343  -41.4129 H         1 UNK         0.0600 
    152 H152       -1.8885  -19.8962  -40.3323 H         1 UNK         0.0600 
    153 H153       -2.1269  -20.6692  -41.9009 H         1 UNK         0.0600 
    154 H154        0.8183  -18.2329  -41.4411 H         1 UNK         0.3000 
    155 H155        2.5314  -19.8325  -40.6327 H         1 UNK         0.0600 
    156 H156        2.6119  -22.2627  -41.1198 H         1 UNK         0.0600 
    157 H157        4.1333  -21.4982  -41.5529 H         1 UNK         0.0600 
    158 H158        2.9807  -21.9459  -42.8091 H         1 UNK         0.0600 
    159 H159        3.6185  -18.4601  -41.9976 H         1 UNK         0.3000 
    160 H160        4.8731  -18.5684  -44.9866 H         1 UNK         0.0600 
    161 H161        2.4176  -16.7497  -45.1494 H         1 UNK         0.0600 
    162 H162        3.9287  -16.4762  -46.0056 H         1 UNK         0.0600 
    163 H163        2.9642  -17.8944  -46.3685 H         1 UNK         0.0600 
    164 H164        4.2294  -16.1686  -43.5140 H         1 UNK         0.3000 
    165 H165        6.8169  -16.5770  -41.0899 H         1 UNK         0.0600 
    166 H166        7.4321  -14.3678  -42.0517 H         1 UNK         0.0600 
    167 H167        7.9320  -15.6722  -43.1173 H         1 UNK         0.0600 
    168 H168        6.5060  -14.7189  -43.5098 H         1 UNK         0.0600 
    169 H169        4.5953  -14.7835  -41.9319 H         1 UNK         0.3000 
    170 H170        2.6828  -15.4842  -39.0355 H         1 UNK         0.0600 
    171 H171        4.2892  -13.8006  -38.1277 H         1 UNK         0.0600 
    172 H172        4.2547  -12.9236  -39.6527 H         1 UNK         0.0600 
    173 H173        2.8012  -13.0337  -38.6589 H         1 UNK         0.0600 
    174 H174        2.4259  -13.5784  -41.1761 H         1 UNK         0.3000 
    175 H175        1.0764  -15.7344  -43.5823 H         1 UNK         0.0600 
    176 H176       -0.6126  -13.8182  -41.8985 H         1 UNK         0.0600 
    177 H177       -1.0231  -14.4689  -43.4869 H         1 UNK         0.0600 
    178 H178       -0.9456  -15.5316  -42.0948 H         1 UNK         0.0600 
    179 H179        0.9427  -12.9735  -43.6447 H         1 UNK         0.3000 
    180 H180        3.4830  -11.5565  -43.9432 H         1 UNK         0.0600 
    181 H181        5.2121  -12.7710  -45.2305 H         1 UNK         0.0600 
    182 H182        4.0321  -13.2412  -46.4484 H         1 UNK         0.0600 
    183 H183        4.4800  -11.5470  -46.2557 H         1 UNK         0.0600 
    184 H184        1.4528  -12.5184  -45.8936 H         1 UNK         0.3000 
    185 H185       -0.6207  -10.1870  -45.1803 H         1 UNK         0.0600 
    186 H186        0.2335   -8.1374  -46.1699 H         1 UNK         0.0600 
    187 H187        0.8313   -8.9808  -47.5867 H         1 UNK         0.0600 
    188 H188       -0.9047   -8.8533  -47.2983 H         1 UNK         0.0600 
    189 H189       -1.1462  -11.9786  -46.3205 H         1 UNK         0.3000 
    190 H190       -1.8410  -21.4805  -45.3434 H         1 UNK         0.3000 
    191 H191       -2.3680  -24.2684  -45.7481 H         1 UNK         0.0600 
    192 H192       -0.2619  -24.5537  -44.4436 H         1 UNK         0.0600 
    193 H193       -1.3063  -23.3653  -43.6796 H         1 UNK         0.0600 
    194 H194        0.0963  -22.8392  -44.6084 H         1 UNK         0.0600 
    195 H195       -0.1727  -21.9249  -47.3389 H         1 UNK         0.3000 
    196 H196        1.3389  -23.8926  -48.8268 H         1 UNK         0.0600 
    197 H197        2.2357  -21.9243  -50.0026 H         1 UNK         0.0600 
    198 H198        2.2042  -21.5927  -48.2763 H         1 UNK         0.0600 
    199 H199        0.9835  -20.8897  -49.3385 H         1 UNK         0.0600 
    200 H200       -1.7149  -22.2495  -49.2577 H         1 UNK         0.3000 
    201 H201       -2.0527  -23.1023  -52.0671 H         1 UNK         0.0600 
    202 H202       -2.8198  -20.8298  -51.3882 H         1 UNK         0.0600 
    203 H203       -3.8859  -21.5366  -50.1698 H         1 UNK         0.0600 
    204 H204       -4.1750  -21.8139  -51.8815 H         1 UNK         0.0600 
    205 H205       -2.2178  -24.6676  -49.1762 H         1 UNK         0.3000 
    206 H206       -3.2473  -26.4007  -48.2683 H         1 UNK         0.0600 
    207 H207       -2.4226  -27.5503  -50.2920 H         1 UNK         0.0600 
    208 H208       -3.9579  -28.2448  -49.7993 H         1 UNK         0.0600 
    209 H209       -3.8917  -27.1445  -51.1710 H         1 UNK         0.0600 
    210 H210       -4.6783  -24.1655  -47.9661 H         1 UNK         0.3000 
    211 H211       -6.5922  -23.3086  -47.3099 H         1 UNK         0.0600 
    212 H212       -7.8417  -26.1031  -47.4389 H         1 UNK         0.0600 
    213 H213       -8.4687  -24.7107  -46.5709 H         1 UNK         0.0600 
    214 H214       -6.9574  -25.4459  -46.0621 H         1 UNK         0.0600 
    215 H215       -5.9012  -22.9796  -49.8527 H         1 UNK         0.3000 
    216 H216       -6.5079  -22.0587  -51.7462 H         1 UNK         0.0600 
    217 H217       -8.1636  -20.7837  -50.3623 H         1 UNK         0.0600 
    218 H218       -8.6882  -20.9959  -52.0228 H         1 UNK         0.0600 
    219 H219       -9.3966  -21.9815  -50.7525 H         1 UNK         0.0600 
    220 H220       -6.6444  -25.0569  -51.4072 H         1 UNK         0.3000 
    221 H221       -8.3488  -25.9762  -53.5970 H         1 UNK         0.0600 
    222 H222       -5.9900  -27.3153  -52.1722 H         1 UNK         0.0600 
    223 H223       -7.6882  -27.5092  -51.7482 H         1 UNK         0.0600 
    224 H224       -7.0940  -28.1011  -53.2937 H         1 UNK         0.0600 
    225 H225       -5.0341  -24.8346  -53.1250 H         1 UNK         0.3000 
    226 H226       -4.5817  -24.6669  -56.0785 H         1 UNK         0.0600 
    227 H227       -3.0108  -26.3070  -55.0386 H         1 UNK         0.0600 
    228 H228       -2.1519  -24.8489  -55.5141 H         1 UNK         0.0600 
    229 H229       -2.5451  -25.1234  -53.8201 H         1 UNK         0.0600 
    230 H230       -6.0511  -22.7879  -55.4700 H         1 UNK         0.3000 
    231 H231       -5.4530  -20.7519  -53.7127 H         1 UNK         0.0600 
    232 H232       -7.0283  -20.6313  -56.3351 H         1 UNK         0.0600 
    233 H233       -7.6610  -21.1135  -54.7607 H         1 UNK         0.0600 
    234 H234       -7.1446  -19.4591  -55.0280 H         1 UNK         0.0600 
    235 H235       -3.6795  -21.2986  -56.5603 H         1 UNK         0.3000 
    236 H236       -2.7318  -18.6011  -57.0621 H         1 UNK         0.0600 
    237 H237       -1.6004  -21.3475  -57.8312 H         1 UNK         0.0600 
    238 H238       -2.6830  -20.3633  -58.8169 H         1 UNK         0.0600 
    239 H239       -1.0556  -19.8022  -58.4725 H         1 UNK         0.0600 
    240 H240       -2.1205  -20.9138  -54.5696 H         1 UNK         0.3000 
    241 H241       -0.8646  -20.9232  -52.7790 H         1 UNK         0.0600 
    242 H242        1.9083  -22.2333  -55.1341 H         1 UNK         0.3800 
    243 H243        0.2548  -21.8673  -55.5546 H         1 UNK         0.3800 
    244 H244        0.3489  -18.2161  -53.5088 H         1 UNK         0.0800 
    245 H245        0.4829  -19.0104  -51.9724 H         1 UNK         0.0800 
    246 H246       -1.4756  -19.2751  -50.2045 H         1 UNK         0.0800 
    247 H247       -0.6300  -17.7503  -50.1663 H         1 UNK         0.0800 
@<TRIPOS>BOND
     1    1    2 1    
     2    1  127 1    
     3    1  128 1    
     4    1  129 1    
     5    2    3 2    
     6    2    4 am   BACKBONE|DICT|INTERRES
     7    4    5 1    
     8    4  130 1    
     9    5    6 1    
    10    5   65 1    
    11    5  131 1    
    12    6    7 1    
    13    6  132 1    
    14    6  133 1    
    15    7    8 1    
    16    8    9 1    
    17    8  134 1    
    18    8  135 1    
    19    9   10 ar   
    20    9   14 ar   
    21   10   11 ar   
    22   10  136 1    
    23   11   12 ar   
    24   11  126 1    
    25   12   13 ar   
    26   12  137 1    
    27   13   14 ar   
    28   13   15 1    
    29   14  138 1    
    30   15   16 1    
    31   15  139 1    
    32   15  140 1    
    33   16   17 1    
    34   17   18 1    
    35   17  141 1    
    36   17  142 1    
    37   18   19 1    
    38   18   67 1    
    39   18  143 1    
    40   19   20 am   BACKBONE|DICT|INTERRES
    41   19  144 1    
    42   20   21 2    
    43   20   22 1    
    44   22   23 1    
    45   22   24 1    
    46   22  145 1    
    47   23  146 1    
    48   23  147 1    
    49   23  148 1    
    50   24   25 am   BACKBONE|DICT|INTERRES
    51   24  149 1    
    52   25   26 2    
    53   25   27 1    
    54   27   28 1    
    55   27   29 1    
    56   27  150 1    
    57   28  151 1    
    58   28  152 1    
    59   28  153 1    
    60   29   30 am   BACKBONE|DICT|INTERRES
    61   29  154 1    
    62   30   31 2    
    63   30   32 1    
    64   32   33 1    
    65   32   34 1    
    66   32  155 1    
    67   33  156 1    
    68   33  157 1    
    69   33  158 1    
    70   34   35 am   BACKBONE|DICT|INTERRES
    71   34  159 1    
    72   35   36 2    
    73   35   37 1    
    74   37   38 1    
    75   37   39 1    
    76   37  160 1    
    77   38  161 1    
    78   38  162 1    
    79   38  163 1    
    80   39   40 am   BACKBONE|DICT|INTERRES
    81   39  164 1    
    82   40   41 2    
    83   40   42 1    
    84   42   43 1    
    85   42   44 1    
    86   42  165 1    
    87   43  166 1    
    88   43  167 1    
    89   43  168 1    
    90   44   45 am   BACKBONE|DICT|INTERRES
    91   44  169 1    
    92   45   46 2    
    93   45   47 1    
    94   47   48 1    
    95   47   49 1    
    96   47  170 1    
    97   48  171 1    
    98   48  172 1    
    99   48  173 1    
   100   49   50 am   BACKBONE|DICT|INTERRES
   101   49  174 1    
   102   50   51 2    
   103   50   52 1    
   104   52   53 1    
   105   52   54 1    
   106   52  175 1    
   107   53  176 1    
   108   53  177 1    
   109   53  178 1    
   110   54   55 am   BACKBONE|DICT|INTERRES
   111   54  179 1    
   112   55   56 2    
   113   55   57 1    
   114   57   58 1    
   115   57   59 1    
   116   57  180 1    
   117   58  181 1    
   118   58  182 1    
   119   58  183 1    
   120   59   60 am   BACKBONE|DICT|INTERRES
   121   59  184 1    
   122   60   61 2    
   123   60   62 1    
   124   62   63 1    
   125   62   64 1    
   126   62  185 1    
   127   63  186 1    
   128   63  187 1    
   129   63  188 1    
   130   64   65 am   BACKBONE|DICT|INTERRES
   131   64  189 1    
   132   65   66 2    
   133   67   68 2    
   134   67   69 am   BACKBONE|DICT|INTERRES
   135   69   70 1    
   136   69  190 1    
   137   70   71 1    
   138   70   72 1    
   139   70  191 1    
   140   71  192 1    
   141   71  193 1    
   142   71  194 1    
   143   72   73 2    
   144   72   74 am   BACKBONE|DICT|INTERRES
   145   74   75 1    
   146   74  195 1    
   147   75   76 1    
   148   75   77 1    
   149   75  196 1    
   150   76  197 1    
   151   76  198 1    
   152   76  199 1    
   153   77   78 2    
   154   77   79 am   BACKBONE|DICT|INTERRES
   155   79   80 1    
   156   79  200 1    
   157   80   81 1    
   158   80   82 1    
   159   80  201 1    
   160   81  202 1    
   161   81  203 1    
   162   81  204 1    
   163   82   83 2    
   164   82   84 am   BACKBONE|DICT|INTERRES
   165   84   85 1    
   166   84  205 1    
   167   85   86 1    
   168   85   87 1    
   169   85  206 1    
   170   86  207 1    
   171   86  208 1    
   172   86  209 1    
   173   87   88 2    
   174   87   89 am   BACKBONE|DICT|INTERRES
   175   89   90 1    
   176   89  210 1    
   177   90   91 1    
   178   90   92 1    
   179   90  211 1    
   180   91  212 1    
   181   91  213 1    
   182   91  214 1    
   183   92   93 2    
   184   92   94 am   BACKBONE|DICT|INTERRES
   185   94   95 1    
   186   94  215 1    
   187   95   96 1    
   188   95   97 1    
   189   95  216 1    
   190   96  217 1    
   191   96  218 1    
   192   96  219 1    
   193   97   98 2    
   194   97   99 am   BACKBONE|DICT|INTERRES
   195   99  100 1    
   196   99  220 1    
   197  100  101 1    
   198  100  102 1    
   199  100  221 1    
   200  101  222 1    
   201  101  223 1    
   202  101  224 1    
   203  102  103 2    
   204  102  104 am   BACKBONE|DICT|INTERRES
   205  104  105 1    
   206  104  225 1    
   207  105  106 1    
   208  105  107 1    
   209  105  226 1    
   210  106  227 1    
   211  106  228 1    
   212  106  229 1    
   213  107  108 2    
   214  107  109 am   BACKBONE|DICT|INTERRES
   215  109  110 1    
   216  109  230 1    
   217  110  111 1    
   218  110  112 1    
   219  110  231 1    
   220  111  232 1    
   221  111  233 1    
   222  111  234 1    
   223  112  113 2    
   224  112  114 am   BACKBONE|DICT|INTERRES
   225  114  115 1    
   226  114  235 1    
   227  115  116 1    
   228  115  117 1    
   229  115  236 1    
   230  116  237 1    
   231  116  238 1    
   232  116  239 1    
   233  117  118 2    
   234  117  119 am   BACKBONE|DICT|INTERRES
   235  119  120 1    
   236  119  240 1    
   237  120  121 1    
   238  120  124 1    
   239  120  241 1    
   240  121  122 am   BACKBONE|DICT|INTERRES
   241  121  123 2    
   242  122  242 1    
   243  122  243 1    
   244  124  125 1    
   245  124  244 1    
   246  124  245 1    
   247  125  126 1    
   248  126  246 1    
   249  126  247 1    
@<TRIPOS>SUBSTRUCTURE
     1 UNK         1 GROUP             0       ****    0 ROOT    
