@<TRIPOS>MOLECULE
3R540
247   249    1
SMALL
USER_CHARGES


@<TRIPOS>ATOM
      1 CA         -3.3071  -13.3315  -48.7937 C.3       0 UNK        -0.1800 
      2 C          -1.9183  -13.3213  -49.4127 C.2       0 UNK         0.5000 
      3 O          -1.6396  -12.4794  -50.2672 O.2       0 UNK        -0.5000 
      4 N          -1.0545  -14.2441  -48.9771 N.am      1 UNK        -0.5000 
      5 CA          0.3500  -14.3405  -49.3681 C.3       1 UNK         0.1400 
      6 C6          0.7467  -15.7939  -49.7373 C.3       23 UNK        -0.0398 
      7 S7         -0.1759  -16.4222  -51.1833 S.3       23 UNK        -0.2404 
      8 C8         -1.2305  -17.7219  -50.4646 C.3       23 UNK        -0.0205 
      9 C9         -2.7018  -17.3345  -50.4308 C.ar      23 UNK        -0.0193 
     10 C10        -3.4664  -17.4190  -51.5974 C.ar      23 UNK        -0.1150 
     11 C11        -4.8303  -17.1197  -51.5756 C.ar      23 UNK        -0.0193 
     12 C12        -5.4266  -16.7270  -50.3756 C.ar      23 UNK        -0.1150 
     13 C13        -4.6803  -16.6270  -49.1985 C.ar      23 UNK        -0.0193 
     14 C14        -3.3113  -16.9336  -49.2370 C.ar      23 UNK        -0.1150 
     15 C15        -5.4007  -16.1380  -47.9393 C.3       23 UNK        -0.0205 
     16 S16        -4.5326  -16.4108  -46.3582 S.3       23 UNK        -0.2404 
     17 C17        -4.9376  -18.1539  -46.0035 C.3       23 UNK        -0.0398 
     18 CA         -3.7894  -19.1365  -46.3381 C.3       11 UNK         0.1400 
     19 N          -2.5065  -18.7084  -45.7720 N.am      11 UNK        -0.5000 
     20 C          -1.3230  -19.2955  -45.9850 C.2       10 UNK         0.5000 
     21 O          -1.1971  -20.3408  -46.6269 O.2       10 UNK        -0.5000 
     22 CA         -0.0807  -18.6209  -45.3639 C.3       10 UNK         0.1400 
     23 CB          1.1448  -18.6867  -46.2934 C.3       10 UNK        -0.1800 
     24 N          -0.2750  -17.2560  -44.8543 N.am      10 UNK        -0.5000 
     25 C          -0.5737  -16.1463  -45.5480 C.2       9 UNK         0.5000 
     26 O          -0.8430  -16.1454  -46.7486 O.2       9 UNK        -0.5000 
     27 CA         -0.5878  -14.8131  -44.7727 C.3       9 UNK         0.1400 
     28 CB         -1.6809  -13.8540  -45.2736 C.3       9 UNK        -0.1800 
     29 N          -0.7760  -15.0264  -43.3386 N.am      9 UNK        -0.5000 
     30 C           0.0953  -14.6850  -42.3822 C.2       8 UNK         0.5000 
     31 O           1.1510  -14.0870  -42.5940 O.2       8 UNK        -0.5000 
     32 CA         -0.2761  -15.0690  -40.9334 C.3       8 UNK         0.1400 
     33 CB         -0.8150  -13.8421  -40.1817 C.3       8 UNK        -0.1800 
     34 N          -1.2458  -16.1661  -40.7985 N.am      8 UNK        -0.5000 
     35 C          -1.0781  -17.4167  -41.2472 C.2       7 UNK         0.5000 
     36 O          -0.1210  -17.7747  -41.9353 O.2       7 UNK        -0.5000 
     37 CA         -2.1841  -18.4260  -40.9132 C.3       7 UNK         0.1400 
     38 CB         -3.3045  -18.3494  -41.9619 C.3       7 UNK        -0.1800 
     39 N          -1.5929  -19.7588  -40.9378 N.am      7 UNK        -0.5000 
     40 C          -1.5941  -20.6510  -39.9446 C.2       6 UNK         0.5000 
     41 O          -2.2616  -20.5242  -38.9176 O.2       6 UNK        -0.5000 
     42 CA         -0.6609  -21.8741  -40.0901 C.3       6 UNK         0.1400 
     43 CB         -1.3753  -23.0693  -40.7514 C.3       6 UNK        -0.1800 
     44 N           0.6295  -21.5905  -40.7386 N.am      6 UNK        -0.5000 
     45 C           0.8769  -21.2641  -42.0143 C.2       5 UNK         0.5000 
     46 O          -0.0003  -21.1278  -42.8686 O.2       5 UNK        -0.5000 
     47 CA          2.3455  -20.9582  -42.3571 C.3       5 UNK         0.1400 
     48 CB          2.6818  -21.2198  -43.8342 C.3       5 UNK        -0.1800 
     49 N           2.6302  -19.5617  -42.0403 N.am      5 UNK        -0.5000 
     50 C           2.9255  -19.0979  -40.8215 C.2       4 UNK         0.5000 
     51 O           3.0810  -19.8322  -39.8432 O.2       4 UNK        -0.5000 
     52 CA          3.0723  -17.5677  -40.6760 C.3       4 UNK         0.1400 
     53 CB          3.5376  -17.1446  -39.2711 C.3       4 UNK        -0.1800 
     54 N           3.9724  -16.9737  -41.6668 N.am      4 UNK        -0.5000 
     55 C           3.6600  -16.6933  -42.9381 C.2       3 UNK         0.5000 
     56 O           2.5847  -16.9971  -43.4553 O.2       3 UNK        -0.5000 
     57 CA          4.7483  -15.9640  -43.7461 C.3       3 UNK         0.1400 
     58 CB          5.7338  -16.9573  -44.3939 C.3       3 UNK        -0.1800 
     59 N           4.1899  -15.0076  -44.7106 N.am      3 UNK        -0.5000 
     60 C           3.6239  -15.2407  -45.9029 C.2       2 UNK         0.5000 
     61 O           3.5633  -16.3386  -46.4609 O.2       2 UNK        -0.5000 
     62 CA          3.0595  -14.0052  -46.6181 C.3       2 UNK         0.1400 
     63 CB          4.1900  -13.1358  -47.2011 C.3       2 UNK        -0.1800 
     64 N           2.1703  -14.4437  -47.6889 N.am      2 UNK        -0.5000 
     65 C           1.1951  -13.7104  -48.2372 C.2       1 UNK         0.5000 
     66 O           0.9508  -12.5562  -47.8777 O.2       1 UNK        -0.5000 
     67 C          -4.1800  -20.5638  -45.9058 C.2       11 UNK         0.5000 
     68 O          -4.5794  -21.3730  -46.7447 O.2       11 UNK        -0.5000 
     69 N          -4.0377  -20.8408  -44.6015 N.am      12 UNK        -0.5000 
     70 CA         -4.4174  -22.1039  -43.9673 C.3       12 UNK         0.1400 
     71 CB         -4.4470  -21.9179  -42.4444 C.3       12 UNK        -0.1800 
     72 C          -3.5245  -23.2924  -44.3648 C.2       12 UNK         0.5000 
     73 O          -3.9942  -24.4301  -44.3342 O.2       12 UNK        -0.5000 
     74 N          -2.2837  -23.0226  -44.7928 N.am      13 UNK        -0.5000 
     75 CA         -1.3565  -24.0051  -45.3588 C.3       13 UNK         0.1400 
     76 CB          0.0873  -23.5273  -45.1304 C.3       13 UNK        -0.1800 
     77 C          -1.6612  -24.2871  -46.8456 C.2       13 UNK         0.5000 
     78 O          -0.7513  -24.2713  -47.6751 O.2       13 UNK        -0.5000 
     79 N          -2.9447  -24.5225  -47.1559 N.am      14 UNK        -0.5000 
     80 CA         -3.5114  -24.8108  -48.4764 C.3       14 UNK         0.1400 
     81 CB         -3.1272  -26.2404  -48.9123 C.3       14 UNK        -0.1800 
     82 C          -3.1445  -23.7470  -49.5313 C.2       14 UNK         0.5000 
     83 O          -2.6961  -24.1005  -50.6223 O.2       14 UNK        -0.5000 
     84 N          -3.3023  -22.4642  -49.1678 N.am      15 UNK        -0.5000 
     85 CA         -2.9212  -21.2852  -49.9541 C.3       15 UNK         0.1400 
     86 CB         -3.8368  -21.1340  -51.1871 C.3       15 UNK        -0.1800 
     87 C          -1.4224  -21.2993  -50.3167 C.2       15 UNK         0.5000 
     88 O          -1.0711  -21.2765  -51.4979 O.2       15 UNK        -0.5000 
     89 N          -0.5733  -21.3708  -49.2806 N.am      16 UNK        -0.5000 
     90 CA          0.8901  -21.4594  -49.3376 C.3       16 UNK         0.1400 
     91 CB          1.4899  -20.1033  -49.7610 C.3       16 UNK        -0.1800 
     92 C           1.3892  -22.6380  -50.2028 C.2       16 UNK         0.5000 
     93 O           2.2701  -22.4600  -51.0455 O.2       16 UNK        -0.5000 
     94 N           0.7909  -23.8173  -49.9805 N.am      17 UNK        -0.5000 
     95 CA          0.9776  -25.0661  -50.7238 C.3       17 UNK         0.1400 
     96 CB          2.3897  -25.6404  -50.4854 C.3       17 UNK        -0.1800 
     97 C           0.6184  -24.9165  -52.2178 C.2       17 UNK         0.5000 
     98 O           1.4122  -25.2779  -53.0890 O.2       17 UNK        -0.5000 
     99 N          -0.5839  -24.3800  -52.4703 N.am      18 UNK        -0.5000 
    100 CA        -1.1886  -24.0986  -53.7734 C.3       18 UNK         0.1400 
    101 CB        -1.5286  -25.4113  -54.5093 C.3       18 UNK        -0.1800 
    102 C         -0.3546  -23.1195  -54.6244 C.2       18 UNK         0.5000 
    103 O         -0.0839  -23.3877  -55.7971 O.2       18 UNK        -0.5000 
    104 N          0.0313  -21.9881  -54.0187 N.am      19 UNK        -0.5000 
    105 CA         0.7465  -20.8948  -54.6838 C.3       19 UNK         0.1400 
    106 CB         1.3226  -19.9449  -53.6249 C.3       19 UNK        -0.1800 
    107 C         -0.1407  -20.1129  -55.6717 C.2       19 UNK         0.5000 
    108 O          0.3818  -19.4970  -56.6019 O.2       19 UNK        -0.5000 
    109 N         -1.4593  -20.1626  -55.4604 N.am      20 UNK        -0.5000 
    110 CA        -2.4882  -19.6069  -56.3258 C.3       20 UNK         0.1400 
    111 CB        -2.8422  -18.1865  -55.8535 C.3       20 UNK        -0.1800 
    112 C         -3.7148  -20.5263  -56.2655 C.2       20 UNK         0.5000 
    113 O         -3.8852  -21.2603  -55.2879 O.2       20 UNK        -0.5000 
    114 N         -4.5575  -20.4517  -57.3026 N.am      21 UNK        -0.5000 
    115 CA        -5.8465  -21.1471  -57.3661 C.3       21 UNK         0.1400 
    116 CB        -6.2743  -21.2710  -58.8369 C.3       21 UNK        -0.1800 
    117 C         -6.9423  -20.4384  -56.5439 C.2       21 UNK         0.5000 
    118 O         -7.9232  -21.0797  -56.1660 O.2       21 UNK        -0.5000 
    119 N         -6.7537  -19.1343  -56.2935 N.am      22 UNK        -0.5000 
    120 CA        -7.6307  -18.2461  -55.5082 C.3       22 UNK         0.1400 
    121 C         -9.0081  -17.9286  -56.1696 C.2       22 UNK         0.5000 
    122 N         -9.2032  -18.1939  -57.4555 N.am      22 UNK        -0.7600 
    123 O         -9.9074  -17.4015  -55.5200 O.2       22 UNK        -0.5000 
    124 C124       -7.7749  -18.6748  -54.0193 C.3       23 UNK        -0.0398 
    125 S125       -6.1830  -18.9288  -53.1605 S.3       23 UNK        -0.2404 
    126 C126       -5.6653  -17.2142  -52.8423 C.3       23 UNK        -0.0205 
    127 H127       -4.0444  -13.6415  -49.5341 H         1 UNK         0.0600 
    128 H128       -3.5714  -12.3350  -48.4402 H         1 UNK         0.0600 
    129 H129       -3.3601  -14.0142  -47.9462 H         1 UNK         0.0600 
    130 H130       -1.3268  -14.8962  -48.2486 H         1 UNK         0.3000 
    131 H131        0.5342  -13.7262  -50.2517 H         1 UNK         0.0600 
    132 H132        0.6143  -16.4637  -48.8888 H         1 UNK         0.0800 
    133 H133        1.8043  -15.8415  -50.0016 H         1 UNK         0.0800 
    134 H134       -0.8891  -18.0108  -49.4700 H         1 UNK         0.0800 
    135 H135       -1.1169  -18.6056  -51.0904 H         1 UNK         0.0800 
    136 H136       -2.9999  -17.7322  -52.5204 H         1 UNK         0.1150 
    137 H137       -6.4811  -16.4890  -50.3601 H         1 UNK         0.1150 
    138 H138       -2.7103  -16.8630  -48.3436 H         1 UNK         0.1150 
    139 H139       -5.5726  -15.0668  -48.0454 H         1 UNK         0.0800 
    140 H140       -6.3916  -16.5906  -47.8815 H         1 UNK         0.0800 
    141 H141       -5.8446  -18.4342  -46.5419 H         1 UNK         0.0800 
    142 H142       -5.1916  -18.2080  -44.9432 H         1 UNK         0.0800 
    143 H143       -3.6685  -19.1494  -47.4220 H         1 UNK         0.0600 
    144 H144       -2.5101  -17.8246  -45.2856 H         1 UNK         0.3000 
    145 H145        0.1546  -19.2138  -44.4836 H         1 UNK         0.0600 
    146 H146        2.0453  -18.3766  -45.7651 H         1 UNK         0.0600 
    147 H147        1.3233  -19.7002  -46.6526 H         1 UNK         0.0600 
    148 H148        1.0297  -18.0417  -47.1623 H         1 UNK         0.0600 
    149 H149       -0.0447  -17.1495  -43.8703 H         1 UNK         0.3000 
    150 H150        0.3793  -14.3454  -44.9631 H         1 UNK         0.0600 
    151 H151       -1.5058  -13.5672  -46.3092 H         1 UNK         0.0600 
    152 H152       -1.6942  -12.9341  -44.6891 H         1 UNK         0.0600 
    153 H153       -2.6722  -14.3030  -45.2132 H         1 UNK         0.0600 
    154 H154       -1.6179  -15.5095  -43.0621 H         1 UNK         0.3000 
    155 H155        0.6453  -15.3824  -40.4407 H         1 UNK         0.0600 
    156 H156       -0.1090  -13.0117  -40.2285 H         1 UNK         0.0600 
    157 H157       -0.9802  -14.0648  -39.1274 H         1 UNK         0.0600 
    158 H158       -1.7583  -13.4945  -40.6050 H         1 UNK         0.0600 
    159 H159       -2.0766  -15.9526  -40.2652 H         1 UNK         0.3000 
    160 H160       -2.5871  -18.1950  -39.9251 H         1 UNK         0.0600 
    161 H161       -4.1067  -19.0483  -41.7283 H         1 UNK         0.0600 
    162 H162       -2.9333  -18.5782  -42.9602 H         1 UNK         0.0600 
    163 H163       -3.7468  -17.3529  -41.9948 H         1 UNK         0.0600 
    164 H164       -0.9754  -19.9431  -41.7246 H         1 UNK         0.3000 
    165 H165       -0.4095  -22.1779  -39.0727 H         1 UNK         0.0600 
    166 H166       -1.5975  -22.8895  -41.8024 H         1 UNK         0.0600 
    167 H167       -0.7638  -23.9696  -40.6942 H         1 UNK         0.0600 
    168 H168       -2.3196  -23.2863  -40.2506 H         1 UNK         0.0600 
    169 H169        1.4206  -21.5743  -40.1074 H         1 UNK         0.3000 
    170 H170        2.9854  -21.6076  -41.7560 H         1 UNK         0.0600 
    171 H171        2.0556  -20.6362  -44.5055 H         1 UNK         0.0600 
    172 H172        3.7213  -20.9735  -44.0509 H         1 UNK         0.0600 
    173 H173        2.5394  -22.2713  -44.0835 H         1 UNK         0.0600 
    174 H174        2.4571  -18.8752  -42.7685 H         1 UNK         0.3000 
    175 H175        2.0801  -17.1452  -40.8232 H         1 UNK         0.0600 
    176 H176        4.5301  -17.5342  -39.0414 H         1 UNK         0.0600 
    177 H177        3.5721  -16.0590  -39.1776 H         1 UNK         0.0600 
    178 H178        2.8536  -17.5107  -38.5042 H         1 UNK         0.0600 
    179 H179        4.8954  -16.7376  -41.3324 H         1 UNK         0.3000 
    180 H180        5.3186  -15.3525  -43.0451 H         1 UNK         0.0600 
    181 H181        5.2243  -17.6906  -45.0196 H         1 UNK         0.0600 
    182 H182        6.2785  -17.5140  -43.6307 H         1 UNK         0.0600 
    183 H183        6.4713  -16.4415  -45.0088 H         1 UNK         0.0600 
    184 H184        4.1575  -14.0576  -44.3685 H         1 UNK         0.3000 
    185 H185        2.4890  -13.4242  -45.8902 H         1 UNK         0.0600 
    186 H186        3.7954  -12.2435  -47.6871 H         1 UNK         0.0600 
    187 H187        4.8734  -12.7999  -46.4205 H         1 UNK         0.0600 
    188 H188        4.7771  -13.6857  -47.9376 H         1 UNK         0.0600 
    189 H189        2.3094  -15.4110  -47.9537 H         1 UNK         0.3000 
    190 H190       -3.6645  -20.1271  -43.9950 H         1 UNK         0.3000 
    191 H191       -5.4308  -22.3493  -44.2921 H         1 UNK         0.0600 
    192 H192       -5.2293  -21.2183  -42.1503 H         1 UNK         0.0600 
    193 H193       -4.6480  -22.8602  -41.9328 H         1 UNK         0.0600 
    194 H194       -3.4992  -21.5348  -42.0720 H         1 UNK         0.0600 
    195 H195       -1.9818  -22.0587  -44.8272 H         1 UNK         0.3000 
    196 H196       -1.4727  -24.9530  -44.8295 H         1 UNK         0.0600 
    197 H197        0.3078  -23.4681  -44.0657 H         1 UNK         0.0600 
    198 H198        0.2618  -22.5443  -45.5698 H         1 UNK         0.0600 
    199 H199        0.8103  -24.2187  -45.5648 H         1 UNK         0.0600 
    200 H200       -3.6054  -24.5109  -46.3875 H         1 UNK         0.3000 
    201 H201       -4.5961  -24.7747  -48.3667 H         1 UNK         0.0600 
    202 H202       -3.6174  -26.5099  -49.8486 H         1 UNK         0.0600 
    203 H203       -3.4300  -26.9746  -48.1659 H         1 UNK         0.0600 
    204 H204       -2.0520  -26.3414  -49.0643 H         1 UNK         0.0600 
    205 H205       -3.6807  -22.2673  -48.2453 H         1 UNK         0.3000 
    206 H206       -3.0781  -20.4133  -49.3190 H         1 UNK         0.0600 
    207 H207       -4.8826  -21.0474  -50.8931 H         1 UNK         0.0600 
    208 H208       -3.7486  -21.9775  -51.8722 H         1 UNK         0.0600 
    209 H209       -3.5855  -20.2369  -51.7524 H         1 UNK         0.0600 
    210 H210       -0.9590  -21.3498  -48.3412 H         1 UNK         0.3000 
    211 H211        1.2229  -21.6657  -48.3194 H         1 UNK         0.0600 
    212 H212        1.1543  -19.3012  -49.1079 H         1 UNK         0.0600 
    213 H213        2.5793  -20.1230  -49.7177 H         1 UNK         0.0600 
    214 H214        1.2049  -19.8357  -50.7763 H         1 UNK         0.0600 
    215 H215        0.1046  -23.8655  -49.2283 H         1 UNK         0.3000 
    216 H216        0.2612  -25.7755  -50.3068 H         1 UNK         0.0600 
    217 H217        2.4920  -26.6241  -50.9449 H         1 UNK         0.0600 
    218 H218        3.1663  -25.0014  -50.9064 H         1 UNK         0.0600 
    219 H219        2.5918  -25.7572  -49.4207 H         1 UNK         0.0600 
    220 H220       -1.1750  -24.1349  -51.6779 H         1 UNK         0.3000 
    221 H221       -2.1303  -23.5888  -53.5632 H         1 UNK         0.0600 
    222 H222       -0.6320  -25.9686  -54.7820 H         1 UNK         0.0600 
    223 H223       -2.1511  -26.0581  -53.8911 H         1 UNK         0.0600 
    224 H224       -2.0818  -25.2109  -55.4275 H         1 UNK         0.0600 
    225 H225       -0.2528  -21.8245  -53.0534 H         1 UNK         0.3000 
    226 H226        1.5779  -21.3216  -55.2484 H         1 UNK         0.0600 
    227 H227        2.0000  -20.4714  -52.9531 H         1 UNK         0.0600 
    228 H228        1.8895  -19.1372  -54.0892 H         1 UNK         0.0600 
    229 H229        0.5332  -19.4887  -53.0261 H         1 UNK         0.0600 
    230 H230       -1.8141  -20.7316  -54.7019 H         1 UNK         0.3000 
    231 H231       -2.1284  -19.5753  -57.3564 H         1 UNK         0.0600 
    232 H232       -3.5853  -17.7277  -56.5062 H         1 UNK         0.0600 
    233 H233       -1.9653  -17.5388  -55.8547 H         1 UNK         0.0600 
    234 H234       -3.2516  -18.1937  -54.8431 H         1 UNK         0.0600 
    235 H235       -4.3342  -19.8442  -58.0782 H         1 UNK         0.3000 
    236 H236       -5.7275  -22.1542  -56.9603 H         1 UNK         0.0600 
    237 H237       -5.5364  -21.8265  -59.4161 H         1 UNK         0.0600 
    238 H238       -7.2219  -21.8041  -58.9245 H         1 UNK         0.0600 
    239 H239       -6.4025  -20.2941  -59.3045 H         1 UNK         0.0600 
    240 H240       -5.9187  -18.7039  -56.6598 H         1 UNK         0.3000 
    241 H241       -7.1175  -17.2842  -55.5051 H         1 UNK         0.0600 
    242 H242       -8.4752  -18.6164  -58.0086 H         1 UNK         0.3800 
    243 H243      -10.0921  -17.9753  -57.8782 H         1 UNK         0.3800 
    244 H244       -8.3491  -17.9362  -53.4577 H         1 UNK         0.0800 
    245 H245       -8.3437  -19.6028  -53.9495 H         1 UNK         0.0800 
    246 H246       -5.0949  -16.8451  -53.6956 H         1 UNK         0.0800 
    247 H247       -6.5394  -16.5671  -52.7564 H         1 UNK         0.0800 
@<TRIPOS>BOND
     1    1    2 1    
     2    1  127 1    
     3    1  128 1    
     4    1  129 1    
     5    2    3 2    
     6    2    4 am   BACKBONE|DICT|INTERRES
     7    4    5 1    
     8    4  130 1    
     9    5    6 1    
    10    5   65 1    
    11    5  131 1    
    12    6    7 1    
    13    6  132 1    
    14    6  133 1    
    15    7    8 1    
    16    8    9 1    
    17    8  134 1    
    18    8  135 1    
    19    9   10 ar   
    20    9   14 ar   
    21   10   11 ar   
    22   10  136 1    
    23   11   12 ar   
    24   11  126 1    
    25   12   13 ar   
    26   12  137 1    
    27   13   14 ar   
    28   13   15 1    
    29   14  138 1    
    30   15   16 1    
    31   15  139 1    
    32   15  140 1    
    33   16   17 1    
    34   17   18 1    
    35   17  141 1    
    36   17  142 1    
    37   18   19 1    
    38   18   67 1    
    39   18  143 1    
    40   19   20 am   BACKBONE|DICT|INTERRES
    41   19  144 1    
    42   20   21 2    
    43   20   22 1    
    44   22   23 1    
    45   22   24 1    
    46   22  145 1    
    47   23  146 1    
    48   23  147 1    
    49   23  148 1    
    50   24   25 am   BACKBONE|DICT|INTERRES
    51   24  149 1    
    52   25   26 2    
    53   25   27 1    
    54   27   28 1    
    55   27   29 1    
    56   27  150 1    
    57   28  151 1    
    58   28  152 1    
    59   28  153 1    
    60   29   30 am   BACKBONE|DICT|INTERRES
    61   29  154 1    
    62   30   31 2    
    63   30   32 1    
    64   32   33 1    
    65   32   34 1    
    66   32  155 1    
    67   33  156 1    
    68   33  157 1    
    69   33  158 1    
    70   34   35 am   BACKBONE|DICT|INTERRES
    71   34  159 1    
    72   35   36 2    
    73   35   37 1    
    74   37   38 1    
    75   37   39 1    
    76   37  160 1    
    77   38  161 1    
    78   38  162 1    
    79   38  163 1    
    80   39   40 am   BACKBONE|DICT|INTERRES
    81   39  164 1    
    82   40   41 2    
    83   40   42 1    
    84   42   43 1    
    85   42   44 1    
    86   42  165 1    
    87   43  166 1    
    88   43  167 1    
    89   43  168 1    
    90   44   45 am   BACKBONE|DICT|INTERRES
    91   44  169 1    
    92   45   46 2    
    93   45   47 1    
    94   47   48 1    
    95   47   49 1    
    96   47  170 1    
    97   48  171 1    
    98   48  172 1    
    99   48  173 1    
   100   49   50 am   BACKBONE|DICT|INTERRES
   101   49  174 1    
   102   50   51 2    
   103   50   52 1    
   104   52   53 1    
   105   52   54 1    
   106   52  175 1    
   107   53  176 1    
   108   53  177 1    
   109   53  178 1    
   110   54   55 am   BACKBONE|DICT|INTERRES
   111   54  179 1    
   112   55   56 2    
   113   55   57 1    
   114   57   58 1    
   115   57   59 1    
   116   57  180 1    
   117   58  181 1    
   118   58  182 1    
   119   58  183 1    
   120   59   60 am   BACKBONE|DICT|INTERRES
   121   59  184 1    
   122   60   61 2    
   123   60   62 1    
   124   62   63 1    
   125   62   64 1    
   126   62  185 1    
   127   63  186 1    
   128   63  187 1    
   129   63  188 1    
   130   64   65 am   BACKBONE|DICT|INTERRES
   131   64  189 1    
   132   65   66 2    
   133   67   68 2    
   134   67   69 am   BACKBONE|DICT|INTERRES
   135   69   70 1    
   136   69  190 1    
   137   70   71 1    
   138   70   72 1    
   139   70  191 1    
   140   71  192 1    
   141   71  193 1    
   142   71  194 1    
   143   72   73 2    
   144   72   74 am   BACKBONE|DICT|INTERRES
   145   74   75 1    
   146   74  195 1    
   147   75   76 1    
   148   75   77 1    
   149   75  196 1    
   150   76  197 1    
   151   76  198 1    
   152   76  199 1    
   153   77   78 2    
   154   77   79 am   BACKBONE|DICT|INTERRES
   155   79   80 1    
   156   79  200 1    
   157   80   81 1    
   158   80   82 1    
   159   80  201 1    
   160   81  202 1    
   161   81  203 1    
   162   81  204 1    
   163   82   83 2    
   164   82   84 am   BACKBONE|DICT|INTERRES
   165   84   85 1    
   166   84  205 1    
   167   85   86 1    
   168   85   87 1    
   169   85  206 1    
   170   86  207 1    
   171   86  208 1    
   172   86  209 1    
   173   87   88 2    
   174   87   89 am   BACKBONE|DICT|INTERRES
   175   89   90 1    
   176   89  210 1    
   177   90   91 1    
   178   90   92 1    
   179   90  211 1    
   180   91  212 1    
   181   91  213 1    
   182   91  214 1    
   183   92   93 2    
   184   92   94 am   BACKBONE|DICT|INTERRES
   185   94   95 1    
   186   94  215 1    
   187   95   96 1    
   188   95   97 1    
   189   95  216 1    
   190   96  217 1    
   191   96  218 1    
   192   96  219 1    
   193   97   98 2    
   194   97   99 am   BACKBONE|DICT|INTERRES
   195   99  100 1    
   196   99  220 1    
   197  100  101 1    
   198  100  102 1    
   199  100  221 1    
   200  101  222 1    
   201  101  223 1    
   202  101  224 1    
   203  102  103 2    
   204  102  104 am   BACKBONE|DICT|INTERRES
   205  104  105 1    
   206  104  225 1    
   207  105  106 1    
   208  105  107 1    
   209  105  226 1    
   210  106  227 1    
   211  106  228 1    
   212  106  229 1    
   213  107  108 2    
   214  107  109 am   BACKBONE|DICT|INTERRES
   215  109  110 1    
   216  109  230 1    
   217  110  111 1    
   218  110  112 1    
   219  110  231 1    
   220  111  232 1    
   221  111  233 1    
   222  111  234 1    
   223  112  113 2    
   224  112  114 am   BACKBONE|DICT|INTERRES
   225  114  115 1    
   226  114  235 1    
   227  115  116 1    
   228  115  117 1    
   229  115  236 1    
   230  116  237 1    
   231  116  238 1    
   232  116  239 1    
   233  117  118 2    
   234  117  119 am   BACKBONE|DICT|INTERRES
   235  119  120 1    
   236  119  240 1    
   237  120  121 1    
   238  120  124 1    
   239  120  241 1    
   240  121  122 am   BACKBONE|DICT|INTERRES
   241  121  123 2    
   242  122  242 1    
   243  122  243 1    
   244  124  125 1    
   245  124  244 1    
   246  124  245 1    
   247  125  126 1    
   248  126  246 1    
   249  126  247 1    
@<TRIPOS>SUBSTRUCTURE
     1 UNK         1 GROUP             0       ****    0 ROOT    
