@<TRIPOS>MOLECULE
3R540
247   249    1
SMALL
USER_CHARGES


@<TRIPOS>ATOM
      1 CA         -2.7906  -17.1017  -41.8314 C.3       0 UNK        -0.1800 
      2 C          -2.8718  -15.5973  -42.0521 C.2       0 UNK         0.5000 
      3 O          -3.2115  -14.8650  -41.1221 O.2       0 UNK        -0.5000 
      4 N          -2.5803  -15.1339  -43.2747 N.am      1 UNK        -0.5000 
      5 CA         -2.5672  -13.7153  -43.6441 C.3       1 UNK         0.1400 
      6 C6         -2.7230  -13.5231  -45.1749 C.3       23 UNK        -0.0398 
      7 S7         -1.2935  -14.0736  -46.1680 S.3       23 UNK        -0.2404 
      8 C8         -1.9780  -13.9867  -47.8531 C.3       23 UNK        -0.0205 
      9 C9         -2.2560  -15.3779  -48.3968 C.ar      23 UNK        -0.0193 
     10 C10        -1.3374  -15.9932  -49.2496 C.ar      23 UNK        -0.1150 
     11 C11        -1.5510  -17.2934  -49.7155 C.ar      23 UNK        -0.0193 
     12 C12        -2.7004  -17.9821  -49.3158 C.ar      23 UNK        -0.1150 
     13 C13        -3.6302  -17.3752  -48.4636 C.ar      23 UNK        -0.0193 
     14 C14        -3.4126  -16.0655  -48.0254 C.ar      23 UNK        -0.1150 
     15 C15        -4.8424  -18.1527  -47.9697 C.3       23 UNK        -0.0205 
     16 S16        -4.8851  -18.3257  -46.1486 S.3       23 UNK        -0.2404 
     17 C17        -3.1840  -18.8595  -45.7491 C.3       23 UNK        -0.0398 
     18 CA         -2.8912  -20.3194  -46.1657 C.3       11 UNK         0.1400 
     19 N          -1.4825  -20.5139  -46.5125 N.am      11 UNK        -0.5000 
     20 C          -0.9984  -21.5931  -47.1415 C.2       10 UNK         0.5000 
     21 O          -1.6971  -22.5248  -47.5353 O.2       10 UNK        -0.5000 
     22 CA          0.5290  -21.6685  -47.3168 C.3       10 UNK         0.1400 
     23 CB          0.9799  -20.8599  -48.5416 C.3       10 UNK        -0.1800 
     24 N           1.2539  -21.2168  -46.1273 N.am      10 UNK        -0.5000 
     25 C           1.1847  -21.8172  -44.9301 C.2       9 UNK         0.5000 
     26 O           0.5474  -22.8489  -44.7215 O.2       9 UNK        -0.5000 
     27 CA          1.9035  -21.1291  -43.7564 C.3       9 UNK         0.1400 
     28 CB          3.4037  -21.4566  -43.7667 C.3       9 UNK        -0.1800 
     29 N           1.7113  -19.6785  -43.7408 N.am      9 UNK        -0.5000 
     30 C           0.5265  -19.0659  -43.6008 C.2       8 UNK         0.5000 
     31 O          -0.5395  -19.6595  -43.4428 O.2       8 UNK        -0.5000 
     32 CA          0.5224  -17.5314  -43.7047 C.3       8 UNK         0.1400 
     33 CB          1.0263  -16.8986  -42.3997 C.3       8 UNK        -0.1800 
     34 N           1.3111  -17.0426  -44.8329 N.am      8 UNK        -0.5000 
     35 C           1.0723  -17.3415  -46.1181 C.2       7 UNK         0.5000 
     36 O           0.1273  -18.0333  -46.4962 O.2       7 UNK        -0.5000 
     37 CA          2.1134  -16.8513  -47.1394 C.3       7 UNK         0.1400 
     38 CB          1.9368  -15.3597  -47.4582 C.3       7 UNK        -0.1800 
     39 N           3.4784  -17.0854  -46.6705 N.am      7 UNK        -0.5000 
     40 C           4.0313  -18.2949  -46.5053 C.2       6 UNK         0.5000 
     41 O           3.4658  -19.3520  -46.7834 O.2       6 UNK        -0.5000 
     42 CA          5.4403  -18.3225  -45.8855 C.3       6 UNK         0.1400 
     43 CB          6.5117  -18.1099  -46.9652 C.3       6 UNK        -0.1800 
     44 N           5.6057  -17.3179  -44.8325 N.am      6 UNK        -0.5000 
     45 C           4.9793  -17.3564  -43.6475 C.2       5 UNK         0.5000 
     46 O           4.2272  -18.2670  -43.3034 O.2       5 UNK        -0.5000 
     47 CA          5.1922  -16.1503  -42.7127 C.3       5 UNK         0.1400 
     48 CB          6.4757  -16.3240  -41.8872 C.3       5 UNK        -0.1800 
     49 N           5.2423  -14.8744  -43.4336 N.am      5 UNK        -0.5000 
     50 C           4.2109  -14.3553  -44.1113 C.2       4 UNK         0.5000 
     51 O           3.1027  -14.8906  -44.1829 O.2       4 UNK        -0.5000 
     52 CA          4.4780  -13.0619  -44.8896 C.3       4 UNK         0.1400 
     53 CB          5.2181  -13.3876  -46.2043 C.3       4 UNK        -0.1800 
     54 N           3.1995  -12.4089  -45.1612 N.am      4 UNK        -0.5000 
     55 C           3.0337  -11.1911  -45.6891 C.2       3 UNK         0.5000 
     56 O           3.9628  -10.4440  -45.9991 O.2       3 UNK        -0.5000 
     57 CA          1.5833  -10.7186  -45.9039 C.3       3 UNK         0.1400 
     58 CB          1.0075  -11.3229  -47.1944 C.3       3 UNK        -0.1800 
     59 N           0.6820  -11.0078  -44.7843 N.am      3 UNK        -0.5000 
     60 C           0.8029  -10.4994  -43.5481 C.2       2 UNK         0.5000 
     61 O           1.7507   -9.7957  -43.1960 O.2       2 UNK        -0.5000 
     62 CA         -0.3347  -10.7708  -42.5383 C.3       2 UNK         0.1400 
     63 CB         -0.9784   -9.4507  -42.0810 C.3       2 UNK        -0.1800 
     64 N          -1.3954  -11.6435  -43.0503 N.am      2 UNK        -0.5000 
     65 C          -1.3307  -12.9798  -43.0735 C.2       1 UNK         0.5000 
     66 O          -0.3438  -13.6119  -42.6925 O.2       1 UNK        -0.5000 
     67 C          -3.3731  -21.3268  -45.1006 C.2       11 UNK         0.5000 
     68 O          -4.4572  -21.8904  -45.2472 O.2       11 UNK        -0.5000 
     69 N          -2.5474  -21.5774  -44.0736 N.am      12 UNK        -0.5000 
     70 CA         -2.7958  -22.5714  -43.0244 C.3       12 UNK         0.1400 
     71 CB         -1.7358  -22.4293  -41.9223 C.3       12 UNK        -0.1800 
     72 C          -2.8384  -24.0155  -43.5628 C.2       12 UNK         0.5000 
     73 O          -3.6379  -24.8214  -43.0863 O.2       12 UNK        -0.5000 
     74 N          -2.0157  -24.2976  -44.5810 N.am      13 UNK        -0.5000 
     75 CA         -2.0033  -25.5440  -45.3494 C.3       13 UNK         0.1400 
     76 CB         -0.6140  -25.7078  -45.9881 C.3       13 UNK        -0.1800 
     77 C          -3.1109  -25.6158  -46.4251 C.2       13 UNK         0.5000 
     78 O          -3.1570  -26.5947  -47.1717 O.2       13 UNK        -0.5000 
     79 N          -3.9571  -24.5795  -46.5196 N.am      14 UNK        -0.5000 
     80 CA         -5.0554  -24.3434  -47.4637 C.3       14 UNK         0.1400 
     81 CB         -6.1117  -25.4630  -47.4081 C.3       14 UNK        -0.1800 
     82 C          -4.6095  -24.0737  -48.9115 C.2       14 UNK         0.5000 
     83 O          -5.2034  -23.2147  -49.5639 O.2       14 UNK        -0.5000 
     84 N          -3.6055  -24.8161  -49.3990 N.am      15 UNK        -0.5000 
     85 CA         -3.0167  -24.7461  -50.7411 C.3       15 UNK         0.1400 
     86 CB         -2.1954  -23.4504  -50.9032 C.3       15 UNK        -0.1800 
     87 C          -4.0673  -24.9322  -51.8552 C.2       15 UNK         0.5000 
     88 O          -4.0890  -24.1669  -52.8214 O.2       15 UNK        -0.5000 
     89 N          -4.9499  -25.9259  -51.6712 N.am      16 UNK        -0.5000 
     90 CA         -6.0988  -26.2474  -52.5284 C.3       16 UNK         0.1400 
     91 CB         -5.6235  -26.7688  -53.9017 C.3       16 UNK        -0.1800 
     92 C          -7.1108  -25.0829  -52.6315 C.2       16 UNK         0.5000 
     93 O          -7.6554  -24.8295  -53.7060 O.2       16 UNK        -0.5000 
     94 N          -7.3226  -24.3942  -51.4989 N.am      17 UNK        -0.5000 
     95 CA         -8.1029  -23.1628  -51.3308 C.3       17 UNK         0.1400 
     96 CB         -9.5944  -23.3874  -51.6592 C.3       17 UNK        -0.1800 
     97 C          -7.4694  -21.9822  -52.0957 C.2       17 UNK         0.5000 
     98 O          -8.1525  -21.2916  -52.8543 O.2       17 UNK        -0.5000 
     99 N          -6.1600  -21.7950  -51.8711 N.am      18 UNK        -0.5000 
    100 CA        -5.2724  -20.8047  -52.4881 C.3       18 UNK         0.1400 
    101 CB        -5.5879  -19.3893  -51.9625 C.3       18 UNK        -0.1800 
    102 C         -5.2576  -20.8968  -54.0292 C.2       18 UNK         0.5000 
    103 O         -5.4882  -19.9001  -54.7170 O.2       18 UNK        -0.5000 
    104 N         -5.0110  -22.1109  -54.5349 N.am      19 UNK        -0.5000 
    105 CA        -4.9082  -22.4222  -55.9604 C.3       19 UNK         0.1400 
    106 CB        -6.0606  -23.3524  -56.3665 C.3       19 UNK        -0.1800 
    107 C         -3.5507  -23.0575  -56.3008 C.2       19 UNK         0.5000 
    108 O         -3.0180  -22.7896  -57.3783 O.2       19 UNK        -0.5000 
    109 N         -2.9953  -23.8643  -55.3839 N.am      20 UNK        -0.5000 
    110 CA        -1.6636  -24.4644  -55.5099 C.3       20 UNK         0.1400 
    111 CB        -1.5663  -25.6840  -54.5804 C.3       20 UNK        -0.1800 
    112 C         -0.5420  -23.4550  -55.1976 C.2       20 UNK         0.5000 
    113 O          0.5766  -23.6140  -55.6875 O.2       20 UNK        -0.5000 
    114 N         -0.8712  -22.4290  -54.4070 N.am      21 UNK        -0.5000 
    115 CA        -0.0466  -21.2696  -54.1062 C.3       21 UNK         0.1400 
    116 CB         0.7228  -21.4939  -52.7937 C.3       21 UNK        -0.1800 
    117 C         -0.9958  -20.0729  -53.9915 C.2       21 UNK         0.5000 
    118 O         -2.0899  -20.2263  -53.4448 O.2       21 UNK        -0.5000 
    119 N         -0.5626  -18.9165  -54.5039 N.am      22 UNK        -0.5000 
    120 CA        -1.3023  -17.6386  -54.4985 C.3       22 UNK         0.1400 
    121 C         -2.5651  -17.6037  -55.4147 C.2       22 UNK         0.5000 
    122 N         -2.7343  -18.5367  -56.3436 N.am      22 UNK        -0.7600 
    123 O         -3.3844  -16.6942  -55.3148 O.2       22 UNK        -0.5000 
    124 C124       -1.5928  -17.0994  -53.0686 C.3       23 UNK        -0.0398 
    125 S125       -0.0774  -16.9574  -52.0605 S.3       23 UNK        -0.2404 
    126 C126       -0.5148  -17.9664  -50.6078 C.3       23 UNK        -0.0205 
    127 H127       -3.7592  -17.4866  -41.5127 H         1 UNK         0.0600 
    128 H128       -2.0614  -17.3294  -41.0542 H         1 UNK         0.0600 
    129 H129       -2.4992  -17.6327  -42.7349 H         1 UNK         0.0600 
    130 H130       -2.2779  -15.7675  -43.9992 H         1 UNK         0.3000 
    131 H131       -3.4431  -13.2563  -43.1801 H         1 UNK         0.0600 
    132 H132       -3.6111  -14.0568  -45.5159 H         1 UNK         0.0800 
    133 H133       -2.9088  -12.4727  -45.4041 H         1 UNK         0.0800 
    134 H134       -2.8894  -13.3875  -47.8714 H         1 UNK         0.0800 
    135 H135       -1.2626  -13.4682  -48.4932 H         1 UNK         0.0800 
    136 H136       -0.4449  -15.4638  -49.5489 H         1 UNK         0.1150 
    137 H137       -2.8594  -18.9979  -49.6498 H         1 UNK         0.1150 
    138 H138       -4.1227  -15.6004  -47.3567 H         1 UNK         0.1150 
    139 H139       -5.7489  -17.6427  -48.2977 H         1 UNK         0.0800 
    140 H140       -4.8735  -19.1462  -48.4191 H         1 UNK         0.0800 
    141 H141       -3.0147  -18.7155  -44.6822 H         1 UNK         0.0800 
    142 H142       -2.4894  -18.1737  -46.2329 H         1 UNK         0.0800 
    143 H143       -3.4505  -20.5341  -47.0783 H         1 UNK         0.0600 
    144 H144       -0.8424  -19.7636  -46.2691 H         1 UNK         0.3000 
    145 H145        0.7895  -22.7148  -47.4886 H         1 UNK         0.0600 
    146 H146        2.0435  -20.9989  -48.7357 H         1 UNK         0.0600 
    147 H147        0.4402  -21.1695  -49.4374 H         1 UNK         0.0600 
    148 H148        0.8038  -19.7943  -48.4014 H         1 UNK         0.0600 
    149 H149        1.8378  -20.3930  -46.2330 H         1 UNK         0.3000 
    150 H150        1.4791  -21.5256  -42.8319 H         1 UNK         0.0600 
    151 H151        3.5681  -22.5348  -43.7582 H         1 UNK         0.0600 
    152 H152        3.9028  -21.0448  -42.8894 H         1 UNK         0.0600 
    153 H153        3.8980  -21.0558  -44.6516 H         1 UNK         0.0600 
    154 H154        2.5499  -19.1096  -43.8146 H         1 UNK         0.3000 
    155 H155       -0.5048  -17.2066  -43.8710 H         1 UNK         0.0600 
    156 H156        0.3971  -17.1866  -41.5572 H         1 UNK         0.0600 
    157 H157        1.0159  -15.8114  -42.4582 H         1 UNK         0.0600 
    158 H158        2.0453  -17.2056  -42.1667 H         1 UNK         0.0600 
    159 H159        2.0811  -16.4176  -44.6096 H         1 UNK         0.3000 
    160 H160        1.9671  -17.4162  -48.0624 H         1 UNK         0.0600 
    161 H161        2.0927  -14.7328  -46.5820 H         1 UNK         0.0600 
    162 H162        0.9313  -15.1554  -47.8168 H         1 UNK         0.0600 
    163 H163        2.6298  -15.0347  -48.2340 H         1 UNK         0.0600 
    164 H164        4.0009  -16.2754  -46.3765 H         1 UNK         0.3000 
    165 H165        5.5918  -19.3097  -45.4436 H         1 UNK         0.0600 
    166 H166        7.5148  -18.2008  -46.5482 H         1 UNK         0.0600 
    167 H167        6.4210  -18.8558  -47.7561 H         1 UNK         0.0600 
    168 H168        6.4286  -17.1266  -47.4300 H         1 UNK         0.0600 
    169 H169        6.2143  -16.5385  -45.0330 H         1 UNK         0.3000 
    170 H170        4.3466  -16.1139  -42.0227 H         1 UNK         0.0600 
    171 H171        6.4548  -17.2597  -41.3267 H         1 UNK         0.0600 
    172 H172        7.3644  -16.3397  -42.5193 H         1 UNK         0.0600 
    173 H173        6.5915  -15.5165  -41.1641 H         1 UNK         0.0600 
    174 H174        6.1243  -14.3824  -43.4220 H         1 UNK         0.3000 
    175 H175        5.0881  -12.4008  -44.2711 H         1 UNK         0.0600 
    176 H176        4.6049  -13.9934  -46.8718 H         1 UNK         0.0600 
    177 H177        5.4991  -12.4833  -46.7433 H         1 UNK         0.0600 
    178 H178        6.1400  -13.9385  -46.0147 H         1 UNK         0.0600 
    179 H179        2.3903  -12.9580  -44.8962 H         1 UNK         0.3000 
    180 H180        1.6080   -9.6336  -46.0259 H         1 UNK         0.0600 
    181 H181        0.9793  -12.4116  -47.1516 H         1 UNK         0.0600 
    182 H182        1.6157  -11.0481  -48.0571 H         1 UNK         0.0600 
    183 H183       -0.0052  -10.9667  -47.3842 H         1 UNK         0.0600 
    184 H184       -0.1172  -11.5902  -44.9842 H         1 UNK         0.3000 
    185 H185        0.1200  -11.2415  -41.6639 H         1 UNK         0.0600 
    186 H186       -0.2385   -8.7844  -41.6355 H         1 UNK         0.0600 
    187 H187       -1.4397   -8.9184  -42.9138 H         1 UNK         0.0600 
    188 H188       -1.7462   -9.6262  -41.3272 H         1 UNK         0.0600 
    189 H189       -2.2286  -11.1802  -43.3842 H         1 UNK         0.3000 
    190 H190       -1.6937  -21.0305  -43.9864 H         1 UNK         0.3000 
    191 H191       -3.7719  -22.3535  -42.5862 H         1 UNK         0.0600 
    192 H192       -0.7326  -22.6248  -42.3011 H         1 UNK         0.0600 
    193 H193       -1.7424  -21.4261  -41.4955 H         1 UNK         0.0600 
    194 H194       -1.9221  -23.1311  -41.1085 H         1 UNK         0.0600 
    195 H195       -1.3405  -23.5936  -44.8624 H         1 UNK         0.3000 
    196 H196       -2.1630  -26.3797  -44.6654 H         1 UNK         0.0600 
    197 H197        0.1718  -25.6897  -45.2327 H         1 UNK         0.0600 
    198 H198       -0.4070  -24.9120  -46.7044 H         1 UNK         0.0600 
    199 H199       -0.5310  -26.6575  -46.5178 H         1 UNK         0.0600 
    200 H200       -3.7960  -23.8030  -45.8897 H         1 UNK         0.3000 
    201 H201       -5.5409  -23.4289  -47.1212 H         1 UNK         0.0600 
    202 H202       -6.9788  -25.2082  -48.0187 H         1 UNK         0.0600 
    203 H203       -6.4672  -25.6175  -46.3893 H         1 UNK         0.0600 
    204 H204       -5.7245  -26.4132  -47.7763 H         1 UNK         0.0600 
    205 H205       -3.2205  -25.5191  -48.7750 H         1 UNK         0.3000 
    206 H206       -2.3280  -25.5876  -50.8256 H         1 UNK         0.0600 
    207 H207       -1.4227  -23.3775  -50.1384 H         1 UNK         0.0600 
    208 H208       -2.8196  -22.5595  -50.8313 H         1 UNK         0.0600 
    209 H209       -1.6936  -23.4237  -51.8698 H         1 UNK         0.0600 
    210 H210       -4.8520  -26.4921  -50.8400 H         1 UNK         0.3000 
    211 H211       -6.6314  -27.0629  -52.0370 H         1 UNK         0.0600 
    212 H212       -4.9539  -27.6209  -53.7868 H         1 UNK         0.0600 
    213 H213       -6.4663  -27.1002  -54.5092 H         1 UNK         0.0600 
    214 H214       -5.0927  -26.0047  -54.4685 H         1 UNK         0.0600 
    215 H215       -6.7805  -24.6633  -50.6907 H         1 UNK         0.3000 
    216 H216       -8.0407  -22.9061  -50.2722 H         1 UNK         0.0600 
    217 H217      -10.1837  -22.5066  -51.4023 H         1 UNK         0.0600 
    218 H218       -9.7562  -23.5870  -52.7186 H         1 UNK         0.0600 
    219 H219      -10.0006  -24.2258  -51.0935 H         1 UNK         0.0600 
    220 H220       -5.7151  -22.4080  -51.1919 H         1 UNK         0.3000 
    221 H221       -4.2650  -21.0572  -52.1563 H         1 UNK         0.0600 
    222 H222       -6.5803  -19.0557  -52.2668 H         1 UNK         0.0600 
    223 H223       -5.5397  -19.3538  -50.8746 H         1 UNK         0.0600 
    224 H224       -4.8657  -18.6655  -52.3426 H         1 UNK         0.0600 
    225 H225       -4.8318  -22.8718  -53.8844 H         1 UNK         0.3000 
    226 H226       -4.9880  -21.5096  -56.5545 H         1 UNK         0.0600 
    227 H227       -7.0275  -22.8992  -56.1468 H         1 UNK         0.0600 
    228 H228       -6.0335  -23.5648  -57.4358 H         1 UNK         0.0600 
    229 H229       -6.0137  -24.3056  -55.8410 H         1 UNK         0.0600 
    230 H230       -3.4787  -24.0323  -54.5050 H         1 UNK         0.3000 
    231 H231       -1.5296  -24.8092  -56.5374 H         1 UNK         0.0600 
    232 H232       -0.6245  -26.2125  -54.7326 H         1 UNK         0.0600 
    233 H233       -2.3723  -26.3931  -54.7700 H         1 UNK         0.0600 
    234 H234       -1.6105  -25.3958  -53.5305 H         1 UNK         0.0600 
    235 H235       -1.8266  -22.3481  -54.0832 H         1 UNK         0.3000 
    236 H236        0.6591  -21.0929  -54.9208 H         1 UNK         0.0600 
    237 H237        1.3712  -22.3676  -52.8601 H         1 UNK         0.0600 
    238 H238        1.3530  -20.6349  -52.5605 H         1 UNK         0.0600 
    239 H239        0.0466  -21.6413  -51.9510 H         1 UNK         0.0600 
    240 H240        0.3498  -18.8839  -54.9356 H         1 UNK         0.3000 
    241 H241       -0.6239  -16.9243  -54.9661 H         1 UNK         0.0600 
    242 H242       -3.5562  -18.5063  -56.9255 H         1 UNK         0.3800 
    243 H243       -2.0667  -19.2820  -56.4529 H         1 UNK         0.3800 
    244 H244       -2.0394  -16.1052  -53.1174 H         1 UNK         0.0800 
    245 H245       -2.3248  -17.7302  -52.5623 H         1 UNK         0.0800 
    246 H246        0.3887  -18.1315  -50.0214 H         1 UNK         0.0800 
    247 H247       -0.8551  -18.9493  -50.9383 H         1 UNK         0.0800 
@<TRIPOS>BOND
     1    1    2 1    
     2    1  127 1    
     3    1  128 1    
     4    1  129 1    
     5    2    3 2    
     6    2    4 am   BACKBONE|DICT|INTERRES
     7    4    5 1    
     8    4  130 1    
     9    5    6 1    
    10    5   65 1    
    11    5  131 1    
    12    6    7 1    
    13    6  132 1    
    14    6  133 1    
    15    7    8 1    
    16    8    9 1    
    17    8  134 1    
    18    8  135 1    
    19    9   10 ar   
    20    9   14 ar   
    21   10   11 ar   
    22   10  136 1    
    23   11   12 ar   
    24   11  126 1    
    25   12   13 ar   
    26   12  137 1    
    27   13   14 ar   
    28   13   15 1    
    29   14  138 1    
    30   15   16 1    
    31   15  139 1    
    32   15  140 1    
    33   16   17 1    
    34   17   18 1    
    35   17  141 1    
    36   17  142 1    
    37   18   19 1    
    38   18   67 1    
    39   18  143 1    
    40   19   20 am   BACKBONE|DICT|INTERRES
    41   19  144 1    
    42   20   21 2    
    43   20   22 1    
    44   22   23 1    
    45   22   24 1    
    46   22  145 1    
    47   23  146 1    
    48   23  147 1    
    49   23  148 1    
    50   24   25 am   BACKBONE|DICT|INTERRES
    51   24  149 1    
    52   25   26 2    
    53   25   27 1    
    54   27   28 1    
    55   27   29 1    
    56   27  150 1    
    57   28  151 1    
    58   28  152 1    
    59   28  153 1    
    60   29   30 am   BACKBONE|DICT|INTERRES
    61   29  154 1    
    62   30   31 2    
    63   30   32 1    
    64   32   33 1    
    65   32   34 1    
    66   32  155 1    
    67   33  156 1    
    68   33  157 1    
    69   33  158 1    
    70   34   35 am   BACKBONE|DICT|INTERRES
    71   34  159 1    
    72   35   36 2    
    73   35   37 1    
    74   37   38 1    
    75   37   39 1    
    76   37  160 1    
    77   38  161 1    
    78   38  162 1    
    79   38  163 1    
    80   39   40 am   BACKBONE|DICT|INTERRES
    81   39  164 1    
    82   40   41 2    
    83   40   42 1    
    84   42   43 1    
    85   42   44 1    
    86   42  165 1    
    87   43  166 1    
    88   43  167 1    
    89   43  168 1    
    90   44   45 am   BACKBONE|DICT|INTERRES
    91   44  169 1    
    92   45   46 2    
    93   45   47 1    
    94   47   48 1    
    95   47   49 1    
    96   47  170 1    
    97   48  171 1    
    98   48  172 1    
    99   48  173 1    
   100   49   50 am   BACKBONE|DICT|INTERRES
   101   49  174 1    
   102   50   51 2    
   103   50   52 1    
   104   52   53 1    
   105   52   54 1    
   106   52  175 1    
   107   53  176 1    
   108   53  177 1    
   109   53  178 1    
   110   54   55 am   BACKBONE|DICT|INTERRES
   111   54  179 1    
   112   55   56 2    
   113   55   57 1    
   114   57   58 1    
   115   57   59 1    
   116   57  180 1    
   117   58  181 1    
   118   58  182 1    
   119   58  183 1    
   120   59   60 am   BACKBONE|DICT|INTERRES
   121   59  184 1    
   122   60   61 2    
   123   60   62 1    
   124   62   63 1    
   125   62   64 1    
   126   62  185 1    
   127   63  186 1    
   128   63  187 1    
   129   63  188 1    
   130   64   65 am   BACKBONE|DICT|INTERRES
   131   64  189 1    
   132   65   66 2    
   133   67   68 2    
   134   67   69 am   BACKBONE|DICT|INTERRES
   135   69   70 1    
   136   69  190 1    
   137   70   71 1    
   138   70   72 1    
   139   70  191 1    
   140   71  192 1    
   141   71  193 1    
   142   71  194 1    
   143   72   73 2    
   144   72   74 am   BACKBONE|DICT|INTERRES
   145   74   75 1    
   146   74  195 1    
   147   75   76 1    
   148   75   77 1    
   149   75  196 1    
   150   76  197 1    
   151   76  198 1    
   152   76  199 1    
   153   77   78 2    
   154   77   79 am   BACKBONE|DICT|INTERRES
   155   79   80 1    
   156   79  200 1    
   157   80   81 1    
   158   80   82 1    
   159   80  201 1    
   160   81  202 1    
   161   81  203 1    
   162   81  204 1    
   163   82   83 2    
   164   82   84 am   BACKBONE|DICT|INTERRES
   165   84   85 1    
   166   84  205 1    
   167   85   86 1    
   168   85   87 1    
   169   85  206 1    
   170   86  207 1    
   171   86  208 1    
   172   86  209 1    
   173   87   88 2    
   174   87   89 am   BACKBONE|DICT|INTERRES
   175   89   90 1    
   176   89  210 1    
   177   90   91 1    
   178   90   92 1    
   179   90  211 1    
   180   91  212 1    
   181   91  213 1    
   182   91  214 1    
   183   92   93 2    
   184   92   94 am   BACKBONE|DICT|INTERRES
   185   94   95 1    
   186   94  215 1    
   187   95   96 1    
   188   95   97 1    
   189   95  216 1    
   190   96  217 1    
   191   96  218 1    
   192   96  219 1    
   193   97   98 2    
   194   97   99 am   BACKBONE|DICT|INTERRES
   195   99  100 1    
   196   99  220 1    
   197  100  101 1    
   198  100  102 1    
   199  100  221 1    
   200  101  222 1    
   201  101  223 1    
   202  101  224 1    
   203  102  103 2    
   204  102  104 am   BACKBONE|DICT|INTERRES
   205  104  105 1    
   206  104  225 1    
   207  105  106 1    
   208  105  107 1    
   209  105  226 1    
   210  106  227 1    
   211  106  228 1    
   212  106  229 1    
   213  107  108 2    
   214  107  109 am   BACKBONE|DICT|INTERRES
   215  109  110 1    
   216  109  230 1    
   217  110  111 1    
   218  110  112 1    
   219  110  231 1    
   220  111  232 1    
   221  111  233 1    
   222  111  234 1    
   223  112  113 2    
   224  112  114 am   BACKBONE|DICT|INTERRES
   225  114  115 1    
   226  114  235 1    
   227  115  116 1    
   228  115  117 1    
   229  115  236 1    
   230  116  237 1    
   231  116  238 1    
   232  116  239 1    
   233  117  118 2    
   234  117  119 am   BACKBONE|DICT|INTERRES
   235  119  120 1    
   236  119  240 1    
   237  120  121 1    
   238  120  124 1    
   239  120  241 1    
   240  121  122 am   BACKBONE|DICT|INTERRES
   241  121  123 2    
   242  122  242 1    
   243  122  243 1    
   244  124  125 1    
   245  124  244 1    
   246  124  245 1    
   247  125  126 1    
   248  126  246 1    
   249  126  247 1    
@<TRIPOS>SUBSTRUCTURE
     1 UNK         1 GROUP             0       ****    0 ROOT    
