@<TRIPOS>MOLECULE
3R540
247   249    1
SMALL
USER_CHARGES


@<TRIPOS>ATOM
      1 CA          1.3477  -20.0111  -49.0221 C.3       0 UNK        -0.1800 
      2 C           1.0311  -18.6365  -48.4509 C.2       0 UNK         0.5000 
      3 O           0.8993  -18.4853  -47.2372 O.2       0 UNK        -0.5000 
      4 N           0.9233  -17.6225  -49.3172 N.am      1 UNK        -0.5000 
      5 CA          0.7380  -16.2226  -48.9333 C.3       1 UNK         0.1400 
      6 C6          0.0425  -15.4196  -50.0591 C.3       23 UNK        -0.0398 
      7 S7         -0.4440  -13.7238  -49.5771 S.3       23 UNK        -0.2404 
      8 C8         -1.7779  -13.9991  -48.3607 C.3       23 UNK        -0.0205 
      9 C9         -2.9084  -14.8862  -48.8694 C.ar      23 UNK        -0.0193 
     10 C10        -3.5360  -14.6143  -50.0906 C.ar      23 UNK        -0.1150 
     11 C11        -4.5828  -15.4201  -50.5458 C.ar      23 UNK        -0.0193 
     12 C12        -5.0151  -16.4926  -49.7629 C.ar      23 UNK        -0.1150 
     13 C13        -4.4122  -16.7628  -48.5324 C.ar      23 UNK        -0.0193 
     14 C14        -3.3519  -15.9639  -48.0946 C.ar      23 UNK        -0.1150 
     15 C15        -4.9377  -17.8988  -47.6711 C.3       23 UNK        -0.0205 
     16 S16        -4.1382  -19.4740  -48.0890 S.3       23 UNK        -0.2404 
     17 C17        -2.8485  -19.5658  -46.8028 C.3       23 UNK        -0.0398 
     18 CA         -1.9757  -20.8415  -46.8739 C.3       11 UNK         0.1400 
     19 N          -0.8902  -20.8239  -45.8904 N.am      11 UNK        -0.5000 
     20 C           0.1259  -21.6991  -45.8707 C.2       10 UNK         0.5000 
     21 O           0.2612  -22.5976  -46.7005 O.2       10 UNK        -0.5000 
     22 CA          1.1287  -21.6066  -44.7077 C.3       10 UNK         0.1400 
     23 CB          2.2527  -20.6071  -45.0106 C.3       10 UNK        -0.1800 
     24 N           0.5106  -21.2845  -43.4217 N.am      10 UNK        -0.5000 
     25 C          -0.3662  -22.0741  -42.7848 C.2       9 UNK         0.5000 
     26 O          -0.8126  -23.1198  -43.2573 O.2       9 UNK        -0.5000 
     27 CA         -0.8275  -21.6125  -41.3946 C.3       9 UNK         0.1400 
     28 CB          0.2786  -21.8323  -40.3506 C.3       9 UNK        -0.1800 
     29 N          -1.2042  -20.2023  -41.4129 N.am      9 UNK        -0.5000 
     30 C          -2.4309  -19.7522  -41.7085 C.2       8 UNK         0.5000 
     31 O          -3.3951  -20.4848  -41.9319 O.2       8 UNK        -0.5000 
     32 CA         -2.6057  -18.2225  -41.7937 C.3       8 UNK         0.1400 
     33 CB         -2.9741  -17.6430  -40.4200 C.3       8 UNK        -0.1800 
     34 N          -1.4183  -17.5331  -42.3026 N.am      8 UNK        -0.5000 
     35 C          -0.9099  -17.7120  -43.5304 C.2       7 UNK         0.5000 
     36 O          -1.4089  -18.4574  -44.3684 O.2       7 UNK        -0.5000 
     37 CA          0.4003  -16.9828  -43.8694 C.3       7 UNK         0.1400 
     38 CB          0.0941  -15.6405  -44.5493 C.3       7 UNK        -0.1800 
     39 N           1.2720  -16.7716  -42.7106 N.am      7 UNK        -0.5000 
     40 C           1.7629  -17.7450  -41.9243 C.2       6 UNK         0.5000 
     41 O           1.5372  -18.9421  -42.1083 O.2       6 UNK        -0.5000 
     42 CA          2.6176  -17.3288  -40.7092 C.3       6 UNK         0.1400 
     43 CB          4.1086  -17.5123  -41.0287 C.3       6 UNK        -0.1800 
     44 N           2.3969  -15.9520  -40.2636 N.am      6 UNK        -0.5000 
     45 C           1.2356  -15.4417  -39.8282 C.2       5 UNK         0.5000 
     46 O           0.2163  -16.1124  -39.6599 O.2       5 UNK        -0.5000 
     47 CA          1.1892  -13.9144  -39.6005 C.3       5 UNK         0.1400 
     48 CB          1.3495  -13.5922  -38.1071 C.3       5 UNK        -0.1800 
     49 N           2.1804  -13.1411  -40.3654 N.am      5 UNK        -0.5000 
     50 C           2.3253  -13.1600  -41.6984 C.2       4 UNK         0.5000 
     51 O           1.6589  -13.8868  -42.4386 O.2       4 UNK        -0.5000 
     52 CA          3.4396  -12.2694  -42.2848 C.3       4 UNK         0.1400 
     53 CB          4.8244  -12.8108  -41.8917 C.3       4 UNK        -0.1800 
     54 N           3.3718  -12.2159  -43.7439 N.am      4 UNK        -0.5000 
     55 C           2.4336  -11.5935  -44.4652 C.2       3 UNK         0.5000 
     56 O           1.6002  -10.8266  -43.9804 O.2       3 UNK        -0.5000 
     57 CA          2.3904  -11.9009  -45.9770 C.3       3 UNK         0.1400 
     58 CB          3.2985  -10.9433  -46.7714 C.3       3 UNK        -0.1800 
     59 N           2.6505  -13.3087  -46.3223 N.am      3 UNK        -0.5000 
     60 C           3.7874  -14.0164  -46.2275 C.2       2 UNK         0.5000 
     61 O           4.8464  -13.5500  -45.8070 O.2       2 UNK        -0.5000 
     62 CA          3.7339  -15.5096  -46.6168 C.3       2 UNK         0.1400 
     63 CB          3.9794  -16.3936  -45.3821 C.3       2 UNK        -0.1800 
     64 N           2.4743  -15.9233  -47.2411 N.am      2 UNK        -0.5000 
     65 C           2.0976  -15.6369  -48.4935 C.2       1 UNK         0.5000 
     66 O           2.7857  -14.9877  -49.2823 O.2       1 UNK        -0.5000 
     67 C          -2.8092  -22.1332  -46.7666 C.2       11 UNK         0.5000 
     68 O          -3.1111  -22.7348  -47.7967 O.2       11 UNK        -0.5000 
     69 N          -3.1220  -22.5579  -45.5348 N.am      12 UNK        -0.5000 
     70 CA         -3.8537  -23.7935  -45.2601 C.3       12 UNK         0.1400 
     71 CB         -4.2858  -23.8156  -43.7858 C.3       12 UNK        -0.1800 
     72 C          -3.0389  -25.0501  -45.6169 C.2       12 UNK         0.5000 
     73 O          -3.5963  -25.9965  -46.1735 O.2       12 UNK        -0.5000 
     74 N          -1.7364  -25.0283  -45.3046 N.am      13 UNK        -0.5000 
     75 CA         -0.8018  -26.1202  -45.5674 C.3       13 UNK         0.1400 
     76 CB          0.4937  -25.8798  -44.7767 C.3       13 UNK        -0.1800 
     77 C          -0.4964  -26.3116  -47.0642 C.2       13 UNK         0.5000 
     78 O          -0.5325  -27.4436  -47.5483 O.2       13 UNK        -0.5000 
     79 N          -0.1852  -25.2124  -47.7637 N.am      14 UNK        -0.5000 
     80 CA          0.2935  -25.2254  -49.1482 C.3       14 UNK         0.1400 
     81 CB          1.4132  -24.1797  -49.2874 C.3       14 UNK        -0.1800 
     82 C          -0.8130  -24.9687  -50.1876 C.2       14 UNK         0.5000 
     83 O          -0.5024  -24.9243  -51.3782 O.2       14 UNK        -0.5000 
     84 N          -2.0608  -24.7539  -49.7444 N.am      15 UNK        -0.5000 
     85 CA         -3.2328  -24.3894  -50.5548 C.3       15 UNK         0.1400 
     86 CB         -3.6541  -25.5576  -51.4706 C.3       15 UNK        -0.1800 
     87 C          -3.0079  -23.0724  -51.3276 C.2       15 UNK         0.5000 
     88 O          -3.2264  -23.0137  -52.5387 O.2       15 UNK        -0.5000 
     89 N          -2.5166  -22.0537  -50.6071 N.am      16 UNK        -0.5000 
     90 CA         -2.0720  -20.7449  -51.1088 C.3       16 UNK         0.1400 
     91 CB         -3.2654  -19.9361  -51.6594 C.3       16 UNK        -0.1800 
     92 C          -0.9163  -20.8564  -52.1293 C.2       16 UNK         0.5000 
     93 O          -0.8896  -20.1124  -53.1080 O.2       16 UNK        -0.5000 
     94 N          -0.0011  -21.8104  -51.8966 N.am      17 UNK        -0.5000 
     95 CA          1.0802  -22.2332  -52.7989 C.3       17 UNK         0.1400 
     96 CB          2.1268  -21.1163  -52.9980 C.3       17 UNK        -0.1800 
     97 C           0.5235  -22.7989  -54.1224 C.2       17 UNK         0.5000 
     98 O           0.9311  -22.3819  -55.2076 O.2       17 UNK        -0.5000 
     99 N          -0.4342  -23.7258  -53.9810 N.am      18 UNK        -0.5000 
    100 CA        -1.1984  -24.4164  -55.0247 C.3       18 UNK         0.1400 
    101 CB        -0.2701  -25.2837  -55.8999 C.3       18 UNK        -0.1800 
    102 C         -2.1210  -23.5063  -55.8669 C.2       18 UNK         0.5000 
    103 O         -2.6269  -23.9537  -56.8977 O.2       18 UNK        -0.5000 
    104 N         -2.3553  -22.2642  -55.4201 N.am      19 UNK        -0.5000 
    105 CA        -3.2554  -21.3091  -56.0699 C.3       19 UNK         0.1400 
    106 CB        -2.8164  -19.8769  -55.7296 C.3       19 UNK        -0.1800 
    107 C         -4.7359  -21.5293  -55.7013 C.2       19 UNK         0.5000 
    108 O         -5.5982  -20.9602  -56.3694 O.2       19 UNK        -0.5000 
    109 N         -5.0033  -22.3320  -54.6574 N.am      20 UNK        -0.5000 
    110 CA        -6.3181  -22.7150  -54.1319 C.3       20 UNK         0.1400 
    111 CB        -7.1010  -23.5544  -55.1626 C.3       20 UNK        -0.1800 
    112 C         -7.1008  -21.4897  -53.6257 C.2       20 UNK         0.5000 
    113 O         -8.1060  -21.0957  -54.2213 O.2       20 UNK        -0.5000 
    114 N         -6.5685  -20.8712  -52.5599 N.am      21 UNK        -0.5000 
    115 CA        -7.0600  -19.6420  -51.9162 C.3       21 UNK         0.1400 
    116 CB        -8.4144  -19.8934  -51.2223 C.3       21 UNK        -0.1800 
    117 C         -7.0908  -18.4265  -52.8705 C.2       21 UNK         0.5000 
    118 O         -7.9262  -17.5350  -52.7137 O.2       21 UNK        -0.5000 
    119 N         -6.1765  -18.4335  -53.8492 N.am      22 UNK        -0.5000 
    120 CA        -6.0509  -17.4664  -54.9526 C.3       22 UNK         0.1400 
    121 C         -7.2041  -17.5350  -56.0022 C.2       22 UNK         0.5000 
    122 N         -8.0294  -18.5760  -56.0240 N.am      22 UNK        -0.7600 
    123 O         -7.3425  -16.6405  -56.8325 O.2       22 UNK        -0.5000 
    124 C124       -5.7560  -16.0097  -54.4884 C.3       23 UNK        -0.0398 
    125 S125       -4.4007  -15.8963  -53.2648 S.3       23 UNK        -0.2404 
    126 C126       -5.2714  -15.1222  -51.8664 C.3       23 UNK        -0.0205 
    127 H127        1.5572  -19.9615  -50.0895 H         1 UNK         0.0600 
    128 H128        0.5126  -20.6913  -48.8717 H         1 UNK         0.0600 
    129 H129        2.2210  -20.4320  -48.5243 H         1 UNK         0.0600 
    130 H130        1.0760  -17.7907  -50.3013 H         1 UNK         0.3000 
    131 H131        0.0721  -16.1991  -48.0685 H         1 UNK         0.0600 
    132 H132       -0.8511  -15.9486  -50.3932 H         1 UNK         0.0800 
    133 H133        0.6866  -15.3527  -50.9375 H         1 UNK         0.0800 
    134 H134       -2.1983  -13.0310  -48.0860 H         1 UNK         0.0800 
    135 H135       -1.3449  -14.4073  -47.4470 H         1 UNK         0.0800 
    136 H136       -3.2064  -13.7772  -50.6899 H         1 UNK         0.1150 
    137 H137       -5.8332  -17.1102  -50.1053 H         1 UNK         0.1150 
    138 H138       -2.8856  -16.1731  -47.1419 H         1 UNK         0.1150 
    139 H139       -4.8048  -17.6706  -46.6125 H         1 UNK         0.0800 
    140 H140       -6.0131  -18.0048  -47.8217 H         1 UNK         0.0800 
    141 H141       -3.3302  -19.4918  -45.8265 H         1 UNK         0.0800 
    142 H142       -2.2129  -18.6847  -46.9042 H         1 UNK         0.0800 
    143 H143       -1.5087  -20.8524  -47.8584 H         1 UNK         0.0600 
    144 H144       -0.9286  -20.0818  -45.1964 H         1 UNK         0.3000 
    145 H145        1.5883  -22.5917  -44.6064 H         1 UNK         0.0600 
    146 H146        3.0311  -20.6469  -44.2486 H         1 UNK         0.0600 
    147 H147        2.7227  -20.8227  -45.9709 H         1 UNK         0.0600 
    148 H148        1.8806  -19.5859  -45.0498 H         1 UNK         0.0600 
    149 H149        0.8384  -20.4394  -42.9603 H         1 UNK         0.3000 
    150 H150       -1.6869  -22.2210  -41.1045 H         1 UNK         0.0600 
    151 H151        0.5771  -22.8808  -40.3148 H         1 UNK         0.0600 
    152 H152       -0.0638  -21.5577  -39.3528 H         1 UNK         0.0600 
    153 H153        1.1704  -21.2444  -40.5710 H         1 UNK         0.0600 
    154 H154       -0.4540  -19.5322  -41.3059 H         1 UNK         0.3000 
    155 H155       -3.4291  -18.0224  -42.4825 H         1 UNK         0.0600 
    156 H156       -2.1738  -17.7914  -39.6936 H         1 UNK         0.0600 
    157 H157       -3.8718  -18.1186  -40.0227 H         1 UNK         0.0600 
    158 H158       -3.1738  -16.5732  -40.4835 H         1 UNK         0.0600 
    159 H159       -0.9310  -16.9249  -41.6575 H         1 UNK         0.3000 
    160 H160        0.9465  -17.6005  -44.5817 H         1 UNK         0.0600 
    161 H161       -0.4767  -14.9807  -43.8947 H         1 UNK         0.0600 
    162 H162       -0.4894  -15.7886  -45.4587 H         1 UNK         0.0600 
    163 H163        1.0082  -15.1189  -44.8273 H         1 UNK         0.0600 
    164 H164        1.4859  -15.8027  -42.4881 H         1 UNK         0.3000 
    165 H165        2.3550  -17.9932  -39.8836 H         1 UNK         0.0600 
    166 H166        4.7286  -17.3044  -40.1564 H         1 UNK         0.0600 
    167 H167        4.3192  -18.5370  -41.3383 H         1 UNK         0.0600 
    168 H168        4.4305  -16.8531  -41.8362 H         1 UNK         0.0600 
    169 H169        3.1734  -15.3171  -40.3720 H         1 UNK         0.3000 
    170 H170        0.2008  -13.5764  -39.9183 H         1 UNK         0.0600 
    171 H171        0.6108  -14.1280  -37.5093 H         1 UNK         0.0600 
    172 H172        2.3368  -13.8745  -37.7392 H         1 UNK         0.0600 
    173 H173        1.2096  -12.5284  -37.9147 H         1 UNK         0.0600 
    174 H174        2.7776  -12.5327  -39.8239 H         1 UNK         0.3000 
    175 H175        3.3214  -11.2589  -41.8890 H         1 UNK         0.0600 
    176 H176        4.9743  -13.8297  -42.2521 H         1 UNK         0.0600 
    177 H177        5.6202  -12.1911  -42.3058 H         1 UNK         0.0600 
    178 H178        4.9568  -12.8210  -40.8093 H         1 UNK         0.0600 
    179 H179        4.0171  -12.8113  -44.2530 H         1 UNK         0.3000 
    180 H180        1.3647  -11.7122  -46.2983 H         1 UNK         0.0600 
    181 H181        4.3456  -11.0375  -46.4833 H         1 UNK         0.0600 
    182 H182        3.0087   -9.9057  -46.6018 H         1 UNK         0.0600 
    183 H183        3.2262  -11.1303  -47.8429 H         1 UNK         0.0600 
    184 H184        1.8423  -13.8130  -46.6540 H         1 UNK         0.3000 
    185 H185        4.5422  -15.6881  -47.3289 H         1 UNK         0.0600 
    186 H186        4.9652  -16.2042  -44.9555 H         1 UNK         0.0600 
    187 H187        3.2468  -16.2028  -44.5988 H         1 UNK         0.0600 
    188 H188        3.9345  -17.4535  -45.6345 H         1 UNK         0.0600 
    189 H189        1.8918  -16.5590  -46.7104 H         1 UNK         0.3000 
    190 H190       -2.7923  -22.0355  -44.7360 H         1 UNK         0.3000 
    191 H191       -4.7553  -23.7958  -45.8765 H         1 UNK         0.0600 
    192 H192       -3.4292  -23.8016  -43.1113 H         1 UNK         0.0600 
    193 H193       -4.8640  -24.7131  -43.5627 H         1 UNK         0.0600 
    194 H194       -4.9126  -22.9566  -43.5456 H         1 UNK         0.0600 
    195 H195       -1.3722  -24.2285  -44.7954 H         1 UNK         0.3000 
    196 H196       -1.2523  -27.0444  -45.1991 H         1 UNK         0.0600 
    197 H197        1.2036  -26.6932  -44.9317 H         1 UNK         0.0600 
    198 H198        0.2964  -25.8191  -43.7062 H         1 UNK         0.0600 
    199 H199        0.9837  -24.9536  -45.0782 H         1 UNK         0.0600 
    200 H200       -0.1584  -24.3110  -47.2904 H         1 UNK         0.3000 
    201 H201        0.7260  -26.2011  -49.3791 H         1 UNK         0.0600 
    202 H202        2.1798  -24.3181  -48.5248 H         1 UNK         0.0600 
    203 H203        1.0322  -23.1627  -49.1953 H         1 UNK         0.0600 
    204 H204        1.9073  -24.2614  -50.2556 H         1 UNK         0.0600 
    205 H205       -2.2084  -24.7513  -48.7437 H         1 UNK         0.3000 
    206 H206       -4.0527  -24.2050  -49.8596 H         1 UNK         0.0600 
    207 H207       -4.5802  -25.3252  -51.9978 H         1 UNK         0.0600 
    208 H208       -3.8285  -26.4655  -50.8934 H         1 UNK         0.0600 
    209 H209       -2.8983  -25.7802  -52.2240 H         1 UNK         0.0600 
    210 H210       -2.4467  -22.2051  -49.6058 H         1 UNK         0.3000 
    211 H211       -1.6741  -20.2000  -50.2522 H         1 UNK         0.0600 
    212 H212       -2.9729  -18.9119  -51.8951 H         1 UNK         0.0600 
    213 H213       -4.0699  -19.8791  -50.9303 H         1 UNK         0.0600 
    214 H214       -3.6697  -20.3791  -52.5683 H         1 UNK         0.0600 
    215 H215       -0.1450  -22.4029  -51.0930 H         1 UNK         0.3000 
    216 H216        1.5869  -23.0648  -52.3085 H         1 UNK         0.0600 
    217 H217        2.9568  -21.4687  -53.6114 H         1 UNK         0.0600 
    218 H218        2.5479  -20.7950  -52.0465 H         1 UNK         0.0600 
    219 H219        1.7066  -20.2417  -53.4947 H         1 UNK         0.0600 
    220 H220       -0.6584  -24.0183  -53.0325 H         1 UNK         0.3000 
    221 H221       -1.8674  -25.0929  -54.4912 H         1 UNK         0.0600 
    222 H222        0.3862  -24.6746  -56.5218 H         1 UNK         0.0600 
    223 H223        0.3546  -25.9337  -55.2873 H         1 UNK         0.0600 
    224 H224       -0.8461  -25.9262  -56.5666 H         1 UNK         0.0600 
    225 H225       -1.9203  -21.9712  -54.5557 H         1 UNK         0.3000 
    226 H226       -3.1686  -21.4297  -57.1518 H         1 UNK         0.0600 
    227 H227       -3.0004  -19.6304  -54.6848 H         1 UNK         0.0600 
    228 H228       -1.7539  -19.7307  -55.9259 H         1 UNK         0.0600 
    229 H229       -3.3589  -19.1521  -56.3367 H         1 UNK         0.0600 
    230 H230       -4.2128  -22.6889  -54.1254 H         1 UNK         0.3000 
    231 H231       -6.1330  -23.3530  -53.2664 H         1 UNK         0.0600 
    232 H232       -6.5318  -24.4330  -55.4664 H         1 UNK         0.0600 
    233 H233       -7.3402  -22.9844  -56.0607 H         1 UNK         0.0600 
    234 H234       -8.0429  -23.9062  -54.7404 H         1 UNK         0.0600 
    235 H235       -5.7288  -21.2653  -52.1603 H         1 UNK         0.3000 
    236 H236       -6.3412  -19.3911  -51.1360 H         1 UNK         0.0600 
    237 H237       -8.7143  -19.0313  -50.6254 H         1 UNK         0.0600 
    238 H238       -8.3591  -20.7483  -50.5484 H         1 UNK         0.0600 
    239 H239       -9.2100  -20.0842  -51.9430 H         1 UNK         0.0600 
    240 H240       -5.5554  -19.2256  -53.8994 H         1 UNK         0.3000 
    241 H241       -5.1719  -17.7963  -55.5055 H         1 UNK         0.0600 
    242 H242       -8.7603  -18.6111  -56.7162 H         1 UNK         0.3800 
    243 H243       -7.9198  -19.3473  -55.3754 H         1 UNK         0.3800 
    244 H244       -5.4702  -15.3972  -55.3448 H         1 UNK         0.0800 
    245 H245       -6.6617  -15.5511  -54.0898 H         1 UNK         0.0800 
    246 H246       -6.3013  -15.4791  -51.8218 H         1 UNK         0.0800 
    247 H247       -5.3280  -14.0449  -52.0286 H         1 UNK         0.0800 
@<TRIPOS>BOND
     1    1    2 1    
     2    1  127 1    
     3    1  128 1    
     4    1  129 1    
     5    2    3 2    
     6    2    4 am   BACKBONE|DICT|INTERRES
     7    4    5 1    
     8    4  130 1    
     9    5    6 1    
    10    5   65 1    
    11    5  131 1    
    12    6    7 1    
    13    6  132 1    
    14    6  133 1    
    15    7    8 1    
    16    8    9 1    
    17    8  134 1    
    18    8  135 1    
    19    9   10 ar   
    20    9   14 ar   
    21   10   11 ar   
    22   10  136 1    
    23   11   12 ar   
    24   11  126 1    
    25   12   13 ar   
    26   12  137 1    
    27   13   14 ar   
    28   13   15 1    
    29   14  138 1    
    30   15   16 1    
    31   15  139 1    
    32   15  140 1    
    33   16   17 1    
    34   17   18 1    
    35   17  141 1    
    36   17  142 1    
    37   18   19 1    
    38   18   67 1    
    39   18  143 1    
    40   19   20 am   BACKBONE|DICT|INTERRES
    41   19  144 1    
    42   20   21 2    
    43   20   22 1    
    44   22   23 1    
    45   22   24 1    
    46   22  145 1    
    47   23  146 1    
    48   23  147 1    
    49   23  148 1    
    50   24   25 am   BACKBONE|DICT|INTERRES
    51   24  149 1    
    52   25   26 2    
    53   25   27 1    
    54   27   28 1    
    55   27   29 1    
    56   27  150 1    
    57   28  151 1    
    58   28  152 1    
    59   28  153 1    
    60   29   30 am   BACKBONE|DICT|INTERRES
    61   29  154 1    
    62   30   31 2    
    63   30   32 1    
    64   32   33 1    
    65   32   34 1    
    66   32  155 1    
    67   33  156 1    
    68   33  157 1    
    69   33  158 1    
    70   34   35 am   BACKBONE|DICT|INTERRES
    71   34  159 1    
    72   35   36 2    
    73   35   37 1    
    74   37   38 1    
    75   37   39 1    
    76   37  160 1    
    77   38  161 1    
    78   38  162 1    
    79   38  163 1    
    80   39   40 am   BACKBONE|DICT|INTERRES
    81   39  164 1    
    82   40   41 2    
    83   40   42 1    
    84   42   43 1    
    85   42   44 1    
    86   42  165 1    
    87   43  166 1    
    88   43  167 1    
    89   43  168 1    
    90   44   45 am   BACKBONE|DICT|INTERRES
    91   44  169 1    
    92   45   46 2    
    93   45   47 1    
    94   47   48 1    
    95   47   49 1    
    96   47  170 1    
    97   48  171 1    
    98   48  172 1    
    99   48  173 1    
   100   49   50 am   BACKBONE|DICT|INTERRES
   101   49  174 1    
   102   50   51 2    
   103   50   52 1    
   104   52   53 1    
   105   52   54 1    
   106   52  175 1    
   107   53  176 1    
   108   53  177 1    
   109   53  178 1    
   110   54   55 am   BACKBONE|DICT|INTERRES
   111   54  179 1    
   112   55   56 2    
   113   55   57 1    
   114   57   58 1    
   115   57   59 1    
   116   57  180 1    
   117   58  181 1    
   118   58  182 1    
   119   58  183 1    
   120   59   60 am   BACKBONE|DICT|INTERRES
   121   59  184 1    
   122   60   61 2    
   123   60   62 1    
   124   62   63 1    
   125   62   64 1    
   126   62  185 1    
   127   63  186 1    
   128   63  187 1    
   129   63  188 1    
   130   64   65 am   BACKBONE|DICT|INTERRES
   131   64  189 1    
   132   65   66 2    
   133   67   68 2    
   134   67   69 am   BACKBONE|DICT|INTERRES
   135   69   70 1    
   136   69  190 1    
   137   70   71 1    
   138   70   72 1    
   139   70  191 1    
   140   71  192 1    
   141   71  193 1    
   142   71  194 1    
   143   72   73 2    
   144   72   74 am   BACKBONE|DICT|INTERRES
   145   74   75 1    
   146   74  195 1    
   147   75   76 1    
   148   75   77 1    
   149   75  196 1    
   150   76  197 1    
   151   76  198 1    
   152   76  199 1    
   153   77   78 2    
   154   77   79 am   BACKBONE|DICT|INTERRES
   155   79   80 1    
   156   79  200 1    
   157   80   81 1    
   158   80   82 1    
   159   80  201 1    
   160   81  202 1    
   161   81  203 1    
   162   81  204 1    
   163   82   83 2    
   164   82   84 am   BACKBONE|DICT|INTERRES
   165   84   85 1    
   166   84  205 1    
   167   85   86 1    
   168   85   87 1    
   169   85  206 1    
   170   86  207 1    
   171   86  208 1    
   172   86  209 1    
   173   87   88 2    
   174   87   89 am   BACKBONE|DICT|INTERRES
   175   89   90 1    
   176   89  210 1    
   177   90   91 1    
   178   90   92 1    
   179   90  211 1    
   180   91  212 1    
   181   91  213 1    
   182   91  214 1    
   183   92   93 2    
   184   92   94 am   BACKBONE|DICT|INTERRES
   185   94   95 1    
   186   94  215 1    
   187   95   96 1    
   188   95   97 1    
   189   95  216 1    
   190   96  217 1    
   191   96  218 1    
   192   96  219 1    
   193   97   98 2    
   194   97   99 am   BACKBONE|DICT|INTERRES
   195   99  100 1    
   196   99  220 1    
   197  100  101 1    
   198  100  102 1    
   199  100  221 1    
   200  101  222 1    
   201  101  223 1    
   202  101  224 1    
   203  102  103 2    
   204  102  104 am   BACKBONE|DICT|INTERRES
   205  104  105 1    
   206  104  225 1    
   207  105  106 1    
   208  105  107 1    
   209  105  226 1    
   210  106  227 1    
   211  106  228 1    
   212  106  229 1    
   213  107  108 2    
   214  107  109 am   BACKBONE|DICT|INTERRES
   215  109  110 1    
   216  109  230 1    
   217  110  111 1    
   218  110  112 1    
   219  110  231 1    
   220  111  232 1    
   221  111  233 1    
   222  111  234 1    
   223  112  113 2    
   224  112  114 am   BACKBONE|DICT|INTERRES
   225  114  115 1    
   226  114  235 1    
   227  115  116 1    
   228  115  117 1    
   229  115  236 1    
   230  116  237 1    
   231  116  238 1    
   232  116  239 1    
   233  117  118 2    
   234  117  119 am   BACKBONE|DICT|INTERRES
   235  119  120 1    
   236  119  240 1    
   237  120  121 1    
   238  120  124 1    
   239  120  241 1    
   240  121  122 am   BACKBONE|DICT|INTERRES
   241  121  123 2    
   242  122  242 1    
   243  122  243 1    
   244  124  125 1    
   245  124  244 1    
   246  124  245 1    
   247  125  126 1    
   248  126  246 1    
   249  126  247 1    
@<TRIPOS>SUBSTRUCTURE
     1 UNK         1 GROUP             0       ****    0 ROOT    
