@<TRIPOS>MOLECULE
3R540
247   249    1
SMALL
USER_CHARGES


@<TRIPOS>ATOM
      1 CA         -5.9355  -15.4799  -50.8916 C.3       0 UNK        -0.1800 
      2 C          -4.8952  -14.6858  -50.1157 C.2       0 UNK         0.5000 
      3 O          -5.0761  -13.4825  -49.9253 O.2       0 UNK        -0.5000 
      4 N          -3.8123  -15.3385  -49.6708 N.am      1 UNK        -0.5000 
      5 CA         -2.8086  -14.7324  -48.7874 C.3       1 UNK         0.1400 
      6 C6         -1.3999  -15.3705  -48.9136 C.3       23 UNK        -0.0398 
      7 S7         -1.2947  -17.1870  -48.7318 S.3       23 UNK        -0.2404 
      8 C8         -0.9406  -17.6901  -50.4494 C.3       23 UNK        -0.0205 
      9 C9         -0.3143  -19.0748  -50.5472 C.ar      23 UNK        -0.0193 
     10 C10        -0.9589  -20.1130  -51.2318 C.ar      23 UNK        -0.1150 
     11 C11        -0.3420  -21.3619  -51.3687 C.ar      23 UNK        -0.0193 
     12 C12         0.8924  -21.5883  -50.7577 C.ar      23 UNK        -0.1150 
     13 C13         1.5267  -20.5748  -50.0371 C.ar      23 UNK        -0.0193 
     14 C14         0.9404  -19.3067  -49.9768 C.ar      23 UNK        -0.1150 
     15 C15         2.8127  -20.8818  -49.2798 C.3       23 UNK        -0.0205 
     16 S16         2.7707  -20.4235  -47.5074 S.3       23 UNK        -0.2404 
     17 C17         1.0568  -20.7615  -46.9597 C.3       23 UNK        -0.0398 
     18 CA          0.8771  -22.0699  -46.1558 C.3       11 UNK         0.1400 
     19 N           1.6983  -22.0711  -44.9429 N.am      11 UNK        -0.5000 
     20 C           2.3713  -23.1097  -44.4378 C.2       10 UNK         0.5000 
     21 O           2.3908  -24.2283  -44.9537 O.2       10 UNK        -0.5000 
     22 CA          3.1266  -22.8374  -43.1168 C.3       10 UNK         0.1400 
     23 CB          4.1880  -23.9067  -42.7840 C.3       10 UNK        -0.1800 
     24 N           3.6875  -21.4811  -43.0529 N.am      10 UNK        -0.5000 
     25 C           4.6646  -20.9593  -43.8101 C.2       9 UNK         0.5000 
     26 O           5.3125  -21.6042  -44.6351 O.2       9 UNK        -0.5000 
     27 CA          4.9702  -19.4562  -43.6332 C.3       9 UNK         0.1400 
     28 CB          4.5029  -18.6625  -44.8620 C.3       9 UNK        -0.1800 
     29 N           4.3625  -18.8587  -42.4425 N.am      9 UNK        -0.5000 
     30 C           4.8271  -18.9912  -41.1933 C.2       8 UNK         0.5000 
     31 O           5.8287  -19.6449  -40.9005 O.2       8 UNK        -0.5000 
     32 CA          4.0230  -18.2881  -40.0833 C.3       8 UNK         0.1400 
     33 CB          4.4097  -16.8047  -39.9788 C.3       8 UNK        -0.1800 
     34 N           2.5780  -18.4006  -40.2860 N.am      8 UNK        -0.5000 
     35 C           1.8829  -19.5370  -40.1387 C.2       7 UNK         0.5000 
     36 O           2.3823  -20.6045  -39.7826 O.2       7 UNK        -0.5000 
     37 CA          0.3839  -19.4820  -40.4816 C.3       7 UNK         0.1400 
     38 CB         -0.4256  -18.9437  -39.2928 C.3       7 UNK        -0.1800 
     39 N           0.1060  -18.6793  -41.6740 N.am      7 UNK        -0.5000 
     40 C           0.5217  -18.9941  -42.9078 C.2       6 UNK         0.5000 
     41 O           1.1197  -20.0337  -43.1742 O.2       6 UNK        -0.5000 
     42 CA          0.2621  -17.9809  -44.0337 C.3       6 UNK         0.1400 
     43 CB         -1.1178  -18.2085  -44.6604 C.3       6 UNK        -0.1800 
     44 N           0.3858  -16.5934  -43.6010 N.am      6 UNK        -0.5000 
     45 C           1.5167  -16.0320  -43.1541 C.2       5 UNK         0.5000 
     46 O           2.5845  -16.6342  -43.0454 O.2       5 UNK        -0.5000 
     47 CA          1.4207  -14.5640  -42.7121 C.3       5 UNK         0.1400 
     48 CB          1.4179  -13.6224  -43.9263 C.3       5 UNK        -0.1800 
     49 N           0.2241  -14.3304  -41.9060 N.am      5 UNK        -0.5000 
     50 C           0.0637  -14.7708  -40.6506 C.2       4 UNK         0.5000 
     51 O           0.9308  -15.3762  -40.0191 O.2       4 UNK        -0.5000 
     52 CA         -1.3139  -14.5199  -40.0100 C.3       4 UNK         0.1400 
     53 CB         -1.3975  -13.0958  -39.4402 C.3       4 UNK        -0.1800 
     54 N          -2.4209  -14.7351  -40.9454 N.am      4 UNK        -0.5000 
     55 C          -2.7488  -15.9291  -41.4584 C.2       3 UNK         0.5000 
     56 O          -2.1526  -16.9714  -41.1956 O.2       3 UNK        -0.5000 
     57 CA         -3.9164  -15.9648  -42.4596 C.3       3 UNK         0.1400 
     58 CB         -5.2580  -16.0637  -41.7183 C.3       3 UNK        -0.1800 
     59 N          -3.9541  -14.8279  -43.3828 N.am      3 UNK        -0.5000 
     60 C          -2.9768  -14.4957  -44.2363 C.2       2 UNK         0.5000 
     61 O          -1.8658  -15.0273  -44.2569 O.2       2 UNK        -0.5000 
     62 CA         -3.2828  -13.3516  -45.2164 C.3       2 UNK         0.1400 
     63 CB         -2.5916  -12.0592  -44.7548 C.3       2 UNK        -0.1800 
     64 N          -2.8620  -13.6572  -46.5857 N.am      2 UNK        -0.5000 
     65 C          -3.3270  -14.6694  -47.3334 C.2       1 UNK         0.5000 
     66 O          -4.1528  -15.4951  -46.9338 O.2       1 UNK        -0.5000 
     67 C          -0.6239  -22.2262  -45.8250 C.2       11 UNK         0.5000 
     68 O          -1.4188  -22.4198  -46.7453 O.2       11 UNK        -0.5000 
     69 N          -0.9965  -22.0944  -44.5407 N.am      12 UNK        -0.5000 
     70 CA         -2.3646  -21.9380  -44.0243 C.3       12 UNK         0.1400 
     71 CB         -2.3123  -21.8933  -42.4902 C.3       12 UNK        -0.1800 
     72 C          -3.4058  -22.9717  -44.4986 C.2       12 UNK         0.5000 
     73 O          -4.5925  -22.6486  -44.5500 O.2       12 UNK        -0.5000 
     74 N          -2.9506  -24.1767  -44.8615 N.am      13 UNK        -0.5000 
     75 CA         -3.7744  -25.2503  -45.4162 C.3       13 UNK         0.1400 
     76 CB         -2.9517  -26.5482  -45.4186 C.3       13 UNK        -0.1800 
     77 C          -4.3253  -24.9639  -46.8305 C.2       13 UNK         0.5000 
     78 O          -5.3224  -25.5805  -47.2090 O.2       13 UNK        -0.5000 
     79 N          -3.6772  -24.0680  -47.5903 N.am      14 UNK        -0.5000 
     80 CA         -4.0014  -23.7841  -48.9926 C.3       14 UNK         0.1400 
     81 CB         -3.0231  -24.5610  -49.8917 C.3       14 UNK        -0.1800 
     82 C          -3.9988  -22.2795  -49.3230 C.2       14 UNK         0.5000 
     83 O          -4.0857  -21.9260  -50.4988 O.2       14 UNK        -0.5000 
     84 N          -3.9114  -21.4156  -48.3012 N.am      15 UNK        -0.5000 
     85 CA         -3.7106  -19.9639  -48.4052 C.3       15 UNK         0.1400 
     86 CB         -3.7418  -19.3636  -46.9941 C.3       15 UNK        -0.1800 
     87 C          -4.6962  -19.2135  -49.3233 C.2       15 UNK         0.5000 
     88 O          -4.3077  -18.2414  -49.9733 O.2       15 UNK        -0.5000 
     89 N          -5.9385  -19.7103  -49.4012 N.am      16 UNK        -0.5000 
     90 CA         -7.0164  -19.2044  -50.2552 C.3       16 UNK         0.1400 
     91 CB         -8.3001  -19.9867  -49.9389 C.3       16 UNK        -0.1800 
     92 C          -6.7184  -19.2507  -51.7701 C.2       16 UNK         0.5000 
     93 O          -7.3757  -18.5405  -52.5310 O.2       16 UNK        -0.5000 
     94 N          -5.7335  -20.0605  -52.1853 N.am      17 UNK        -0.5000 
     95 CA         -5.2716  -20.1839  -53.5692 C.3       17 UNK         0.1400 
     96 CB         -4.4847  -21.4916  -53.6960 C.3       17 UNK        -0.1800 
     97 C          -4.4160  -18.9953  -54.0588 C.2       17 UNK         0.5000 
     98 O          -4.0756  -18.9532  -55.2444 O.2       17 UNK        -0.5000 
     99 N          -4.0565  -18.0729  -53.1495 N.am      18 UNK        -0.5000 
    100 CA        -3.3857  -16.7873  -53.4027 C.3       18 UNK         0.1400 
    101 CB        -4.2965  -15.8703  -54.2456 C.3       18 UNK        -0.1800 
    102 C         -1.9710  -16.9089  -54.0097 C.2       18 UNK         0.5000 
    103 O         -1.4819  -15.9531  -54.6124 O.2       18 UNK        -0.5000 
    104 N         -1.3541  -18.0900  -53.8535 N.am      19 UNK        -0.5000 
    105 CA        -0.0815  -18.5258  -54.4420 C.3       19 UNK         0.1400 
    106 CB         1.0964  -17.6653  -53.9391 C.3       19 UNK        -0.1800 
    107 C         -0.1297  -18.6374  -55.9828 C.2       19 UNK         0.5000 
    108 O          0.9224  -18.6689  -56.6233 O.2       19 UNK        -0.5000 
    109 N         -1.3430  -18.6964  -56.5489 N.am      20 UNK        -0.5000 
    110 CA        -1.6027  -18.7463  -57.9825 C.3       20 UNK         0.1400 
    111 CB        -2.5199  -17.5739  -58.3709 C.3       20 UNK        -0.1800 
    112 C         -2.2318  -20.0940  -58.3508 C.2       20 UNK         0.5000 
    113 O         -1.6483  -20.8432  -59.1355 O.2       20 UNK        -0.5000 
    114 N         -3.3955  -20.4009  -57.7585 N.am      21 UNK        -0.5000 
    115 CA        -4.1775  -21.6034  -58.0654 C.3       21 UNK         0.1400 
    116 CB        -5.6040  -21.4385  -57.5188 C.3       21 UNK        -0.1800 
    117 C         -3.5293  -22.9104  -57.5666 C.2       21 UNK         0.5000 
    118 O         -3.8383  -23.9777  -58.0979 O.2       21 UNK        -0.5000 
    119 N         -2.6305  -22.8006  -56.5810 N.am      22 UNK        -0.5000 
    120 CA        -1.7882  -23.8930  -56.0735 C.3       22 UNK         0.1400 
    121 C         -0.4448  -24.0679  -56.8449 C.2       22 UNK         0.5000 
    122 N         -0.1461  -23.2728  -57.8673 N.am      22 UNK        -0.7600 
    123 O          0.3356  -24.9607  -56.5254 O.2       22 UNK        -0.5000 
    124 C124       -1.5960  -23.8032  -54.5361 C.3       23 UNK        -0.0398 
    125 S125       -0.8245  -22.2549  -53.9506 S.3       23 UNK        -0.2404 
    126 C126       -1.0057  -22.4821  -52.1539 C.3       23 UNK        -0.0205 
    127 H127       -5.5257  -16.4034  -51.2937 H         1 UNK         0.0600 
    128 H128       -6.7752  -15.7281  -50.2431 H         1 UNK         0.0600 
    129 H129       -6.3139  -14.8918  -51.7276 H         1 UNK         0.0600 
    130 H130       -3.7673  -16.3494  -49.7650 H         1 UNK         0.3000 
    131 H131       -2.6852  -13.6950  -49.1069 H         1 UNK         0.0600 
    132 H132       -0.7215  -14.9290  -48.1815 H         1 UNK         0.0800 
    133 H133       -0.9826  -15.0878  -49.8802 H         1 UNK         0.0800 
    134 H134       -0.2581  -16.9786  -50.9147 H         1 UNK         0.0800 
    135 H135       -1.8702  -17.6493  -51.0135 H         1 UNK         0.0800 
    136 H136       -1.9321  -19.9513  -51.6717 H         1 UNK         0.1150 
    137 H137        1.3512  -22.5645  -50.8279 H         1 UNK         0.1150 
    138 H138        1.4355  -18.5133  -49.4346 H         1 UNK         0.1150 
    139 H139        3.0473  -21.9454  -49.3438 H         1 UNK         0.0800 
    140 H140        3.6397  -20.3575  -49.7597 H         1 UNK         0.0800 
    141 H141        0.3728  -20.7561  -47.8060 H         1 UNK         0.0800 
    142 H142        0.7544  -19.9074  -46.3547 H         1 UNK         0.0800 
    143 H143        1.1590  -22.9078  -46.7967 H         1 UNK         0.0600 
    144 H144        1.7069  -21.2044  -44.4092 H         1 UNK         0.3000 
    145 H145        2.3712  -22.8783  -42.3307 H         1 UNK         0.0600 
    146 H146        4.6998  -23.6762  -41.8496 H         1 UNK         0.0600 
    147 H147        3.7276  -24.8884  -42.6675 H         1 UNK         0.0600 
    148 H148        4.9407  -23.9930  -43.5678 H         1 UNK         0.0600 
    149 H149        3.1948  -20.8421  -42.4428 H         1 UNK         0.3000 
    150 H150        6.0546  -19.3530  -43.5575 H         1 UNK         0.0600 
    151 H151        4.9672  -19.0400  -45.7737 H         1 UNK         0.0600 
    152 H152        4.7671  -17.6083  -44.7760 H         1 UNK         0.0600 
    153 H153        3.4221  -18.7266  -44.9903 H         1 UNK         0.0600 
    154 H154        3.5713  -18.2406  -42.6013 H         1 UNK         0.3000 
    155 H155        4.2731  -18.7688  -39.1351 H         1 UNK         0.0600 
    156 H156        4.1787  -16.2595  -40.8942 H         1 UNK         0.0600 
    157 H157        5.4782  -16.6928  -39.7909 H         1 UNK         0.0600 
    158 H158        3.8817  -16.3171  -39.1590 H         1 UNK         0.0600 
    159 H159        2.0923  -17.5669  -40.5894 H         1 UNK         0.3000 
    160 H160        0.0575  -20.5050  -40.6771 H         1 UNK         0.0600 
    161 H161       -1.4965  -19.0194  -39.4816 H         1 UNK         0.0600 
    162 H162       -0.1944  -17.8974  -39.0893 H         1 UNK         0.0600 
    163 H163       -0.2160  -19.5114  -38.3854 H         1 UNK         0.0600 
    164 H164       -0.4654  -17.8497  -41.5413 H         1 UNK         0.3000 
    165 H165        1.0163  -18.1452  -44.8049 H         1 UNK         0.0600 
    166 H166       -1.2938  -17.5282  -45.4942 H         1 UNK         0.0600 
    167 H167       -1.1967  -19.2224  -45.0468 H         1 UNK         0.0600 
    168 H168       -1.9188  -18.0672  -43.9351 H         1 UNK         0.0600 
    169 H169       -0.4456  -16.0134  -43.6986 H         1 UNK         0.3000 
    170 H170        2.2997  -14.3359  -42.1052 H         1 UNK         0.0600 
    171 H171        2.3179  -13.7607  -44.5266 H         1 UNK         0.0600 
    172 H172        0.5607  -13.7996  -44.5768 H         1 UNK         0.0600 
    173 H173        1.3920  -12.5781  -43.6151 H         1 UNK         0.0600 
    174 H174       -0.5599  -13.8975  -42.3713 H         1 UNK         0.3000 
    175 H175       -1.4275  -15.2247  -39.1833 H         1 UNK         0.0600 
    176 H176       -2.3382  -12.9370  -38.9127 H         1 UNK         0.0600 
    177 H177       -0.5919  -12.9131  -38.7277 H         1 UNK         0.0600 
    178 H178       -1.3201  -12.3413  -40.2240 H         1 UNK         0.0600 
    179 H179       -2.9594  -13.9262  -41.2181 H         1 UNK         0.3000 
    180 H180       -3.8000  -16.8669  -43.0630 H         1 UNK         0.0600 
    181 H181       -5.4601  -15.1687  -41.1286 H         1 UNK         0.0600 
    182 H182       -5.2655  -16.9152  -41.0363 H         1 UNK         0.0600 
    183 H183       -6.0849  -16.2013  -42.4152 H         1 UNK         0.0600 
    184 H184       -4.8272  -14.3227  -43.4263 H         1 UNK         0.3000 
    185 H185       -4.3610  -13.1802  -45.2340 H         1 UNK         0.0600 
    186 H186       -1.5055  -12.1622  -44.7514 H         1 UNK         0.0600 
    187 H187       -2.8472  -11.2209  -45.4031 H         1 UNK         0.0600 
    188 H188       -2.8985  -11.7905  -43.7431 H         1 UNK         0.0600 
    189 H189       -2.1749  -13.0333  -46.9820 H         1 UNK         0.3000 
    190 H190       -0.2589  -21.9443  -43.8670 H         1 UNK         0.3000 
    191 H191       -2.7235  -20.9669  -44.3661 H         1 UNK         0.0600 
    192 H192       -1.7382  -21.0353  -42.1437 H         1 UNK         0.0600 
    193 H193       -1.8592  -22.7949  -42.0765 H         1 UNK         0.0600 
    194 H194       -3.3118  -21.8008  -42.0630 H         1 UNK         0.0600 
    195 H195       -1.9578  -24.3485  -44.8029 H         1 UNK         0.3000 
    196 H196       -4.6324  -25.3925  -44.7557 H         1 UNK         0.0600 
    197 H197       -3.5414  -27.3853  -45.7948 H         1 UNK         0.0600 
    198 H198       -2.6241  -26.8105  -44.4124 H         1 UNK         0.0600 
    199 H199       -2.0661  -26.4610  -46.0495 H         1 UNK         0.0600 
    200 H200       -2.8563  -23.5964  -47.2166 H         1 UNK         0.3000 
    201 H201       -5.0128  -24.1260  -49.2201 H         1 UNK         0.0600 
    202 H202       -3.0562  -25.6296  -49.6792 H         1 UNK         0.0600 
    203 H203       -1.9963  -24.2225  -49.7475 H         1 UNK         0.0600 
    204 H204       -3.2708  -24.4370  -50.9465 H         1 UNK         0.0600 
    205 H205       -3.8542  -21.8034  -47.3715 H         1 UNK         0.3000 
    206 H206       -2.7119  -19.8161  -48.8180 H         1 UNK         0.0600 
    207 H207       -2.9570  -19.7968  -46.3788 H         1 UNK         0.0600 
    208 H208       -3.5791  -18.2851  -47.0176 H         1 UNK         0.0600 
    209 H209       -4.6969  -19.5423  -46.4992 H         1 UNK         0.0600 
    210 H210       -6.1497  -20.5287  -48.8499 H         1 UNK         0.3000 
    211 H211       -7.1802  -18.1586  -49.9905 H         1 UNK         0.0600 
    212 H212       -8.1863  -21.0492  -50.1580 H         1 UNK         0.0600 
    213 H213       -9.1399  -19.6177  -50.5293 H         1 UNK         0.0600 
    214 H214       -8.5756  -19.8867  -48.8889 H         1 UNK         0.0600 
    215 H215       -5.2392  -20.6229  -51.4981 H         1 UNK         0.3000 
    216 H216       -6.1451  -20.2441  -54.2210 H         1 UNK         0.0600 
    217 H217       -4.1610  -21.6626  -54.7191 H         1 UNK         0.0600 
    218 H218       -5.0817  -22.3515  -53.3923 H         1 UNK         0.0600 
    219 H219       -3.5925  -21.4637  -53.0766 H         1 UNK         0.0600 
    220 H220       -4.3416  -18.2326  -52.1899 H         1 UNK         0.3000 
    221 H221       -3.2557  -16.3133  -52.4297 H         1 UNK         0.0600 
    222 H222       -4.3768  -16.2190  -55.2758 H         1 UNK         0.0600 
    223 H223       -5.3036  -15.8212  -53.8325 H         1 UNK         0.0600 
    224 H224       -3.9088  -14.8515  -54.2748 H         1 UNK         0.0600 
    225 H225       -1.8632  -18.8074  -53.3602 H         1 UNK         0.3000 
    226 H226        0.0898  -19.5366  -54.0749 H         1 UNK         0.0600 
    227 H227        1.1167  -17.6215  -52.8508 H         1 UNK         0.0600 
    228 H228        1.0488  -16.6445  -54.3180 H         1 UNK         0.0600 
    229 H229        2.0505  -18.0857  -54.2586 H         1 UNK         0.0600 
    230 H230       -2.1596  -18.6864  -55.9478 H         1 UNK         0.3000 
    231 H231       -0.6755  -18.6480  -58.5508 H         1 UNK         0.0600 
    232 H232       -2.0304  -16.6184  -58.1814 H         1 UNK         0.0600 
    233 H233       -3.4554  -17.5813  -57.8099 H         1 UNK         0.0600 
    234 H234       -2.7699  -17.6069  -59.4321 H         1 UNK         0.0600 
    235 H235       -3.7878  -19.7642  -57.0722 H         1 UNK         0.3000 
    236 H236       -4.2500  -21.6841  -59.1522 H         1 UNK         0.0600 
    237 H237       -6.2132  -22.3148  -57.7439 H         1 UNK         0.0600 
    238 H238       -5.6156  -21.3005  -56.4396 H         1 UNK         0.0600 
    239 H239       -6.0983  -20.5772  -57.9685 H         1 UNK         0.0600 
    240 H240       -2.4224  -21.8820  -56.2193 H         1 UNK         0.3000 
    241 H241       -2.3206  -24.8296  -56.2487 H         1 UNK         0.0600 
    242 H242        0.7241  -23.4103  -58.3566 H         1 UNK         0.3800 
    243 H243       -0.7778  -22.5438  -58.1734 H         1 UNK         0.3800 
    244 H244       -2.5687  -23.8999  -54.0517 H         1 UNK         0.0800 
    245 H245       -1.0046  -24.6464  -54.1751 H         1 UNK         0.0800 
    246 H246       -0.5760  -23.4451  -51.8736 H         1 UNK         0.0800 
    247 H247       -2.0588  -22.5389  -51.8931 H         1 UNK         0.0800 
@<TRIPOS>BOND
     1    1    2 1    
     2    1  127 1    
     3    1  128 1    
     4    1  129 1    
     5    2    3 2    
     6    2    4 am   BACKBONE|DICT|INTERRES
     7    4    5 1    
     8    4  130 1    
     9    5    6 1    
    10    5   65 1    
    11    5  131 1    
    12    6    7 1    
    13    6  132 1    
    14    6  133 1    
    15    7    8 1    
    16    8    9 1    
    17    8  134 1    
    18    8  135 1    
    19    9   10 ar   
    20    9   14 ar   
    21   10   11 ar   
    22   10  136 1    
    23   11   12 ar   
    24   11  126 1    
    25   12   13 ar   
    26   12  137 1    
    27   13   14 ar   
    28   13   15 1    
    29   14  138 1    
    30   15   16 1    
    31   15  139 1    
    32   15  140 1    
    33   16   17 1    
    34   17   18 1    
    35   17  141 1    
    36   17  142 1    
    37   18   19 1    
    38   18   67 1    
    39   18  143 1    
    40   19   20 am   BACKBONE|DICT|INTERRES
    41   19  144 1    
    42   20   21 2    
    43   20   22 1    
    44   22   23 1    
    45   22   24 1    
    46   22  145 1    
    47   23  146 1    
    48   23  147 1    
    49   23  148 1    
    50   24   25 am   BACKBONE|DICT|INTERRES
    51   24  149 1    
    52   25   26 2    
    53   25   27 1    
    54   27   28 1    
    55   27   29 1    
    56   27  150 1    
    57   28  151 1    
    58   28  152 1    
    59   28  153 1    
    60   29   30 am   BACKBONE|DICT|INTERRES
    61   29  154 1    
    62   30   31 2    
    63   30   32 1    
    64   32   33 1    
    65   32   34 1    
    66   32  155 1    
    67   33  156 1    
    68   33  157 1    
    69   33  158 1    
    70   34   35 am   BACKBONE|DICT|INTERRES
    71   34  159 1    
    72   35   36 2    
    73   35   37 1    
    74   37   38 1    
    75   37   39 1    
    76   37  160 1    
    77   38  161 1    
    78   38  162 1    
    79   38  163 1    
    80   39   40 am   BACKBONE|DICT|INTERRES
    81   39  164 1    
    82   40   41 2    
    83   40   42 1    
    84   42   43 1    
    85   42   44 1    
    86   42  165 1    
    87   43  166 1    
    88   43  167 1    
    89   43  168 1    
    90   44   45 am   BACKBONE|DICT|INTERRES
    91   44  169 1    
    92   45   46 2    
    93   45   47 1    
    94   47   48 1    
    95   47   49 1    
    96   47  170 1    
    97   48  171 1    
    98   48  172 1    
    99   48  173 1    
   100   49   50 am   BACKBONE|DICT|INTERRES
   101   49  174 1    
   102   50   51 2    
   103   50   52 1    
   104   52   53 1    
   105   52   54 1    
   106   52  175 1    
   107   53  176 1    
   108   53  177 1    
   109   53  178 1    
   110   54   55 am   BACKBONE|DICT|INTERRES
   111   54  179 1    
   112   55   56 2    
   113   55   57 1    
   114   57   58 1    
   115   57   59 1    
   116   57  180 1    
   117   58  181 1    
   118   58  182 1    
   119   58  183 1    
   120   59   60 am   BACKBONE|DICT|INTERRES
   121   59  184 1    
   122   60   61 2    
   123   60   62 1    
   124   62   63 1    
   125   62   64 1    
   126   62  185 1    
   127   63  186 1    
   128   63  187 1    
   129   63  188 1    
   130   64   65 am   BACKBONE|DICT|INTERRES
   131   64  189 1    
   132   65   66 2    
   133   67   68 2    
   134   67   69 am   BACKBONE|DICT|INTERRES
   135   69   70 1    
   136   69  190 1    
   137   70   71 1    
   138   70   72 1    
   139   70  191 1    
   140   71  192 1    
   141   71  193 1    
   142   71  194 1    
   143   72   73 2    
   144   72   74 am   BACKBONE|DICT|INTERRES
   145   74   75 1    
   146   74  195 1    
   147   75   76 1    
   148   75   77 1    
   149   75  196 1    
   150   76  197 1    
   151   76  198 1    
   152   76  199 1    
   153   77   78 2    
   154   77   79 am   BACKBONE|DICT|INTERRES
   155   79   80 1    
   156   79  200 1    
   157   80   81 1    
   158   80   82 1    
   159   80  201 1    
   160   81  202 1    
   161   81  203 1    
   162   81  204 1    
   163   82   83 2    
   164   82   84 am   BACKBONE|DICT|INTERRES
   165   84   85 1    
   166   84  205 1    
   167   85   86 1    
   168   85   87 1    
   169   85  206 1    
   170   86  207 1    
   171   86  208 1    
   172   86  209 1    
   173   87   88 2    
   174   87   89 am   BACKBONE|DICT|INTERRES
   175   89   90 1    
   176   89  210 1    
   177   90   91 1    
   178   90   92 1    
   179   90  211 1    
   180   91  212 1    
   181   91  213 1    
   182   91  214 1    
   183   92   93 2    
   184   92   94 am   BACKBONE|DICT|INTERRES
   185   94   95 1    
   186   94  215 1    
   187   95   96 1    
   188   95   97 1    
   189   95  216 1    
   190   96  217 1    
   191   96  218 1    
   192   96  219 1    
   193   97   98 2    
   194   97   99 am   BACKBONE|DICT|INTERRES
   195   99  100 1    
   196   99  220 1    
   197  100  101 1    
   198  100  102 1    
   199  100  221 1    
   200  101  222 1    
   201  101  223 1    
   202  101  224 1    
   203  102  103 2    
   204  102  104 am   BACKBONE|DICT|INTERRES
   205  104  105 1    
   206  104  225 1    
   207  105  106 1    
   208  105  107 1    
   209  105  226 1    
   210  106  227 1    
   211  106  228 1    
   212  106  229 1    
   213  107  108 2    
   214  107  109 am   BACKBONE|DICT|INTERRES
   215  109  110 1    
   216  109  230 1    
   217  110  111 1    
   218  110  112 1    
   219  110  231 1    
   220  111  232 1    
   221  111  233 1    
   222  111  234 1    
   223  112  113 2    
   224  112  114 am   BACKBONE|DICT|INTERRES
   225  114  115 1    
   226  114  235 1    
   227  115  116 1    
   228  115  117 1    
   229  115  236 1    
   230  116  237 1    
   231  116  238 1    
   232  116  239 1    
   233  117  118 2    
   234  117  119 am   BACKBONE|DICT|INTERRES
   235  119  120 1    
   236  119  240 1    
   237  120  121 1    
   238  120  124 1    
   239  120  241 1    
   240  121  122 am   BACKBONE|DICT|INTERRES
   241  121  123 2    
   242  122  242 1    
   243  122  243 1    
   244  124  125 1    
   245  124  244 1    
   246  124  245 1    
   247  125  126 1    
   248  126  246 1    
   249  126  247 1    
@<TRIPOS>SUBSTRUCTURE
     1 UNK         1 GROUP             0       ****    0 ROOT    
