@<TRIPOS>MOLECULE
3R540
247   249    1
SMALL
USER_CHARGES


@<TRIPOS>ATOM
      1 CA          2.4005  -10.0121  -47.5756 C.3       0 UNK        -0.1800 
      2 C           1.2675  -10.6609  -46.7953 C.2       0 UNK         0.5000 
      3 O           1.2164  -10.5387  -45.5719 O.2       0 UNK        -0.5000 
      4 N           0.3441  -11.3337  -47.4940 N.am      1 UNK        -0.5000 
      5 CA         -0.7900  -12.0783  -46.9234 C.3       1 UNK         0.1400 
      6 C6         -1.5468  -12.8952  -47.9980 C.3       23 UNK        -0.0398 
      7 S7         -0.4653  -14.0494  -48.9105 S.3       23 UNK        -0.2404 
      8 C8         -1.5434  -15.5077  -49.0411 C.3       23 UNK        -0.0205 
      9 C9         -1.0667  -16.4455  -50.1380 C.ar      23 UNK        -0.0193 
     10 C10        -1.4516  -16.2191  -51.4629 C.ar      23 UNK        -0.1150 
     11 C11        -1.0410  -17.0767  -52.4877 C.ar      23 UNK        -0.0193 
     12 C12        -0.2494  -18.1860  -52.1615 C.ar      23 UNK        -0.1150 
     13 C13         0.1522  -18.4193  -50.8429 C.ar      23 UNK        -0.0193 
     14 C14        -0.2543  -17.5409  -49.8345 C.ar      23 UNK        -0.1150 
     15 C15         1.0370  -19.6144  -50.5217 C.3       23 UNK        -0.0205 
     16 S16         0.0641  -21.0477  -49.9660 S.3       23 UNK        -0.2404 
     17 C17         0.0497  -20.7807  -48.1643 C.3       23 UNK        -0.0398 
     18 CA         -0.5659  -21.9667  -47.3819 C.3       11 UNK         0.1400 
     19 N          -0.0872  -22.0200  -45.9982 N.am      11 UNK        -0.5000 
     20 C          -0.3708  -22.9945  -45.1212 C.2       10 UNK         0.5000 
     21 O          -1.0175  -24.0035  -45.4009 O.2       10 UNK        -0.5000 
     22 CA          0.0986  -22.7798  -43.6716 C.3       10 UNK         0.1400 
     23 CB          1.5750  -23.1706  -43.5119 C.3       10 UNK        -0.1800 
     24 N          -0.1065  -21.4041  -43.2137 N.am      10 UNK        -0.5000 
     25 C          -1.3063  -20.8164  -43.0932 C.2       9 UNK         0.5000 
     26 O          -2.3724  -21.3940  -43.3027 O.2       9 UNK        -0.5000 
     27 CA         -1.3191  -19.3201  -42.7317 C.3       9 UNK         0.1400 
     28 CB         -1.0904  -19.1132  -41.2274 C.3       9 UNK        -0.1800 
     29 N          -0.3304  -18.5537  -43.4889 N.am      9 UNK        -0.5000 
     30 C          -0.3371  -18.4029  -44.8210 C.2       8 UNK         0.5000 
     31 O          -1.2120  -18.8542  -45.5598 O.2       8 UNK        -0.5000 
     32 CA          0.8695  -17.6740  -45.4362 C.3       8 UNK         0.1400 
     33 CB          0.6957  -16.1486  -45.3585 C.3       8 UNK        -0.1800 
     34 N           2.1280  -18.0687  -44.8001 N.am      8 UNK        -0.5000 
     35 C           2.6767  -19.2875  -44.9113 C.2       7 UNK         0.5000 
     36 O           2.1883  -20.1961  -45.5818 O.2       7 UNK        -0.5000 
     37 CA          3.9635  -19.5468  -44.1075 C.3       7 UNK         0.1400 
     38 CB          5.1853  -18.9679  -44.8363 C.3       7 UNK        -0.1800 
     39 N           3.8996  -18.9980  -42.7527 N.am      7 UNK        -0.5000 
     40 C           3.0718  -19.4379  -41.7941 C.2       6 UNK         0.5000 
     41 O           2.2955  -20.3806  -41.9405 O.2       6 UNK        -0.5000 
     42 CA          3.0734  -18.6561  -40.4661 C.3       6 UNK         0.1400 
     43 CB          4.1610  -19.1933  -39.5242 C.3       6 UNK        -0.1800 
     44 N           3.2509  -17.2110  -40.6433 N.am      6 UNK        -0.5000 
     45 C           2.4252  -16.4289  -41.3497 C.2       5 UNK         0.5000 
     46 O           1.4195  -16.8465  -41.9337 O.2       5 UNK        -0.5000 
     47 CA          2.8091  -14.9485  -41.4680 C.3       5 UNK         0.1400 
     48 CB          4.0225  -14.7743  -42.4025 C.3       5 UNK        -0.1800 
     49 N           1.6542  -14.2450  -42.0085 N.am      5 UNK        -0.5000 
     50 C           1.4488  -12.9272  -42.0292 C.2       4 UNK         0.5000 
     51 O           2.2416  -12.1030  -41.5670 O.2       4 UNK        -0.5000 
     52 CA          0.1396  -12.4900  -42.7129 C.3       4 UNK         0.1400 
     53 CB         -1.1101  -12.9642  -41.9422 C.3       4 UNK        -0.1800 
     54 N           0.0854  -11.0565  -43.0006 N.am      4 UNK        -0.5000 
     55 C          -0.0737  -10.0244  -42.1592 C.2       3 UNK         0.5000 
     56 O          -0.2333  -10.1251  -40.9420 O.2       3 UNK        -0.5000 
     57 CA         -0.0933   -8.6305  -42.8136 C.3       3 UNK         0.1400 
     58 CB          1.3335   -8.0835  -42.9767 C.3       3 UNK        -0.1800 
     59 N          -0.7495   -8.6740  -44.1223 N.am      3 UNK        -0.5000 
     60 C          -2.0764   -8.6106  -44.3035 C.2       2 UNK         0.5000 
     61 O          -2.8804   -8.3751  -43.4007 O.2       2 UNK        -0.5000 
     62 CA         -2.5975   -8.8734  -45.7306 C.3       2 UNK         0.1400 
     63 CB         -2.6129   -7.5732  -46.5488 C.3       2 UNK        -0.1800 
     64 N          -1.8127   -9.8824  -46.4451 N.am      2 UNK        -0.5000 
     65 C          -1.7821  -11.1885  -46.1387 C.2       1 UNK         0.5000 
     66 O          -2.4833  -11.6985  -45.2650 O.2       1 UNK        -0.5000 
     67 C          -2.1063  -21.9513  -47.4421 C.2       11 UNK         0.5000 
     68 O          -2.6935  -22.7878  -48.1249 O.2       11 UNK        -0.5000 
     69 N          -2.7331  -21.0456  -46.6779 N.am      12 UNK        -0.5000 
     70 CA         -4.1865  -20.9134  -46.5683 C.3       12 UNK         0.1400 
     71 CB         -4.5219  -19.6743  -45.7251 C.3       12 UNK        -0.1800 
     72 C          -4.8793  -22.1681  -46.0007 C.2       12 UNK         0.5000 
     73 O          -5.9608  -22.5213  -46.4710 O.2       12 UNK        -0.5000 
     74 N          -4.2416  -22.8269  -45.0226 N.am      13 UNK        -0.5000 
     75 CA         -4.7020  -24.0834  -44.4298 C.3       13 UNK         0.1400 
     76 CB         -3.9000  -24.3743  -43.1520 C.3       13 UNK        -0.1800 
     77 C          -4.6213  -25.2700  -45.4088 C.2       13 UNK         0.5000 
     78 O          -5.5531  -26.0737  -45.4635 O.2       13 UNK        -0.5000 
     79 N          -3.5202  -25.3536  -46.1685 N.am      14 UNK        -0.5000 
     80 CA         -3.3061  -26.3509  -47.2199 C.3       14 UNK         0.1400 
     81 CB         -1.8253  -26.3393  -47.6200 C.3       14 UNK        -0.1800 
     82 C          -4.2058  -26.1254  -48.4503 C.2       14 UNK         0.5000 
     83 O          -4.6282  -27.0951  -49.0825 O.2       14 UNK        -0.5000 
     84 N          -4.4907  -24.8519  -48.7527 N.am      15 UNK        -0.5000 
     85 CA         -5.3660  -24.3565  -49.8111 C.3       15 UNK         0.1400 
     86 CB         -6.8392  -24.7003  -49.4967 C.3       15 UNK        -0.1800 
     87 C          -4.8840  -24.8196  -51.1994 C.2       15 UNK         0.5000 
     88 O          -3.7917  -24.4337  -51.6224 O.2       15 UNK        -0.5000 
     89 N          -5.6832  -25.6540  -51.8762 N.am      16 UNK        -0.5000 
     90 CA         -5.3978  -26.2210  -53.1944 C.3       16 UNK         0.1400 
     91 CB         -6.6207  -27.0178  -53.6720 C.3       16 UNK        -0.1800 
     92 C          -4.1316  -27.0979  -53.2400 C.2       16 UNK         0.5000 
     93 O          -3.4982  -27.1732  -54.2925 O.2       16 UNK        -0.5000 
     94 N          -3.7564  -27.7086  -52.1054 N.am      17 UNK        -0.5000 
     95 CA         -2.5471  -28.5266  -51.9761 C.3       17 UNK         0.1400 
     96 CB         -2.6211  -29.3518  -50.6828 C.3       17 UNK        -0.1800 
     97 C          -1.2448  -27.7021  -52.0251 C.2       17 UNK         0.5000 
     98 O          -0.2093  -28.2418  -52.4161 O.2       17 UNK        -0.5000 
     99 N          -1.3200  -26.4173  -51.6508 N.am      18 UNK        -0.5000 
    100 CA        -0.2147  -25.4578  -51.7277 C.3       18 UNK         0.1400 
    101 CB        -0.1344  -24.6939  -50.3979 C.3       18 UNK        -0.1800 
    102 C         -0.3675  -24.4823  -52.9117 C.2       18 UNK         0.5000 
    103 O          0.5130  -23.6458  -53.1146 O.2       18 UNK        -0.5000 
    104 N         -1.4738  -24.6009  -53.6631 N.am      19 UNK        -0.5000 
    105 CA        -1.9089  -23.7293  -54.7585 C.3       19 UNK         0.1400 
    106 CB        -0.9579  -23.8418  -55.9680 C.3       19 UNK        -0.1800 
    107 C         -2.1362  -22.2745  -54.2957 C.2       19 UNK         0.5000 
    108 O         -1.7622  -21.3324  -54.9964 O.2       19 UNK        -0.5000 
    109 N         -2.7706  -22.1195  -53.1238 N.am      20 UNK        -0.5000 
    110 CA        -2.9884  -20.8481  -52.4215 C.3       20 UNK         0.1400 
    111 CB        -3.5357  -21.1483  -51.0209 C.3       20 UNK        -0.1800 
    112 C         -3.9014  -19.8344  -53.1431 C.2       20 UNK         0.5000 
    113 O         -4.0370  -18.7059  -52.6720 O.2       20 UNK        -0.5000 
    114 N         -4.5194  -20.2389  -54.2592 N.am      21 UNK        -0.5000 
    115 CA        -5.2414  -19.3535  -55.1706 C.3       21 UNK         0.1400 
    116 CB        -6.2134  -20.1960  -56.0111 C.3       21 UNK        -0.1800 
    117 C         -4.2971  -18.5478  -56.0876 C.2       21 UNK         0.5000 
    118 O         -4.6969  -17.4859  -56.5659 O.2       21 UNK        -0.5000 
    119 N         -3.0805  -19.0638  -56.3299 N.am      22 UNK        -0.5000 
    120 CA        -2.0581  -18.5087  -57.2398 C.3       22 UNK         0.1400 
    121 C         -2.4884  -18.4306  -58.7400 C.2       22 UNK         0.5000 
    122 N         -3.4727  -19.2029  -59.1846 N.am      22 UNK        -0.7600 
    123 O         -1.9058  -17.6889  -59.5270 O.2       22 UNK        -0.5000 
    124 C124       -1.4294  -17.1855  -56.7135 C.3       23 UNK        -0.0398 
    125 S125       -0.4163  -17.4560  -55.2206 S.3       23 UNK        -0.2404 
    126 C126       -1.5045  -16.7911  -53.9178 C.3       23 UNK        -0.0205 
    127 H127        2.3096  -10.1917  -48.6471 H         1 UNK         0.0600 
    128 H128        2.4013   -8.9350  -47.4087 H         1 UNK         0.0600 
    129 H129        3.3589  -10.4105  -47.2431 H         1 UNK         0.0600 
    130 H130        0.4440  -11.4075  -48.4968 H         1 UNK         0.3000 
    131 H131       -0.3724  -12.7854  -46.2034 H         1 UNK         0.0600 
    132 H132       -2.3537  -13.4637  -47.5313 H         1 UNK         0.0800 
    133 H133       -2.0212  -12.2314  -48.7231 H         1 UNK         0.0800 
    134 H134       -1.5767  -16.0248  -48.0808 H         1 UNK         0.0800 
    135 H135       -2.5653  -15.1924  -49.2586 H         1 UNK         0.0800 
    136 H136       -2.0781  -15.3693  -51.6956 H         1 UNK         0.1150 
    137 H137        0.0586  -18.8790  -52.9311 H         1 UNK         0.1150 
    138 H138        0.0556  -17.7111  -48.8139 H         1 UNK         0.1150 
    139 H139        1.6007  -19.9060  -51.4093 H         1 UNK         0.0800 
    140 H140        1.7811  -19.3432  -49.7715 H         1 UNK         0.0800 
    141 H141        1.0884  -20.6456  -47.8641 H         1 UNK         0.0800 
    142 H142       -0.4571  -19.8426  -47.9366 H         1 UNK         0.0800 
    143 H143       -0.2307  -22.8942  -47.8513 H         1 UNK         0.0600 
    144 H144        0.4999  -21.2503  -45.6930 H         1 UNK         0.3000 
    145 H145       -0.4953  -23.4349  -43.0311 H         1 UNK         0.0600 
    146 H146        1.8871  -23.1101  -42.4692 H         1 UNK         0.0600 
    147 H147        1.7460  -24.1956  -43.8432 H         1 UNK         0.0600 
    148 H148        2.2299  -22.5227  -44.0948 H         1 UNK         0.0600 
    149 H149        0.7276  -20.8801  -42.9648 H         1 UNK         0.3000 
    150 H150       -2.3063  -18.9261  -42.9820 H         1 UNK         0.0600 
    151 H151       -1.8456  -19.6395  -40.6425 H         1 UNK         0.0600 
    152 H152       -1.1483  -18.0575  -40.9614 H         1 UNK         0.0600 
    153 H153       -0.1148  -19.4833  -40.9130 H         1 UNK         0.0600 
    154 H154        0.4098  -18.1095  -42.9526 H         1 UNK         0.3000 
    155 H155        0.9231  -17.9529  -46.4905 H         1 UNK         0.0600 
    156 H156       -0.2174  -15.8347  -45.8658 H         1 UNK         0.0600 
    157 H157        0.6330  -15.7994  -44.3285 H         1 UNK         0.0600 
    158 H158        1.5261  -15.6311  -45.8393 H         1 UNK         0.0600 
    159 H159        2.5604  -17.3952  -44.1865 H         1 UNK         0.3000 
    160 H160        4.0942  -20.6283  -44.0292 H         1 UNK         0.0600 
    161 H161        5.1304  -17.8817  -44.9195 H         1 UNK         0.0600 
    162 H162        5.2635  -19.3713  -45.8468 H         1 UNK         0.0600 
    163 H163        6.1096  -19.2184  -44.3155 H         1 UNK         0.0600 
    164 H164        4.5046  -18.2177  -42.5450 H         1 UNK         0.3000 
    165 H165        2.1034  -18.8145  -39.9908 H         1 UNK         0.0600 
    166 H166        5.1610  -19.0333  -39.9292 H         1 UNK         0.0600 
    167 H167        4.1119  -18.7097  -38.5484 H         1 UNK         0.0600 
    168 H168        4.0405  -20.2651  -39.3604 H         1 UNK         0.0600 
    169 H169        4.0577  -16.7984  -40.1974 H         1 UNK         0.3000 
    170 H170        3.0373  -14.5618  -40.4729 H         1 UNK         0.0600 
    171 H171        4.8936  -15.3111  -42.0256 H         1 UNK         0.0600 
    172 H172        3.8134  -15.1477  -43.4058 H         1 UNK         0.0600 
    173 H173        4.3094  -13.7266  -42.4918 H         1 UNK         0.0600 
    174 H174        0.9409  -14.8763  -42.3529 H         1 UNK         0.3000 
    175 H175        0.1249  -12.9736  -43.6907 H         1 UNK         0.0600 
    176 H176       -2.0241  -12.6154  -42.4237 H         1 UNK         0.0600 
    177 H177       -1.1616  -14.0528  -41.9067 H         1 UNK         0.0600 
    178 H178       -1.1149  -12.6074  -40.9121 H         1 UNK         0.0600 
    179 H179        0.3159  -10.8205  -43.9621 H         1 UNK         0.3000 
    180 H180       -0.6409   -7.9534  -42.1544 H         1 UNK         0.0600 
    181 H181        1.3245   -7.0810  -43.4047 H         1 UNK         0.0600 
    182 H182        1.8381   -8.0215  -42.0117 H         1 UNK         0.0600 
    183 H183        1.9402   -8.7190  -43.6228 H         1 UNK         0.0600 
    184 H184       -0.1630   -8.9174  -44.9095 H         1 UNK         0.3000 
    185 H185       -3.6242   -9.2365  -45.6479 H         1 UNK         0.0600 
    186 H186       -3.0486   -7.7330  -47.5352 H         1 UNK         0.0600 
    187 H187       -3.2090   -6.8068  -46.0517 H         1 UNK         0.0600 
    188 H188       -1.6085   -7.1705  -46.6857 H         1 UNK         0.0600 
    189 H189       -1.2087   -9.5514  -47.1832 H         1 UNK         0.3000 
    190 H190       -2.1770  -20.3775  -46.1498 H         1 UNK         0.3000 
    191 H191       -4.5755  -20.7530  -47.5761 H         1 UNK         0.0600 
    192 H192       -5.6006  -19.5320  -45.6504 H         1 UNK         0.0600 
    193 H193       -4.1036  -18.7708  -46.1691 H         1 UNK         0.0600 
    194 H194       -4.1298  -19.7601  -44.7113 H         1 UNK         0.0600 
    195 H195       -3.3904  -22.4263  -44.6398 H         1 UNK         0.3000 
    196 H196       -5.7493  -23.9570  -44.1476 H         1 UNK         0.0600 
    197 H197       -4.2393  -25.2966  -42.6791 H         1 UNK         0.0600 
    198 H198       -4.0169  -23.5724  -42.4228 H         1 UNK         0.0600 
    199 H199       -2.8355  -24.4837  -43.3600 H         1 UNK         0.0600 
    200 H200       -2.7736  -24.6797  -46.0253 H         1 UNK         0.3000 
    201 H201       -3.5429  -27.3368  -46.8151 H         1 UNK         0.0600 
    202 H202       -1.1920  -26.6511  -46.7895 H         1 UNK         0.0600 
    203 H203       -1.5105  -25.3395  -47.9174 H         1 UNK         0.0600 
    204 H204       -1.6284  -27.0136  -48.4536 H         1 UNK         0.0600 
    205 H205       -3.9771  -24.1282  -48.2549 H         1 UNK         0.3000 
    206 H206       -5.2739  -23.2714  -49.7939 H         1 UNK         0.0600 
    207 H207       -7.1331  -24.2823  -48.5335 H         1 UNK         0.0600 
    208 H208       -7.5115  -24.2789  -50.2452 H         1 UNK         0.0600 
    209 H209       -7.0163  -25.7754  -49.4521 H         1 UNK         0.0600 
    210 H210       -6.5474  -25.9420  -51.4407 H         1 UNK         0.3000 
    211 H211       -5.2415  -25.3886  -53.8837 H         1 UNK         0.0600 
    212 H212       -6.8454  -27.8490  -53.0024 H         1 UNK         0.0600 
    213 H213       -6.4530  -27.4334  -54.6666 H         1 UNK         0.0600 
    214 H214       -7.5062  -26.3847  -53.7317 H         1 UNK         0.0600 
    215 H215       -4.3085  -27.5744  -51.2661 H         1 UNK         0.3000 
    216 H216       -2.5220  -29.2244  -52.8159 H         1 UNK         0.0600 
    217 H217       -1.7637  -30.0207  -50.5981 H         1 UNK         0.0600 
    218 H218       -3.5187  -29.9698  -50.6590 H         1 UNK         0.0600 
    219 H219       -2.6278  -28.7173  -49.7975 H         1 UNK         0.0600 
    220 H220       -2.2152  -26.0417  -51.3632 H         1 UNK         0.3000 
    221 H221        0.7348  -25.9775  -51.8699 H         1 UNK         0.0600 
    222 H222       -1.0684  -24.1779  -50.1693 H         1 UNK         0.0600 
    223 H223        0.0965  -25.3712  -49.5772 H         1 UNK         0.0600 
    224 H224        0.6598  -23.9474  -50.4211 H         1 UNK         0.0600 
    225 H225       -2.1220  -25.3334  -53.4122 H         1 UNK         0.3000 
    226 H226       -2.8841  -24.1031  -55.0736 H         1 UNK         0.0600 
    227 H227       -0.8297  -24.8805  -56.2725 H         1 UNK         0.0600 
    228 H228       -1.3538  -23.2988  -56.8270 H         1 UNK         0.0600 
    229 H229        0.0283  -23.4312  -55.7501 H         1 UNK         0.0600 
    230 H230       -3.0522  -22.9552  -52.6176 H         1 UNK         0.3000 
    231 H231       -2.0117  -20.3763  -52.3084 H         1 UNK         0.0600 
    232 H232       -3.5155  -20.2577  -50.3915 H         1 UNK         0.0600 
    233 H233       -2.9371  -21.9107  -50.5250 H         1 UNK         0.0600 
    234 H234       -4.5661  -21.4992  -51.0657 H         1 UNK         0.0600 
    235 H235       -4.3731  -21.1893  -54.5634 H         1 UNK         0.3000 
    236 H236       -5.8270  -18.6405  -54.5861 H         1 UNK         0.0600 
    237 H237       -5.6884  -20.9395  -56.6119 H         1 UNK         0.0600 
    238 H238       -6.9289  -20.7207  -55.3776 H         1 UNK         0.0600 
    239 H239       -6.7863  -19.5667  -56.6936 H         1 UNK         0.0600 
    240 H240       -2.8045  -19.9188  -55.8561 H         1 UNK         0.3000 
    241 H241       -1.2611  -19.2532  -57.2495 H         1 UNK         0.0600 
    242 H242       -3.7390  -19.1565  -60.1558 H         1 UNK         0.3800 
    243 H243       -3.9527  -19.8323  -58.5623 H         1 UNK         0.3800 
    244 H244       -2.1951  -16.4316  -56.5270 H         1 UNK         0.0800 
    245 H245       -0.7583  -16.7504  -57.4553 H         1 UNK         0.0800 
    246 H246       -1.5888  -15.7136  -54.0672 H         1 UNK         0.0800 
    247 H247       -2.5051  -17.1980  -54.0495 H         1 UNK         0.0800 
@<TRIPOS>BOND
     1    1    2 1    
     2    1  127 1    
     3    1  128 1    
     4    1  129 1    
     5    2    3 2    
     6    2    4 am   BACKBONE|DICT|INTERRES
     7    4    5 1    
     8    4  130 1    
     9    5    6 1    
    10    5   65 1    
    11    5  131 1    
    12    6    7 1    
    13    6  132 1    
    14    6  133 1    
    15    7    8 1    
    16    8    9 1    
    17    8  134 1    
    18    8  135 1    
    19    9   10 ar   
    20    9   14 ar   
    21   10   11 ar   
    22   10  136 1    
    23   11   12 ar   
    24   11  126 1    
    25   12   13 ar   
    26   12  137 1    
    27   13   14 ar   
    28   13   15 1    
    29   14  138 1    
    30   15   16 1    
    31   15  139 1    
    32   15  140 1    
    33   16   17 1    
    34   17   18 1    
    35   17  141 1    
    36   17  142 1    
    37   18   19 1    
    38   18   67 1    
    39   18  143 1    
    40   19   20 am   BACKBONE|DICT|INTERRES
    41   19  144 1    
    42   20   21 2    
    43   20   22 1    
    44   22   23 1    
    45   22   24 1    
    46   22  145 1    
    47   23  146 1    
    48   23  147 1    
    49   23  148 1    
    50   24   25 am   BACKBONE|DICT|INTERRES
    51   24  149 1    
    52   25   26 2    
    53   25   27 1    
    54   27   28 1    
    55   27   29 1    
    56   27  150 1    
    57   28  151 1    
    58   28  152 1    
    59   28  153 1    
    60   29   30 am   BACKBONE|DICT|INTERRES
    61   29  154 1    
    62   30   31 2    
    63   30   32 1    
    64   32   33 1    
    65   32   34 1    
    66   32  155 1    
    67   33  156 1    
    68   33  157 1    
    69   33  158 1    
    70   34   35 am   BACKBONE|DICT|INTERRES
    71   34  159 1    
    72   35   36 2    
    73   35   37 1    
    74   37   38 1    
    75   37   39 1    
    76   37  160 1    
    77   38  161 1    
    78   38  162 1    
    79   38  163 1    
    80   39   40 am   BACKBONE|DICT|INTERRES
    81   39  164 1    
    82   40   41 2    
    83   40   42 1    
    84   42   43 1    
    85   42   44 1    
    86   42  165 1    
    87   43  166 1    
    88   43  167 1    
    89   43  168 1    
    90   44   45 am   BACKBONE|DICT|INTERRES
    91   44  169 1    
    92   45   46 2    
    93   45   47 1    
    94   47   48 1    
    95   47   49 1    
    96   47  170 1    
    97   48  171 1    
    98   48  172 1    
    99   48  173 1    
   100   49   50 am   BACKBONE|DICT|INTERRES
   101   49  174 1    
   102   50   51 2    
   103   50   52 1    
   104   52   53 1    
   105   52   54 1    
   106   52  175 1    
   107   53  176 1    
   108   53  177 1    
   109   53  178 1    
   110   54   55 am   BACKBONE|DICT|INTERRES
   111   54  179 1    
   112   55   56 2    
   113   55   57 1    
   114   57   58 1    
   115   57   59 1    
   116   57  180 1    
   117   58  181 1    
   118   58  182 1    
   119   58  183 1    
   120   59   60 am   BACKBONE|DICT|INTERRES
   121   59  184 1    
   122   60   61 2    
   123   60   62 1    
   124   62   63 1    
   125   62   64 1    
   126   62  185 1    
   127   63  186 1    
   128   63  187 1    
   129   63  188 1    
   130   64   65 am   BACKBONE|DICT|INTERRES
   131   64  189 1    
   132   65   66 2    
   133   67   68 2    
   134   67   69 am   BACKBONE|DICT|INTERRES
   135   69   70 1    
   136   69  190 1    
   137   70   71 1    
   138   70   72 1    
   139   70  191 1    
   140   71  192 1    
   141   71  193 1    
   142   71  194 1    
   143   72   73 2    
   144   72   74 am   BACKBONE|DICT|INTERRES
   145   74   75 1    
   146   74  195 1    
   147   75   76 1    
   148   75   77 1    
   149   75  196 1    
   150   76  197 1    
   151   76  198 1    
   152   76  199 1    
   153   77   78 2    
   154   77   79 am   BACKBONE|DICT|INTERRES
   155   79   80 1    
   156   79  200 1    
   157   80   81 1    
   158   80   82 1    
   159   80  201 1    
   160   81  202 1    
   161   81  203 1    
   162   81  204 1    
   163   82   83 2    
   164   82   84 am   BACKBONE|DICT|INTERRES
   165   84   85 1    
   166   84  205 1    
   167   85   86 1    
   168   85   87 1    
   169   85  206 1    
   170   86  207 1    
   171   86  208 1    
   172   86  209 1    
   173   87   88 2    
   174   87   89 am   BACKBONE|DICT|INTERRES
   175   89   90 1    
   176   89  210 1    
   177   90   91 1    
   178   90   92 1    
   179   90  211 1    
   180   91  212 1    
   181   91  213 1    
   182   91  214 1    
   183   92   93 2    
   184   92   94 am   BACKBONE|DICT|INTERRES
   185   94   95 1    
   186   94  215 1    
   187   95   96 1    
   188   95   97 1    
   189   95  216 1    
   190   96  217 1    
   191   96  218 1    
   192   96  219 1    
   193   97   98 2    
   194   97   99 am   BACKBONE|DICT|INTERRES
   195   99  100 1    
   196   99  220 1    
   197  100  101 1    
   198  100  102 1    
   199  100  221 1    
   200  101  222 1    
   201  101  223 1    
   202  101  224 1    
   203  102  103 2    
   204  102  104 am   BACKBONE|DICT|INTERRES
   205  104  105 1    
   206  104  225 1    
   207  105  106 1    
   208  105  107 1    
   209  105  226 1    
   210  106  227 1    
   211  106  228 1    
   212  106  229 1    
   213  107  108 2    
   214  107  109 am   BACKBONE|DICT|INTERRES
   215  109  110 1    
   216  109  230 1    
   217  110  111 1    
   218  110  112 1    
   219  110  231 1    
   220  111  232 1    
   221  111  233 1    
   222  111  234 1    
   223  112  113 2    
   224  112  114 am   BACKBONE|DICT|INTERRES
   225  114  115 1    
   226  114  235 1    
   227  115  116 1    
   228  115  117 1    
   229  115  236 1    
   230  116  237 1    
   231  116  238 1    
   232  116  239 1    
   233  117  118 2    
   234  117  119 am   BACKBONE|DICT|INTERRES
   235  119  120 1    
   236  119  240 1    
   237  120  121 1    
   238  120  124 1    
   239  120  241 1    
   240  121  122 am   BACKBONE|DICT|INTERRES
   241  121  123 2    
   242  122  242 1    
   243  122  243 1    
   244  124  125 1    
   245  124  244 1    
   246  124  245 1    
   247  125  126 1    
   248  126  246 1    
   249  126  247 1    
@<TRIPOS>SUBSTRUCTURE
     1 UNK         1 GROUP             0       ****    0 ROOT    
