@<TRIPOS>MOLECULE
3R540
247   249    1
SMALL
USER_CHARGES


@<TRIPOS>ATOM
      1 CA         -0.7830   -9.4542  -48.8019 C.3       0 UNK        -0.1800 
      2 C           0.1521  -10.6341  -48.5821 C.2       0 UNK         0.5000 
      3 O           0.5387  -10.9059  -47.4466 O.2       0 UNK        -0.5000 
      4 N           0.5058  -11.3495  -49.6574 N.am      1 UNK        -0.5000 
      5 CA          1.3987  -12.5164  -49.6370 C.3       1 UNK         0.1400 
      6 C6          1.7737  -12.9471  -51.0763 C.3       23 UNK        -0.0398 
      7 S7          3.3370  -13.8814  -51.1529 S.3       23 UNK        -0.2404 
      8 C8          2.8655  -15.2989  -52.1953 C.3       23 UNK        -0.0205 
      9 C9          1.8746  -16.2313  -51.5122 C.ar      23 UNK        -0.0193 
     10 C10         0.6122  -16.4581  -52.0710 C.ar      23 UNK        -0.1150 
     11 C11        -0.2746  -17.3613  -51.4764 C.ar      23 UNK        -0.0193 
     12 C12         0.0962  -18.0157  -50.2992 C.ar      23 UNK        -0.1150 
     13 C13         1.3498  -17.7886  -49.7282 C.ar      23 UNK        -0.0193 
     14 C14         2.2370  -16.9012  -50.3404 C.ar      23 UNK        -0.1150 
     15 C15         1.7467  -18.5167  -48.4592 C.3       23 UNK        -0.0205 
     16 S16         2.5617  -20.0975  -48.8467 S.3       23 UNK        -0.2404 
     17 C17         2.5033  -20.8973  -47.2069 C.3       23 UNK        -0.0398 
     18 CA          1.4976  -22.0705  -47.0350 C.3       11 UNK         0.1400 
     19 N           1.4058  -22.4538  -45.6227 N.am      11 UNK        -0.5000 
     20 C           0.8097  -23.5534  -45.1420 C.2       10 UNK         0.5000 
     21 O           0.1146  -24.3058  -45.8215 O.2       10 UNK        -0.5000 
     22 CA          1.0298  -23.8654  -43.6523 C.3       10 UNK         0.1400 
     23 CB          2.4785  -24.3111  -43.3973 C.3       10 UNK        -0.1800 
     24 N           0.7361  -22.6903  -42.8378 N.am      10 UNK        -0.5000 
     25 C          -0.3235  -22.5669  -42.0268 C.2       9 UNK         0.5000 
     26 O          -1.0839  -23.4934  -41.7450 O.2       9 UNK        -0.5000 
     27 CA         -0.6094  -21.1618  -41.4515 C.3       9 UNK         0.1400 
     28 CB         -0.0323  -21.0377  -40.0333 C.3       9 UNK        -0.1800 
     29 N          -0.1016  -20.0562  -42.2706 N.am      9 UNK        -0.5000 
     30 C          -0.3815  -19.8588  -43.5669 C.2       8 UNK         0.5000 
     31 O          -1.1557  -20.5606  -44.2175 O.2       8 UNK        -0.5000 
     32 CA          0.3979  -18.7533  -44.2973 C.3       8 UNK         0.1400 
     33 CB         -0.4083  -17.4519  -44.3334 C.3       8 UNK        -0.1800 
     34 N           1.7340  -18.4907  -43.7608 N.am      8 UNK        -0.5000 
     35 C           2.7337  -19.3780  -43.6473 C.2       7 UNK         0.5000 
     36 O           2.6164  -20.5789  -43.8986 O.2       7 UNK        -0.5000 
     37 CA          4.0851  -18.8281  -43.1716 C.3       7 UNK         0.1400 
     38 CB          4.7924  -18.0863  -44.3168 C.3       7 UNK        -0.1800 
     39 N           3.8980  -17.9169  -42.0455 N.am      7 UNK        -0.5000 
     40 C           4.0186  -18.2671  -40.7588 C.2       6 UNK         0.5000 
     41 O           4.3967  -19.3772  -40.3821 O.2       6 UNK        -0.5000 
     42 CA          3.6403  -17.2045  -39.7074 C.3       6 UNK         0.1400 
     43 CB          4.8781  -16.3944  -39.2931 C.3       6 UNK        -0.1800 
     44 N           2.5898  -16.2810  -40.1434 N.am      6 UNK        -0.5000 
     45 C           1.3345  -16.6355  -40.4501 C.2       5 UNK         0.5000 
     46 O           0.9206  -17.7951  -40.4266 O.2       5 UNK        -0.5000 
     47 CA          0.3866  -15.5053  -40.8912 C.3       5 UNK         0.1400 
     48 CB         -0.1733  -14.7725  -39.6626 C.3       5 UNK        -0.1800 
     49 N           0.9407  -14.5143  -41.8236 N.am      5 UNK        -0.5000 
     50 C           1.7138  -14.7200  -42.8997 C.2       4 UNK         0.5000 
     51 O           2.2202  -15.8044  -43.1912 O.2       4 UNK        -0.5000 
     52 CA          1.9080  -13.5074  -43.8327 C.3       4 UNK         0.1400 
     53 CB          3.0783  -13.7071  -44.8120 C.3       4 UNK        -0.1800 
     54 N           0.6944  -13.2442  -44.6071 N.am      4 UNK        -0.5000 
     55 C          -0.4396  -12.7076  -44.1326 C.2       3 UNK         0.5000 
     56 O          -0.5616  -12.3097  -42.9724 O.2       3 UNK        -0.5000 
     57 CA         -1.6398  -12.5953  -45.0944 C.3       3 UNK         0.1400 
     58 CB         -2.0775  -11.1308  -45.2640 C.3       3 UNK        -0.1800 
     59 N          -1.3659  -13.1732  -46.4135 N.am      3 UNK        -0.5000 
     60 C          -1.6183  -14.4460  -46.7535 C.2       2 UNK         0.5000 
     61 O          -2.1317  -15.2573  -45.9847 O.2       2 UNK        -0.5000 
     62 CA         -1.2589  -14.9011  -48.1842 C.3       2 UNK         0.1400 
     63 CB         -2.5300  -15.2523  -48.9723 C.3       2 UNK        -0.1800 
     64 N          -0.4991  -13.9057  -48.9420 N.am      2 UNK        -0.5000 
     65 C           0.8153  -13.6828  -48.8056 C.2       1 UNK         0.5000 
     66 O           1.5313  -14.3002  -48.0168 O.2       1 UNK        -0.5000 
     67 C           0.1192  -21.8202  -47.6894 C.2       11 UNK         0.5000 
     68 O          -0.1634  -22.3899  -48.7445 O.2       11 UNK        -0.5000 
     69 N          -0.7215  -20.9902  -47.0560 N.am      12 UNK        -0.5000 
     70 CA         -2.0517  -20.6579  -47.5680 C.3       12 UNK         0.1400 
     71 CB         -2.5358  -19.3212  -46.9880 C.3       12 UNK        -0.1800 
     72 C          -3.0582  -21.7813  -47.2838 C.2       12 UNK         0.5000 
     73 O          -3.9538  -22.0017  -48.0984 O.2       12 UNK        -0.5000 
     74 N          -2.8709  -22.4963  -46.1650 N.am      13 UNK        -0.5000 
     75 CA         -3.6489  -23.6759  -45.7843 C.3       13 UNK         0.1400 
     76 CB         -3.2451  -24.1250  -44.3729 C.3       13 UNK        -0.1800 
     77 C          -3.5046  -24.8270  -46.7973 C.2       13 UNK         0.5000 
     78 O          -4.5134  -25.3973  -47.2137 O.2       13 UNK        -0.5000 
     79 N          -2.2648  -25.0987  -47.2322 N.am      14 UNK        -0.5000 
     80 CA         -1.9372  -26.0624  -48.2884 C.3       14 UNK         0.1400 
     81 CB         -0.4130  -26.2359  -48.3635 C.3       14 UNK        -0.1800 
     82 C          -2.5006  -25.6690  -49.6683 C.2       14 UNK         0.5000 
     83 O          -2.7902  -26.5480  -50.4798 O.2       14 UNK        -0.5000 
     84 N          -2.6863  -24.3614  -49.8896 N.am      15 UNK        -0.5000 
     85 CA         -3.3295  -23.7782  -51.0660 C.3       15 UNK         0.1400 
     86 CB         -2.6837  -22.4139  -51.3570 C.3       15 UNK        -0.1800 
     87 C          -4.8639  -23.6661  -50.9212 C.2       15 UNK         0.5000 
     88 O          -5.4827  -22.9257  -51.6862 O.2       15 UNK        -0.5000 
     89 N          -5.4517  -24.3802  -49.9481 N.am      16 UNK        -0.5000 
     90 CA         -6.8851  -24.4711  -49.6506 C.3       16 UNK         0.1400 
     91 CB         -7.6350  -25.1831  -50.7960 C.3       16 UNK        -0.1800 
     92 C          -7.5007  -23.1102  -49.2684 C.2       16 UNK         0.5000 
     93 O          -8.5532  -22.7355  -49.7864 O.2       16 UNK        -0.5000 
     94 N          -6.8063  -22.3988  -48.3694 N.am      17 UNK        -0.5000 
     95 CA         -7.0748  -21.0328  -47.9105 C.3       17 UNK         0.1400 
     96 CB         -8.4588  -20.9109  -47.2376 C.3       17 UNK        -0.1800 
     97 C          -6.8326  -20.0047  -49.0329 C.2       17 UNK         0.5000 
     98 O          -7.6622  -19.1223  -49.2601 O.2       17 UNK        -0.5000 
     99 N          -5.6791  -20.1521  -49.7040 N.am      18 UNK        -0.5000 
    100 CA        -5.1696  -19.3100  -50.7927 C.3       18 UNK         0.1400 
    101 CB        -4.8025  -17.9085  -50.2604 C.3       18 UNK        -0.1800 
    102 C         -6.0988  -19.2596  -52.0245 C.2       18 UNK         0.5000 
    103 O         -6.2575  -18.2050  -52.6429 O.2       18 UNK        -0.5000 
    104 N         -6.6834  -20.4077  -52.3863 N.am      19 UNK        -0.5000 
    105 CA        -7.6126  -20.5692  -53.5052 C.3       19 UNK         0.1400 
    106 CB        -8.5529  -21.7470  -53.1961 C.3       19 UNK        -0.1800 
    107 C         -6.8638  -20.7412  -54.8431 C.2       19 UNK         0.5000 
    108 O         -7.0600  -21.7382  -55.5387 O.2       19 UNK        -0.5000 
    109 N         -5.9765  -19.7849  -55.1555 N.am      20 UNK        -0.5000 
    110 CA        -5.1129  -19.6619  -56.3432 C.3       20 UNK         0.1400 
    111 CB        -5.9574  -19.5513  -57.6268 C.3       20 UNK        -0.1800 
    112 C         -4.0188  -20.7431  -56.4954 C.2       20 UNK         0.5000 
    113 O         -3.0442  -20.5145  -57.2142 O.2       20 UNK        -0.5000 
    114 N         -4.1628  -21.8782  -55.7999 N.am      21 UNK        -0.5000 
    115 CA        -3.2679  -23.0392  -55.8071 C.3       21 UNK         0.1400 
    116 CB        -3.9259  -24.1609  -54.9897 C.3       21 UNK        -0.1800 
    117 C         -1.8340  -22.7607  -55.3090 C.2       21 UNK         0.5000 
    118 O         -0.9435  -23.5757  -55.5534 O.2       21 UNK        -0.5000 
    119 N         -1.6283  -21.6153  -54.6476 N.am      22 UNK        -0.5000 
    120 CA        -0.3096  -21.0594  -54.3151 C.3       22 UNK         0.1400 
    121 C          0.5169  -20.5697  -55.5445 C.2       22 UNK         0.5000 
    122 N         -0.0795  -20.3661  -56.7150 N.am      22 UNK        -0.7600 
    123 O          1.7260  -20.3854  -55.4353 O.2       22 UNK        -0.5000 
    124 C124       -0.4137  -19.9627  -53.2248 C.3       23 UNK        -0.0398 
    125 S125       -1.4752  -18.5477  -53.6949 S.3       23 UNK        -0.2404 
    126 C126       -1.6243  -17.6572  -52.1133 C.3       23 UNK        -0.0205 
    127 H127       -1.7045   -9.5965  -48.2374 H         1 UNK         0.0600 
    128 H128       -1.0428   -9.3325  -49.8536 H         1 UNK         0.0600 
    129 H129       -0.3110   -8.5336  -48.4589 H         1 UNK         0.0600 
    130 H130        0.1547  -11.0764  -50.5645 H         1 UNK         0.3000 
    131 H131        2.3119  -12.1916  -49.1331 H         1 UNK         0.0600 
    132 H132        0.9621  -13.5072  -51.5437 H         1 UNK         0.0800 
    133 H133        1.9192  -12.0651  -51.7016 H         1 UNK         0.0800 
    134 H134        2.4680  -14.9304  -53.1423 H         1 UNK         0.0800 
    135 H135        3.7642  -15.8656  -52.4423 H         1 UNK         0.0800 
    136 H136        0.3273  -15.9580  -52.9860 H         1 UNK         0.1150 
    137 H137       -0.5815  -18.7180  -49.8347 H         1 UNK         0.1150 
    138 H138        3.2129  -16.7331  -49.9069 H         1 UNK         0.1150 
    139 H139        2.4150  -17.8963  -47.8594 H         1 UNK         0.0800 
    140 H140        0.8589  -18.6923  -47.8506 H         1 UNK         0.0800 
    141 H141        2.3013  -20.1230  -46.4696 H         1 UNK         0.0800 
    142 H142        3.5089  -21.2525  -46.9778 H         1 UNK         0.0800 
    143 H143        1.9233  -22.9287  -47.5596 H         1 UNK         0.0600 
    144 H144        1.9377  -21.8743  -44.9778 H         1 UNK         0.3000 
    145 H145        0.3713  -24.6958  -43.3892 H         1 UNK         0.0600 
    146 H146        2.6194  -24.6030  -42.3566 H         1 UNK         0.0600 
    147 H147        2.7369  -25.1725  -44.0145 H         1 UNK         0.0600 
    148 H148        3.1941  -23.5185  -43.6199 H         1 UNK         0.0600 
    149 H149        1.3040  -21.8690  -43.0128 H         1 UNK         0.3000 
    150 H150       -1.6940  -21.0524  -41.3928 H         1 UNK         0.0600 
    151 H151       -0.3794  -21.8508  -39.3942 H         1 UNK         0.0600 
    152 H152       -0.3407  -20.1039  -39.5631 H         1 UNK         0.0600 
    153 H153        1.0581  -21.0653  -40.0405 H         1 UNK         0.0600 
    154 H154        0.5209  -19.4037  -41.8069 H         1 UNK         0.3000 
    155 H155        0.5305  -19.0812  -45.3279 H         1 UNK         0.0600 
    156 H156       -0.5609  -17.0486  -43.3353 H         1 UNK         0.0600 
    157 H157        0.0935  -16.6913  -44.9321 H         1 UNK         0.0600 
    158 H158       -1.3937  -17.6110  -44.7714 H         1 UNK         0.0600 
    159 H159        1.9300  -17.5184  -43.5292 H         1 UNK         0.3000 
    160 H160        4.7108  -19.6743  -42.8800 H         1 UNK         0.0600 
    161 H161        4.2224  -17.2192  -44.6540 H         1 UNK         0.0600 
    162 H162        4.9348  -18.7411  -45.1776 H         1 UNK         0.0600 
    163 H163        5.7774  -17.7370  -44.0073 H         1 UNK         0.0600 
    164 H164        3.5225  -17.0004  -42.2658 H         1 UNK         0.3000 
    165 H165        3.2693  -17.7349  -38.8279 H         1 UNK         0.0600 
    166 H166        4.6445  -15.7019  -38.4842 H         1 UNK         0.0600 
    167 H167        5.6738  -17.0505  -38.9378 H         1 UNK         0.0600 
    168 H168        5.2773  -15.8160  -40.1273 H         1 UNK         0.0600 
    169 H169        2.8421  -15.3064  -40.2162 H         1 UNK         0.3000 
    170 H170       -0.4578  -15.9747  -41.3952 H         1 UNK         0.0600 
    171 H171        0.6045  -14.2180  -39.1361 H         1 UNK         0.0600 
    172 H172       -0.9541  -14.0665  -39.9464 H         1 UNK         0.0600 
    173 H173       -0.6148  -15.4743  -38.9535 H         1 UNK         0.0600 
    174 H174        0.5352  -13.5878  -41.7492 H         1 UNK         0.3000 
    175 H175        2.1314  -12.6362  -43.2135 H         1 UNK         0.0600 
    176 H176        3.2340  -12.8196  -45.4257 H         1 UNK         0.0600 
    177 H177        2.9043  -14.5489  -45.4841 H         1 UNK         0.0600 
    178 H178        4.0084  -13.9009  -44.2763 H         1 UNK         0.0600 
    179 H179        0.7083  -13.5474  -45.5707 H         1 UNK         0.3000 
    180 H180       -2.4701  -13.1313  -44.6299 H         1 UNK         0.0600 
    181 H181       -1.2634  -10.5001  -45.6195 H         1 UNK         0.0600 
    182 H182       -2.4158  -10.7148  -44.3142 H         1 UNK         0.0600 
    183 H183       -2.9051  -11.0429  -45.9680 H         1 UNK         0.0600 
    184 H184       -0.8969  -12.5686  -47.0755 H         1 UNK         0.3000 
    185 H185       -0.6567  -15.8080  -48.0937 H         1 UNK         0.0600 
    186 H186       -3.1132  -16.0125  -48.4519 H         1 UNK         0.0600 
    187 H187       -3.1734  -14.3824  -49.1087 H         1 UNK         0.0600 
    188 H188       -2.2863  -15.6487  -49.9574 H         1 UNK         0.0600 
    189 H189       -1.0237  -13.3317  -49.5859 H         1 UNK         0.3000 
    190 H190       -0.5059  -20.6730  -46.1197 H         1 UNK         0.3000 
    191 H191       -1.9875  -20.5356  -48.6509 H         1 UNK         0.0600 
    192 H192       -1.8294  -18.5172  -47.1962 H         1 UNK         0.0600 
    193 H193       -3.4924  -19.0351  -47.4257 H         1 UNK         0.0600 
    194 H194       -2.6850  -19.3724  -45.9103 H         1 UNK         0.0600 
    195 H195       -2.1259  -22.2182  -45.5399 H         1 UNK         0.3000 
    196 H196       -4.7011  -23.3849  -45.7594 H         1 UNK         0.0600 
    197 H197       -3.8392  -24.9810  -44.0506 H         1 UNK         0.0600 
    198 H198       -3.4016  -23.3281  -43.6455 H         1 UNK         0.0600 
    199 H199       -2.1961  -24.4176  -44.3242 H         1 UNK         0.0600 
    200 H200       -1.4756  -24.6201  -46.8042 H         1 UNK         0.3000 
    201 H201       -2.3785  -27.0228  -48.0145 H         1 UNK         0.0600 
    202 H202       -0.0123  -26.6080  -47.4206 H         1 UNK         0.0600 
    203 H203        0.0866  -25.2932  -48.5910 H         1 UNK         0.0600 
    204 H204       -0.1365  -26.9517  -49.1387 H         1 UNK         0.0600 
    205 H205       -2.4169  -23.7131  -49.1625 H         1 UNK         0.3000 
    206 H206       -3.1403  -24.4229  -51.9257 H         1 UNK         0.0600 
    207 H207       -1.6100  -22.5195  -51.5120 H         1 UNK         0.0600 
    208 H208       -3.0996  -21.9616  -52.2574 H         1 UNK         0.0600 
    209 H209       -2.8352  -21.7130  -50.5383 H         1 UNK         0.0600 
    210 H210       -4.8542  -24.9072  -49.3233 H         1 UNK         0.3000 
    211 H211       -6.9727  -25.1008  -48.7640 H         1 UNK         0.0600 
    212 H212       -7.6126  -24.6046  -51.7191 H         1 UNK         0.0600 
    213 H213       -8.6819  -25.3447  -50.5369 H         1 UNK         0.0600 
    214 H214       -7.1984  -26.1600  -51.0035 H         1 UNK         0.0600 
    215 H215       -5.9063  -22.7664  -48.0832 H         1 UNK         0.3000 
    216 H216       -6.3282  -20.8216  -47.1436 H         1 UNK         0.0600 
    217 H217       -8.5744  -19.9341  -46.7669 H         1 UNK         0.0600 
    218 H218       -8.5865  -21.6632  -46.4593 H         1 UNK         0.0600 
    219 H219       -9.2750  -21.0231  -47.9514 H         1 UNK         0.0600 
    220 H220       -5.0803  -20.9194  -49.4183 H         1 UNK         0.3000 
    221 H221       -4.2489  -19.7796  -51.1396 H         1 UNK         0.0600 
    222 H222       -5.6688  -17.3869  -49.8536 H         1 UNK         0.0600 
    223 H223       -4.0512  -17.9754  -49.4754 H         1 UNK         0.0600 
    224 H224       -4.3906  -17.2769  -51.0476 H         1 UNK         0.0600 
    225 H225       -6.4245  -21.2626  -51.9000 H         1 UNK         0.3000 
    226 H226       -8.2280  -19.6715  -53.5928 H         1 UNK         0.0600 
    227 H227       -9.0985  -21.5809  -52.2671 H         1 UNK         0.0600 
    228 H228       -9.2921  -21.8794  -53.9869 H         1 UNK         0.0600 
    229 H229       -8.0022  -22.6827  -53.0974 H         1 UNK         0.0600 
    230 H230       -5.8865  -19.0312  -54.4813 H         1 UNK         0.3000 
    231 H231       -4.5817  -18.7170  -56.2188 H         1 UNK         0.0600 
    232 H232       -6.4985  -20.4736  -57.8396 H         1 UNK         0.0600 
    233 H233       -5.3266  -19.3392  -58.4910 H         1 UNK         0.0600 
    234 H234       -6.6857  -18.7437  -57.5517 H         1 UNK         0.0600 
    235 H235       -5.0365  -21.9926  -55.3009 H         1 UNK         0.3000 
    236 H236       -3.1798  -23.3781  -56.8411 H         1 UNK         0.0600 
    237 H237       -4.8624  -24.4812  -55.4468 H         1 UNK         0.0600 
    238 H238       -3.2807  -25.0380  -54.9228 H         1 UNK         0.0600 
    239 H239       -4.1490  -23.8334  -53.9755 H         1 UNK         0.0600 
    240 H240       -2.4122  -20.9950  -54.5140 H         1 UNK         0.3000 
    241 H241        0.2724  -21.8750  -53.8816 H         1 UNK         0.0600 
    242 H242       -1.0816  -20.4861  -56.8211 H         1 UNK         0.3800 
    243 H243        0.4686  -20.0552  -57.5009 H         1 UNK         0.3800 
    244 H244       -0.8068  -20.3952  -52.3051 H         1 UNK         0.0800 
    245 H245        0.5801  -19.5895  -52.9705 H         1 UNK         0.0800 
    246 H246       -2.1614  -16.7225  -52.2789 H         1 UNK         0.0800 
    247 H247       -2.2365  -18.2549  -51.4388 H         1 UNK         0.0800 
@<TRIPOS>BOND
     1    1    2 1    
     2    1  127 1    
     3    1  128 1    
     4    1  129 1    
     5    2    3 2    
     6    2    4 am   BACKBONE|DICT|INTERRES
     7    4    5 1    
     8    4  130 1    
     9    5    6 1    
    10    5   65 1    
    11    5  131 1    
    12    6    7 1    
    13    6  132 1    
    14    6  133 1    
    15    7    8 1    
    16    8    9 1    
    17    8  134 1    
    18    8  135 1    
    19    9   10 ar   
    20    9   14 ar   
    21   10   11 ar   
    22   10  136 1    
    23   11   12 ar   
    24   11  126 1    
    25   12   13 ar   
    26   12  137 1    
    27   13   14 ar   
    28   13   15 1    
    29   14  138 1    
    30   15   16 1    
    31   15  139 1    
    32   15  140 1    
    33   16   17 1    
    34   17   18 1    
    35   17  141 1    
    36   17  142 1    
    37   18   19 1    
    38   18   67 1    
    39   18  143 1    
    40   19   20 am   BACKBONE|DICT|INTERRES
    41   19  144 1    
    42   20   21 2    
    43   20   22 1    
    44   22   23 1    
    45   22   24 1    
    46   22  145 1    
    47   23  146 1    
    48   23  147 1    
    49   23  148 1    
    50   24   25 am   BACKBONE|DICT|INTERRES
    51   24  149 1    
    52   25   26 2    
    53   25   27 1    
    54   27   28 1    
    55   27   29 1    
    56   27  150 1    
    57   28  151 1    
    58   28  152 1    
    59   28  153 1    
    60   29   30 am   BACKBONE|DICT|INTERRES
    61   29  154 1    
    62   30   31 2    
    63   30   32 1    
    64   32   33 1    
    65   32   34 1    
    66   32  155 1    
    67   33  156 1    
    68   33  157 1    
    69   33  158 1    
    70   34   35 am   BACKBONE|DICT|INTERRES
    71   34  159 1    
    72   35   36 2    
    73   35   37 1    
    74   37   38 1    
    75   37   39 1    
    76   37  160 1    
    77   38  161 1    
    78   38  162 1    
    79   38  163 1    
    80   39   40 am   BACKBONE|DICT|INTERRES
    81   39  164 1    
    82   40   41 2    
    83   40   42 1    
    84   42   43 1    
    85   42   44 1    
    86   42  165 1    
    87   43  166 1    
    88   43  167 1    
    89   43  168 1    
    90   44   45 am   BACKBONE|DICT|INTERRES
    91   44  169 1    
    92   45   46 2    
    93   45   47 1    
    94   47   48 1    
    95   47   49 1    
    96   47  170 1    
    97   48  171 1    
    98   48  172 1    
    99   48  173 1    
   100   49   50 am   BACKBONE|DICT|INTERRES
   101   49  174 1    
   102   50   51 2    
   103   50   52 1    
   104   52   53 1    
   105   52   54 1    
   106   52  175 1    
   107   53  176 1    
   108   53  177 1    
   109   53  178 1    
   110   54   55 am   BACKBONE|DICT|INTERRES
   111   54  179 1    
   112   55   56 2    
   113   55   57 1    
   114   57   58 1    
   115   57   59 1    
   116   57  180 1    
   117   58  181 1    
   118   58  182 1    
   119   58  183 1    
   120   59   60 am   BACKBONE|DICT|INTERRES
   121   59  184 1    
   122   60   61 2    
   123   60   62 1    
   124   62   63 1    
   125   62   64 1    
   126   62  185 1    
   127   63  186 1    
   128   63  187 1    
   129   63  188 1    
   130   64   65 am   BACKBONE|DICT|INTERRES
   131   64  189 1    
   132   65   66 2    
   133   67   68 2    
   134   67   69 am   BACKBONE|DICT|INTERRES
   135   69   70 1    
   136   69  190 1    
   137   70   71 1    
   138   70   72 1    
   139   70  191 1    
   140   71  192 1    
   141   71  193 1    
   142   71  194 1    
   143   72   73 2    
   144   72   74 am   BACKBONE|DICT|INTERRES
   145   74   75 1    
   146   74  195 1    
   147   75   76 1    
   148   75   77 1    
   149   75  196 1    
   150   76  197 1    
   151   76  198 1    
   152   76  199 1    
   153   77   78 2    
   154   77   79 am   BACKBONE|DICT|INTERRES
   155   79   80 1    
   156   79  200 1    
   157   80   81 1    
   158   80   82 1    
   159   80  201 1    
   160   81  202 1    
   161   81  203 1    
   162   81  204 1    
   163   82   83 2    
   164   82   84 am   BACKBONE|DICT|INTERRES
   165   84   85 1    
   166   84  205 1    
   167   85   86 1    
   168   85   87 1    
   169   85  206 1    
   170   86  207 1    
   171   86  208 1    
   172   86  209 1    
   173   87   88 2    
   174   87   89 am   BACKBONE|DICT|INTERRES
   175   89   90 1    
   176   89  210 1    
   177   90   91 1    
   178   90   92 1    
   179   90  211 1    
   180   91  212 1    
   181   91  213 1    
   182   91  214 1    
   183   92   93 2    
   184   92   94 am   BACKBONE|DICT|INTERRES
   185   94   95 1    
   186   94  215 1    
   187   95   96 1    
   188   95   97 1    
   189   95  216 1    
   190   96  217 1    
   191   96  218 1    
   192   96  219 1    
   193   97   98 2    
   194   97   99 am   BACKBONE|DICT|INTERRES
   195   99  100 1    
   196   99  220 1    
   197  100  101 1    
   198  100  102 1    
   199  100  221 1    
   200  101  222 1    
   201  101  223 1    
   202  101  224 1    
   203  102  103 2    
   204  102  104 am   BACKBONE|DICT|INTERRES
   205  104  105 1    
   206  104  225 1    
   207  105  106 1    
   208  105  107 1    
   209  105  226 1    
   210  106  227 1    
   211  106  228 1    
   212  106  229 1    
   213  107  108 2    
   214  107  109 am   BACKBONE|DICT|INTERRES
   215  109  110 1    
   216  109  230 1    
   217  110  111 1    
   218  110  112 1    
   219  110  231 1    
   220  111  232 1    
   221  111  233 1    
   222  111  234 1    
   223  112  113 2    
   224  112  114 am   BACKBONE|DICT|INTERRES
   225  114  115 1    
   226  114  235 1    
   227  115  116 1    
   228  115  117 1    
   229  115  236 1    
   230  116  237 1    
   231  116  238 1    
   232  116  239 1    
   233  117  118 2    
   234  117  119 am   BACKBONE|DICT|INTERRES
   235  119  120 1    
   236  119  240 1    
   237  120  121 1    
   238  120  124 1    
   239  120  241 1    
   240  121  122 am   BACKBONE|DICT|INTERRES
   241  121  123 2    
   242  122  242 1    
   243  122  243 1    
   244  124  125 1    
   245  124  244 1    
   246  124  245 1    
   247  125  126 1    
   248  126  246 1    
   249  126  247 1    
@<TRIPOS>SUBSTRUCTURE
     1 UNK         1 GROUP             0       ****    0 ROOT    
