@<TRIPOS>MOLECULE
3R540
247   249    1
SMALL
USER_CHARGES


@<TRIPOS>ATOM
      1 CA          1.9350   -8.9459  -46.0987 C.3       0 UNK        -0.1800 
      2 C           1.8401   -9.6046  -47.4681 C.2       0 UNK         0.5000 
      3 O           1.0334   -9.1855  -48.2987 O.2       0 UNK        -0.5000 
      4 N           2.6558  -10.6344  -47.6997 N.am      1 UNK        -0.5000 
      5 CA          2.6778  -11.4511  -48.9134 C.3       1 UNK         0.1400 
      6 C6          1.5093  -12.4832  -48.9938 C.3       23 UNK        -0.0398 
      7 S7          1.0063  -13.2491  -47.4058 S.3       23 UNK        -0.2404 
      8 C8          1.7833  -14.8990  -47.4189 C.3       23 UNK        -0.0205 
      9 C9          1.3172  -15.8777  -48.4976 C.ar      23 UNK        -0.0193 
     10 C10         0.2035  -15.6459  -49.3154 C.ar      23 UNK        -0.1150 
     11 C11        -0.1908  -16.5858  -50.2713 C.ar      23 UNK        -0.0193 
     12 C12         0.5282  -17.7752  -50.4075 C.ar      23 UNK        -0.1150 
     13 C13         1.6354  -18.0266  -49.5934 C.ar      23 UNK        -0.0193 
     14 C14         2.0227  -17.0754  -48.6457 C.ar      23 UNK        -0.1150 
     15 C15         2.4209  -19.3208  -49.7385 C.3       23 UNK        -0.0205 
     16 S16         2.1139  -20.4622  -48.3550 S.3       23 UNK        -0.2404 
     17 C17         0.3726  -20.9160  -48.6471 C.3       23 UNK        -0.0398 
     18 CA         -0.0560  -22.1215  -47.7791 C.3       11 UNK         0.1400 
     19 N          -0.1205  -21.7998  -46.3505 N.am      11 UNK        -0.5000 
     20 C          -0.2925  -22.7003  -45.3726 C.2       10 UNK         0.5000 
     21 O          -0.3598  -23.9135  -45.5658 O.2       10 UNK        -0.5000 
     22 CA         -0.4816  -22.1544  -43.9460 C.3       10 UNK         0.1400 
     23 CB          0.8653  -21.7897  -43.3037 C.3       10 UNK        -0.1800 
     24 N          -1.3833  -21.0021  -43.9151 N.am      10 UNK        -0.5000 
     25 C          -2.6919  -21.0646  -44.2025 C.2       9 UNK         0.5000 
     26 O          -3.2829  -22.1107  -44.4680 O.2       9 UNK        -0.5000 
     27 CA         -3.4612  -19.7327  -44.2431 C.3       9 UNK         0.1400 
     28 CB         -3.9443  -19.3370  -42.8403 C.3       9 UNK        -0.1800 
     29 N          -2.6614  -18.6479  -44.8097 N.am      9 UNK        -0.5000 
     30 C          -2.2790  -18.5793  -46.0936 C.2       8 UNK         0.5000 
     31 O          -2.5957  -19.4071  -46.9473 O.2       8 UNK        -0.5000 
     32 CA         -1.3311  -17.4238  -46.4617 C.3       8 UNK         0.1400 
     33 CB         -2.1266  -16.1363  -46.7224 C.3       8 UNK        -0.1800 
     34 N          -0.3302  -17.1802  -45.4195 N.am      8 UNK        -0.5000 
     35 C           0.6040  -18.0723  -45.0552 C.2       7 UNK         0.5000 
     36 O           0.7282  -19.1717  -45.5892 O.2       7 UNK        -0.5000 
     37 CA          1.5154  -17.7225  -43.8647 C.3       7 UNK         0.1400 
     38 CB          2.9153  -17.3062  -44.3398 C.3       7 UNK        -0.1800 
     39 N           0.9513  -16.6915  -42.9924 N.am      7 UNK        -0.5000 
     40 C          -0.0927  -16.8986  -42.1740 C.2       6 UNK         0.5000 
     41 O          -0.6668  -17.9841  -42.0768 O.2       6 UNK        -0.5000 
     42 CA         -0.6054  -15.7003  -41.3482 C.3       6 UNK         0.1400 
     43 CB          0.0068  -15.7215  -39.9397 C.3       6 UNK        -0.1800 
     44 N          -0.3345  -14.4001  -41.9635 N.am      6 UNK        -0.5000 
     45 C          -0.8341  -13.9836  -43.1353 C.2       5 UNK         0.5000 
     46 O          -1.6399  -14.6358  -43.7978 O.2       5 UNK        -0.5000 
     47 CA         -0.3106  -12.6396  -43.6838 C.3       5 UNK         0.1400 
     48 CB         -1.2870  -11.5031  -43.3471 C.3       5 UNK        -0.1800 
     49 N           1.0343  -12.2675  -43.2242 N.am      5 UNK        -0.5000 
     50 C           2.1396  -13.0050  -43.3948 C.2       4 UNK         0.5000 
     51 O           2.1358  -14.1380  -43.8815 O.2       4 UNK        -0.5000 
     52 CA          3.4605  -12.3981  -42.8834 C.3       4 UNK         0.1400 
     53 CB          3.6268  -12.6772  -41.3816 C.3       4 UNK        -0.1800 
     54 N           4.6106  -12.9558  -43.5957 N.am      4 UNK        -0.5000 
     55 C           4.8635  -12.7453  -44.8926 C.2       3 UNK         0.5000 
     56 O           4.2494  -11.9195  -45.5770 O.2       3 UNK        -0.5000 
     57 CA          5.9472  -13.6185  -45.5532 C.3       3 UNK         0.1400 
     58 CB          6.1866  -14.9718  -44.8522 C.3       3 UNK        -0.1800 
     59 N           5.5130  -13.8364  -46.9232 N.am      3 UNK        -0.5000 
     60 C           6.2745  -14.0542  -47.9981 C.2       2 UNK         0.5000 
     61 O           7.4895  -14.2496  -47.9543 O.2       2 UNK        -0.5000 
     62 CA          5.5450  -14.0249  -49.3607 C.3       2 UNK         0.1400 
     63 CB          5.3146  -15.4539  -49.8763 C.3       2 UNK        -0.1800 
     64 N           4.2533  -13.3235  -49.3155 N.am      2 UNK        -0.5000 
     65 C           4.1042  -12.0117  -49.0766 C.2       1 UNK         0.5000 
     66 O           5.0607  -11.2405  -48.9690 O.2       1 UNK        -0.5000 
     67 C          -1.3757  -22.7334  -48.2884 C.2       11 UNK         0.5000 
     68 O          -1.3285  -23.7284  -49.0096 O.2       11 UNK        -0.5000 
     69 N          -2.5232  -22.1751  -47.8744 N.am      12 UNK        -0.5000 
     70 CA         -3.8524  -22.7132  -48.1746 C.3       12 UNK         0.1400 
     71 CB         -4.9352  -21.7384  -47.6916 C.3       12 UNK        -0.1800 
     72 C          -4.0700  -24.1191  -47.5863 C.2       12 UNK         0.5000 
     73 O          -4.5685  -24.9985  -48.2880 O.2       12 UNK        -0.5000 
     74 N          -3.6531  -24.3262  -46.3288 N.am      13 UNK        -0.5000 
     75 CA         -3.6864  -25.6225  -45.6492 C.3       13 UNK         0.1400 
     76 CB         -3.3124  -25.4472  -44.1701 C.3       13 UNK        -0.1800 
     77 C          -2.7859  -26.6715  -46.3275 C.2       13 UNK         0.5000 
     78 O          -3.2331  -27.7970  -46.5509 O.2       13 UNK        -0.5000 
     79 N          -1.5589  -26.2737  -46.6947 N.am      14 UNK        -0.5000 
     80 CA         -0.6000  -27.0949  -47.4409 C.3       14 UNK         0.1400 
     81 CB          0.7485  -26.3642  -47.5203 C.3       14 UNK        -0.1800 
     82 C          -1.0961  -27.4748  -48.8500 C.2       14 UNK         0.5000 
     83 O          -0.8173  -28.5795  -49.3166 O.2       14 UNK        -0.5000 
     84 N          -1.8628  -26.5742  -49.4778 N.am      15 UNK        -0.5000 
     85 CA         -2.5438  -26.7735  -50.7572 C.3       15 UNK         0.1400 
     86 CB         -2.7461  -25.4036  -51.4267 C.3       15 UNK        -0.1800 
     87 C          -3.8778  -27.5457  -50.6331 C.2       15 UNK         0.5000 
     88 O          -4.6103  -27.6276  -51.6188 O.2       15 UNK        -0.5000 
     89 N          -4.1776  -28.0964  -49.4462 N.am      16 UNK        -0.5000 
     90 CA         -5.3511  -28.9088  -49.1086 C.3       16 UNK         0.1400 
     91 CB         -5.3679  -30.2241  -49.9164 C.3       16 UNK        -0.1800 
     92 C          -6.6735  -28.1201  -49.1923 C.2       16 UNK         0.5000 
     93 O          -7.6641  -28.6191  -49.7291 O.2       16 UNK        -0.5000 
     94 N          -6.6519  -26.8973  -48.6445 N.am      17 UNK        -0.5000 
     95 CA         -7.7492  -25.9278  -48.5526 C.3       17 UNK         0.1400 
     96 CB         -8.9723  -26.5106  -47.8131 C.3       17 UNK        -0.1800 
     97 C          -8.1108  -25.2660  -49.8977 C.2       17 UNK         0.5000 
     98 O          -9.1881  -24.6792  -50.0187 O.2       17 UNK        -0.5000 
     99 N          -7.1951  -25.3306  -50.8729 N.am      18 UNK        -0.5000 
    100 CA        -7.2476  -24.5512  -52.1084 C.3       18 UNK         0.1400 
    101 CB        -6.3606  -25.2285  -53.1636 C.3       18 UNK        -0.1800 
    102 C         -6.8007  -23.0962  -51.8614 C.2       18 UNK         0.5000 
    103 O         -6.2739  -22.7767  -50.7930 O.2       18 UNK        -0.5000 
    104 N         -7.0092  -22.2374  -52.8674 N.am      19 UNK        -0.5000 
    105 CA        -6.7160  -20.8020  -52.8122 C.3       19 UNK         0.1400 
    106 CB        -7.3151  -20.1216  -54.0531 C.3       19 UNK        -0.1800 
    107 C         -5.2200  -20.4525  -52.6870 C.2       19 UNK         0.5000 
    108 O         -4.9076  -19.3551  -52.2302 O.2       19 UNK        -0.5000 
    109 N         -4.3299  -21.3602  -53.1223 N.am      20 UNK        -0.5000 
    110 CA        -2.8618  -21.2542  -53.0707 C.3       20 UNK         0.1400 
    111 CB        -2.3663  -21.3880  -51.6170 C.3       20 UNK        -0.1800 
    112 C         -2.2962  -19.9998  -53.7769 C.2       20 UNK         0.5000 
    113 O         -1.2640  -19.4682  -53.3658 O.2       20 UNK        -0.5000 
    114 N         -3.0060  -19.5503  -54.8230 N.am      21 UNK        -0.5000 
    115 CA        -2.7744  -18.3393  -55.6186 C.3       21 UNK         0.1400 
    116 CB        -1.4096  -18.3970  -56.3374 C.3       21 UNK        -0.1800 
    117 C         -2.9813  -17.0145  -54.8482 C.2       21 UNK         0.5000 
    118 O         -2.5962  -15.9603  -55.3580 O.2       21 UNK        -0.5000 
    119 N         -3.5980  -17.0654  -53.6595 N.am      22 UNK        -0.5000 
    120 CA        -3.9834  -15.8843  -52.8749 C.3       22 UNK         0.1400 
    121 C         -5.2095  -15.1502  -53.4875 C.2       22 UNK         0.5000 
    122 N         -5.2975  -13.8368  -53.3241 N.am      22 UNK        -0.7600 
    123 O         -6.1007  -15.7595  -54.0759 O.2       22 UNK        -0.5000 
    124 C124       -4.2555  -16.2386  -51.3881 C.3       23 UNK        -0.0398 
    125 S125       -2.8990  -17.0629  -50.4739 S.3       23 UNK        -0.2404 
    126 C126       -1.3921  -16.3088  -51.1579 C.3       23 UNK        -0.0205 
    127 H127        2.6887   -9.4243  -45.4721 H         1 UNK         0.0600 
    128 H128        0.9762   -9.0116  -45.5843 H         1 UNK         0.0600 
    129 H129        2.1973   -7.8932  -46.2041 H         1 UNK         0.0600 
    130 H130        3.3045  -10.9369  -46.9763 H         1 UNK         0.3000 
    131 H131        2.5639  -10.7774  -49.7654 H         1 UNK         0.0600 
    132 H132        0.6251  -11.9497  -49.3451 H         1 UNK         0.0800 
    133 H133        1.6791  -13.2433  -49.7563 H         1 UNK         0.0800 
    134 H134        2.8653  -14.7893  -47.4568 H         1 UNK         0.0800 
    135 H135        1.5627  -15.3487  -46.4524 H         1 UNK         0.0800 
    136 H136       -0.3758  -14.7408  -49.2108 H         1 UNK         0.1150 
    137 H137        0.2186  -18.5047  -51.1435 H         1 UNK         0.1150 
    138 H138        2.8725  -17.2797  -48.0093 H         1 UNK         0.1150 
    139 H139        2.1847  -19.8168  -50.6813 H         1 UNK         0.0800 
    140 H140        3.4864  -19.0897  -49.7743 H         1 UNK         0.0800 
    141 H141        0.2661  -21.1483  -49.7079 H         1 UNK         0.0800 
    142 H142       -0.2630  -20.0504  -48.4519 H         1 UNK         0.0800 
    143 H143        0.7043  -22.8971  -47.8945 H         1 UNK         0.0600 
    144 H144        0.0029  -20.8208  -46.1021 H         1 UNK         0.3000 
    145 H145       -0.9342  -22.9456  -43.3446 H         1 UNK         0.0600 
    146 H146        0.7304  -21.3975  -42.2955 H         1 UNK         0.0600 
    147 H147        1.5060  -22.6690  -43.2280 H         1 UNK         0.0600 
    148 H148        1.4075  -21.0448  -43.8850 H         1 UNK         0.0600 
    149 H149       -0.9724  -20.1005  -43.7198 H         1 UNK         0.3000 
    150 H150       -4.3389  -19.8726  -44.8774 H         1 UNK         0.0600 
    151 H151       -4.5777  -20.1158  -42.4136 H         1 UNK         0.0600 
    152 H152       -4.5325  -18.4196  -42.8693 H         1 UNK         0.0600 
    153 H153       -3.1113  -19.1805  -42.1543 H         1 UNK         0.0600 
    154 H154       -2.3255  -17.9451  -44.1666 H         1 UNK         0.3000 
    155 H155       -0.8048  -17.6982  -47.3781 H         1 UNK         0.0600 
    156 H156       -2.7456  -15.8626  -45.8679 H         1 UNK         0.0600 
    157 H157       -1.4666  -15.2966  -46.9386 H         1 UNK         0.0600 
    158 H158       -2.7911  -16.2585  -47.5776 H         1 UNK         0.0600 
    159 H159       -0.4040  -16.3089  -44.9114 H         1 UNK         0.3000 
    160 H160        1.6308  -18.6327  -43.2727 H         1 UNK         0.0600 
    161 H161        2.8902  -16.4042  -44.9480 H         1 UNK         0.0600 
    162 H162        3.3704  -18.0921  -44.9440 H         1 UNK         0.0600 
    163 H163        3.5782  -17.1202  -43.4947 H         1 UNK         0.0600 
    164 H164        1.3493  -15.7607  -43.0778 H         1 UNK         0.3000 
    165 H165       -1.6880  -15.8076  -41.2542 H         1 UNK         0.0600 
    166 H166       -0.4098  -14.9305  -39.3158 H         1 UNK         0.0600 
    167 H167       -0.1969  -16.6693  -39.4393 H         1 UNK         0.0600 
    168 H168        1.0895  -15.5920  -39.9699 H         1 UNK         0.0600 
    169 H169        0.3271  -13.8030  -41.4904 H         1 UNK         0.3000 
    170 H170       -0.2674  -12.7364  -44.7696 H         1 UNK         0.0600 
    171 H171       -2.2935  -11.7354  -43.6982 H         1 UNK         0.0600 
    172 H172       -1.3459  -11.3289  -42.2721 H         1 UNK         0.0600 
    173 H173       -0.9864  -10.5701  -43.8245 H         1 UNK         0.0600 
    174 H174        1.1185  -11.3595  -42.7905 H         1 UNK         0.3000 
    175 H175        3.4397  -11.3184  -43.0461 H         1 UNK         0.0600 
    176 H176        3.6454  -13.7474  -41.1704 H         1 UNK         0.0600 
    177 H177        4.5516  -12.2439  -41.0001 H         1 UNK         0.0600 
    178 H178        2.8068  -12.2438  -40.8076 H         1 UNK         0.0600 
    179 H179        5.1276  -13.6767  -43.1152 H         1 UNK         0.3000 
    180 H180        6.8746  -13.0426  -45.5569 H         1 UNK         0.0600 
    181 H181        5.2642  -15.5462  -44.7644 H         1 UNK         0.0600 
    182 H182        6.5957  -14.8357  -43.8508 H         1 UNK         0.0600 
    183 H183        6.9023  -15.5802  -45.4054 H         1 UNK         0.0600 
    184 H184        4.5438  -13.5979  -47.0782 H         1 UNK         0.3000 
    185 H185        6.1910  -13.5026  -50.0695 H         1 UNK         0.0600 
    186 H186        6.2605  -15.9860  -49.9850 H         1 UNK         0.0600 
    187 H187        4.6922  -16.0321  -49.1934 H         1 UNK         0.0600 
    188 H188        4.8305  -15.4512  -50.8531 H         1 UNK         0.0600 
    189 H189        3.4321  -13.8987  -49.4287 H         1 UNK         0.3000 
    190 H190       -2.4903  -21.3174  -47.3308 H         1 UNK         0.3000 
    191 H191       -3.9420  -22.7977  -49.2584 H         1 UNK         0.0600 
    192 H192       -4.8971  -21.5915  -46.6127 H         1 UNK         0.0600 
    193 H193       -5.9300  -22.1108  -47.9397 H         1 UNK         0.0600 
    194 H194       -4.8261  -20.7640  -48.1685 H         1 UNK         0.0600 
    195 H195       -3.2976  -23.5399  -45.7924 H         1 UNK         0.3000 
    196 H196       -4.7132  -25.9914  -45.6940 H         1 UNK         0.0600 
    197 H197       -3.3524  -26.4003  -43.6414 H         1 UNK         0.0600 
    198 H198       -4.0014  -24.7677  -43.6683 H         1 UNK         0.0600 
    199 H199       -2.3052  -25.0477  -44.0516 H         1 UNK         0.0600 
    200 H200       -1.2487  -25.3405  -46.4338 H         1 UNK         0.3000 
    201 H201       -0.4527  -28.0214  -46.8824 H         1 UNK         0.0600 
    202 H202        1.1429  -26.1550  -46.5258 H         1 UNK         0.0600 
    203 H203        0.6609  -25.4163  -48.0515 H         1 UNK         0.0600 
    204 H204        1.4904  -26.9678  -48.0446 H         1 UNK         0.0600 
    205 H205       -1.9859  -25.6634  -49.0470 H         1 UNK         0.3000 
    206 H206       -1.8939  -27.3653  -51.4046 H         1 UNK         0.0600 
    207 H207       -1.8130  -24.8418  -51.4692 H         1 UNK         0.0600 
    208 H208       -3.0901  -25.5197  -52.4540 H         1 UNK         0.0600 
    209 H209       -3.4791  -24.7975  -50.8927 H         1 UNK         0.0600 
    210 H210       -3.5381  -27.9351  -48.6772 H         1 UNK         0.3000 
    211 H211       -5.2334  -29.1794  -48.0584 H         1 UNK         0.0600 
    212 H212       -5.5427  -30.0490  -50.9783 H         1 UNK         0.0600 
    213 H213       -6.1573  -30.8881  -49.5624 H         1 UNK         0.0600 
    214 H214       -4.4245  -30.7605  -49.8152 H         1 UNK         0.0600 
    215 H215       -5.7565  -26.5341  -48.3283 H         1 UNK         0.3000 
    216 H216       -7.3621  -25.1181  -47.9325 H         1 UNK         0.0600 
    217 H217       -9.6949  -25.7281  -47.5790 H         1 UNK         0.0600 
    218 H218       -8.6808  -26.9726  -46.8699 H         1 UNK         0.0600 
    219 H219       -9.4913  -27.2603  -48.4104 H         1 UNK         0.0600 
    220 H220       -6.3287  -25.8121  -50.6793 H         1 UNK         0.3000 
    221 H221       -8.2756  -24.5381  -52.4766 H         1 UNK         0.0600 
    222 H222       -5.3102  -25.1978  -52.8804 H         1 UNK         0.0600 
    223 H223       -6.6385  -26.2738  -53.3011 H         1 UNK         0.0600 
    224 H224       -6.4532  -24.7397  -54.1338 H         1 UNK         0.0600 
    225 H225       -7.4410  -22.5734  -53.7164 H         1 UNK         0.3000 
    226 H226       -7.2135  -20.3955  -51.9290 H         1 UNK         0.0600 
    227 H227       -8.3943  -20.2681  -54.1017 H         1 UNK         0.0600 
    228 H228       -7.1367  -19.0451  -54.0345 H         1 UNK         0.0600 
    229 H229       -6.8805  -20.5099  -54.9750 H         1 UNK         0.0600 
    230 H230       -4.6947  -22.2214  -53.5024 H         1 UNK         0.3000 
    231 H231       -2.4741  -22.1086  -53.6271 H         1 UNK         0.0600 
    232 H232       -1.2777  -21.4209  -51.5738 H         1 UNK         0.0600 
    233 H233       -2.7308  -22.3103  -51.1678 H         1 UNK         0.0600 
    234 H234       -2.6965  -20.5548  -50.9952 H         1 UNK         0.0600 
    235 H235       -3.8411  -20.0659  -55.0616 H         1 UNK         0.3000 
    236 H236       -3.5446  -18.3476  -56.3910 H         1 UNK         0.0600 
    237 H237       -1.3176  -17.5925  -57.0678 H         1 UNK         0.0600 
    238 H238       -0.5780  -18.2968  -55.6396 H         1 UNK         0.0600 
    239 H239       -1.2859  -19.3364  -56.8761 H         1 UNK         0.0600 
    240 H240       -3.9062  -17.9579  -53.2877 H         1 UNK         0.3000 
    241 H241       -3.1514  -15.1802  -52.9115 H         1 UNK         0.0600 
    242 H242       -6.0945  -13.3502  -53.7049 H         1 UNK         0.3800 
    243 H243       -4.5845  -13.3111  -52.8422 H         1 UNK         0.3800 
    244 H244       -4.5015  -15.3318  -50.8331 H         1 UNK         0.0800 
    245 H245       -5.1369  -16.8770  -51.3105 H         1 UNK         0.0800 
    246 H246       -1.5316  -15.2316  -51.2562 H         1 UNK         0.0800 
    247 H247       -1.2087  -16.6986  -52.1603 H         1 UNK         0.0800 
@<TRIPOS>BOND
     1    1    2 1    
     2    1  127 1    
     3    1  128 1    
     4    1  129 1    
     5    2    3 2    
     6    2    4 am   BACKBONE|DICT|INTERRES
     7    4    5 1    
     8    4  130 1    
     9    5    6 1    
    10    5   65 1    
    11    5  131 1    
    12    6    7 1    
    13    6  132 1    
    14    6  133 1    
    15    7    8 1    
    16    8    9 1    
    17    8  134 1    
    18    8  135 1    
    19    9   10 ar   
    20    9   14 ar   
    21   10   11 ar   
    22   10  136 1    
    23   11   12 ar   
    24   11  126 1    
    25   12   13 ar   
    26   12  137 1    
    27   13   14 ar   
    28   13   15 1    
    29   14  138 1    
    30   15   16 1    
    31   15  139 1    
    32   15  140 1    
    33   16   17 1    
    34   17   18 1    
    35   17  141 1    
    36   17  142 1    
    37   18   19 1    
    38   18   67 1    
    39   18  143 1    
    40   19   20 am   BACKBONE|DICT|INTERRES
    41   19  144 1    
    42   20   21 2    
    43   20   22 1    
    44   22   23 1    
    45   22   24 1    
    46   22  145 1    
    47   23  146 1    
    48   23  147 1    
    49   23  148 1    
    50   24   25 am   BACKBONE|DICT|INTERRES
    51   24  149 1    
    52   25   26 2    
    53   25   27 1    
    54   27   28 1    
    55   27   29 1    
    56   27  150 1    
    57   28  151 1    
    58   28  152 1    
    59   28  153 1    
    60   29   30 am   BACKBONE|DICT|INTERRES
    61   29  154 1    
    62   30   31 2    
    63   30   32 1    
    64   32   33 1    
    65   32   34 1    
    66   32  155 1    
    67   33  156 1    
    68   33  157 1    
    69   33  158 1    
    70   34   35 am   BACKBONE|DICT|INTERRES
    71   34  159 1    
    72   35   36 2    
    73   35   37 1    
    74   37   38 1    
    75   37   39 1    
    76   37  160 1    
    77   38  161 1    
    78   38  162 1    
    79   38  163 1    
    80   39   40 am   BACKBONE|DICT|INTERRES
    81   39  164 1    
    82   40   41 2    
    83   40   42 1    
    84   42   43 1    
    85   42   44 1    
    86   42  165 1    
    87   43  166 1    
    88   43  167 1    
    89   43  168 1    
    90   44   45 am   BACKBONE|DICT|INTERRES
    91   44  169 1    
    92   45   46 2    
    93   45   47 1    
    94   47   48 1    
    95   47   49 1    
    96   47  170 1    
    97   48  171 1    
    98   48  172 1    
    99   48  173 1    
   100   49   50 am   BACKBONE|DICT|INTERRES
   101   49  174 1    
   102   50   51 2    
   103   50   52 1    
   104   52   53 1    
   105   52   54 1    
   106   52  175 1    
   107   53  176 1    
   108   53  177 1    
   109   53  178 1    
   110   54   55 am   BACKBONE|DICT|INTERRES
   111   54  179 1    
   112   55   56 2    
   113   55   57 1    
   114   57   58 1    
   115   57   59 1    
   116   57  180 1    
   117   58  181 1    
   118   58  182 1    
   119   58  183 1    
   120   59   60 am   BACKBONE|DICT|INTERRES
   121   59  184 1    
   122   60   61 2    
   123   60   62 1    
   124   62   63 1    
   125   62   64 1    
   126   62  185 1    
   127   63  186 1    
   128   63  187 1    
   129   63  188 1    
   130   64   65 am   BACKBONE|DICT|INTERRES
   131   64  189 1    
   132   65   66 2    
   133   67   68 2    
   134   67   69 am   BACKBONE|DICT|INTERRES
   135   69   70 1    
   136   69  190 1    
   137   70   71 1    
   138   70   72 1    
   139   70  191 1    
   140   71  192 1    
   141   71  193 1    
   142   71  194 1    
   143   72   73 2    
   144   72   74 am   BACKBONE|DICT|INTERRES
   145   74   75 1    
   146   74  195 1    
   147   75   76 1    
   148   75   77 1    
   149   75  196 1    
   150   76  197 1    
   151   76  198 1    
   152   76  199 1    
   153   77   78 2    
   154   77   79 am   BACKBONE|DICT|INTERRES
   155   79   80 1    
   156   79  200 1    
   157   80   81 1    
   158   80   82 1    
   159   80  201 1    
   160   81  202 1    
   161   81  203 1    
   162   81  204 1    
   163   82   83 2    
   164   82   84 am   BACKBONE|DICT|INTERRES
   165   84   85 1    
   166   84  205 1    
   167   85   86 1    
   168   85   87 1    
   169   85  206 1    
   170   86  207 1    
   171   86  208 1    
   172   86  209 1    
   173   87   88 2    
   174   87   89 am   BACKBONE|DICT|INTERRES
   175   89   90 1    
   176   89  210 1    
   177   90   91 1    
   178   90   92 1    
   179   90  211 1    
   180   91  212 1    
   181   91  213 1    
   182   91  214 1    
   183   92   93 2    
   184   92   94 am   BACKBONE|DICT|INTERRES
   185   94   95 1    
   186   94  215 1    
   187   95   96 1    
   188   95   97 1    
   189   95  216 1    
   190   96  217 1    
   191   96  218 1    
   192   96  219 1    
   193   97   98 2    
   194   97   99 am   BACKBONE|DICT|INTERRES
   195   99  100 1    
   196   99  220 1    
   197  100  101 1    
   198  100  102 1    
   199  100  221 1    
   200  101  222 1    
   201  101  223 1    
   202  101  224 1    
   203  102  103 2    
   204  102  104 am   BACKBONE|DICT|INTERRES
   205  104  105 1    
   206  104  225 1    
   207  105  106 1    
   208  105  107 1    
   209  105  226 1    
   210  106  227 1    
   211  106  228 1    
   212  106  229 1    
   213  107  108 2    
   214  107  109 am   BACKBONE|DICT|INTERRES
   215  109  110 1    
   216  109  230 1    
   217  110  111 1    
   218  110  112 1    
   219  110  231 1    
   220  111  232 1    
   221  111  233 1    
   222  111  234 1    
   223  112  113 2    
   224  112  114 am   BACKBONE|DICT|INTERRES
   225  114  115 1    
   226  114  235 1    
   227  115  116 1    
   228  115  117 1    
   229  115  236 1    
   230  116  237 1    
   231  116  238 1    
   232  116  239 1    
   233  117  118 2    
   234  117  119 am   BACKBONE|DICT|INTERRES
   235  119  120 1    
   236  119  240 1    
   237  120  121 1    
   238  120  124 1    
   239  120  241 1    
   240  121  122 am   BACKBONE|DICT|INTERRES
   241  121  123 2    
   242  122  242 1    
   243  122  243 1    
   244  124  125 1    
   245  124  244 1    
   246  124  245 1    
   247  125  126 1    
   248  126  246 1    
   249  126  247 1    
@<TRIPOS>SUBSTRUCTURE
     1 UNK         1 GROUP             0       ****    0 ROOT    
