@<TRIPOS>MOLECULE
3R540
247   249    1
SMALL
USER_CHARGES


@<TRIPOS>ATOM
      1 CA         -0.3311  -10.0826  -50.2199 C.3       0 UNK        -0.1800 
      2 C           0.3428  -11.2899  -49.5837 C.2       0 UNK         0.5000 
      3 O           0.5219  -12.3128  -50.2462 O.2       0 UNK        -0.5000 
      4 N           0.7191  -11.1769  -48.3041 N.am      1 UNK        -0.5000 
      5 CA          1.3838  -12.2224  -47.5209 C.3       1 UNK         0.1400 
      6 C6          1.1810  -12.0293  -45.9972 C.3       23 UNK        -0.0398 
      7 S7         -0.5703  -12.0520  -45.4895 S.3       23 UNK        -0.2404 
      8 C8         -0.7681  -13.7594  -44.8880 C.3       23 UNK        -0.0205 
      9 C9         -0.8684  -14.7543  -46.0325 C.ar      23 UNK        -0.0193 
     10 C10        -2.1045  -14.9925  -46.6408 C.ar      23 UNK        -0.1150 
     11 C11        -2.2092  -15.8851  -47.7108 C.ar      23 UNK        -0.0193 
     12 C12        -1.0598  -16.5176  -48.1870 C.ar      23 UNK        -0.1150 
     13 C13         0.1731  -16.3295  -47.5547 C.ar      23 UNK        -0.0193 
     14 C14         0.2636  -15.4470  -46.4745 C.ar      23 UNK        -0.1150 
     15 C15         1.3951  -17.1040  -48.0284 C.3       23 UNK        -0.0205 
     16 S16         1.6151  -18.6625  -47.1050 S.3       23 UNK        -0.2404 
     17 C17         0.0043  -19.4638  -47.4029 C.3       23 UNK        -0.0398 
     18 CA         -0.0034  -20.9969  -47.2297 C.3       11 UNK         0.1400 
     19 N           0.3455  -21.4360  -45.8777 N.am      11 UNK        -0.5000 
     20 C           0.4713  -22.7171  -45.5002 C.2       10 UNK         0.5000 
     21 O           0.3791  -23.6741  -46.2699 O.2       10 UNK        -0.5000 
     22 CA          0.6726  -22.9747  -43.9988 C.3       10 UNK         0.1400 
     23 CB          2.1469  -22.8082  -43.6000 C.3       10 UNK        -0.1800 
     24 N          -0.1661  -22.0929  -43.1875 N.am      10 UNK        -0.5000 
     25 C          -1.4965  -22.2095  -43.0762 C.2       9 UNK         0.5000 
     26 O          -2.1519  -23.1000  -43.6178 O.2       9 UNK        -0.5000 
     27 CA         -2.2192  -21.1325  -42.2460 C.3       9 UNK         0.1400 
     28 CB         -2.1560  -21.4691  -40.7488 C.3       9 UNK        -0.1800 
     29 N          -1.6844  -19.7873  -42.4630 N.am      9 UNK        -0.5000 
     30 C          -1.7848  -19.1146  -43.6179 C.2       8 UNK         0.5000 
     31 O          -2.3387  -19.5600  -44.6208 O.2       8 UNK        -0.5000 
     32 CA         -1.1242  -17.7252  -43.6751 C.3       8 UNK         0.1400 
     33 CB         -2.0453  -16.6866  -43.0183 C.3       8 UNK        -0.1800 
     34 N           0.2028  -17.6387  -43.0562 N.am      8 UNK        -0.5000 
     35 C           1.2327  -18.4796  -43.2364 C.2       7 UNK         0.5000 
     36 O           1.1573  -19.5246  -43.8801 O.2       7 UNK        -0.5000 
     37 CA          2.5821  -18.1078  -42.5953 C.3       7 UNK         0.1400 
     38 CB          3.6421  -17.8745  -43.6830 C.3       7 UNK        -0.1800 
     39 N           2.5148  -16.9321  -41.7226 N.am      7 UNK        -0.5000 
     40 C           2.0655  -16.9526  -40.4588 C.2       6 UNK         0.5000 
     41 O           1.6219  -17.9658  -39.9177 O.2       6 UNK        -0.5000 
     42 CA          2.1231  -15.6387  -39.6530 C.3       6 UNK         0.1400 
     43 CB          3.2337  -15.7115  -38.5932 C.3       6 UNK        -0.1800 
     44 N           2.3478  -14.4520  -40.4793 N.am      6 UNK        -0.5000 
     45 C           1.4111  -13.8360  -41.2126 C.2       5 UNK         0.5000 
     46 O           0.2388  -14.2047  -41.2781 O.2       5 UNK        -0.5000 
     47 CA          1.8861  -12.6263  -42.0432 C.3       5 UNK         0.1400 
     48 CB          1.8314  -11.3398  -41.2064 C.3       5 UNK        -0.1800 
     49 N           3.2391  -12.7957  -42.5871 N.am      5 UNK        -0.5000 
     50 C           3.5859  -13.7570  -43.4516 C.2       4 UNK         0.5000 
     51 O           2.7936  -14.5970  -43.8873 O.2       4 UNK        -0.5000 
     52 CA          5.0600  -13.8240  -43.8681 C.3       4 UNK         0.1400 
     53 CB          5.8933  -14.5039  -42.7634 C.3       4 UNK        -0.1800 
     54 N           5.1217  -14.5819  -45.1123 N.am      4 UNK        -0.5000 
     55 C           6.1821  -14.7514  -45.9077 C.2       3 UNK         0.5000 
     56 O           7.3026  -14.2972  -45.6735 O.2       3 UNK        -0.5000 
     57 CA          5.9271  -15.5368  -47.2067 C.3       3 UNK         0.1400 
     58 CB          5.2638  -16.9007  -46.9432 C.3       3 UNK        -0.1800 
     59 N           5.0961  -14.7545  -48.1215 N.am      3 UNK        -0.5000 
     60 C           5.5444  -13.7300  -48.8601 C.2       2 UNK         0.5000 
     61 O           6.7275  -13.3923  -48.9183 O.2       2 UNK        -0.5000 
     62 CA          4.4992  -12.9452  -49.6771 C.3       2 UNK         0.1400 
     63 CB          4.3649  -13.5385  -51.0878 C.3       2 UNK        -0.1800 
     64 N           3.1698  -12.8757  -49.0639 N.am      2 UNK        -0.5000 
     65 C           2.8803  -12.2951  -47.8921 C.2       1 UNK         0.5000 
     66 O           3.7271  -11.7991  -47.1471 O.2       1 UNK        -0.5000 
     67 C          -1.3756  -21.5495  -47.6580 C.2       11 UNK         0.5000 
     68 O          -1.4731  -22.1344  -48.7336 O.2       11 UNK        -0.5000 
     69 N          -2.3958  -21.3878  -46.8024 N.am      12 UNK        -0.5000 
     70 CA         -3.7553  -21.8793  -47.0251 C.3       12 UNK         0.1400 
     71 CB         -4.6789  -21.3825  -45.9041 C.3       12 UNK        -0.1800 
     72 C          -3.8318  -23.4089  -47.1551 C.2       12 UNK         0.5000 
     73 O          -4.5529  -23.9005  -48.0220 O.2       12 UNK        -0.5000 
     74 N          -3.0664  -24.1317  -46.3250 N.am      13 UNK        -0.5000 
     75 CA         -2.9483  -25.5896  -46.3758 C.3       13 UNK         0.1400 
     76 CB         -2.1688  -26.0871  -45.1492 C.3       13 UNK        -0.1800 
     77 C          -2.2990  -26.0955  -47.6781 C.2       13 UNK         0.5000 
     78 O          -2.7503  -27.1017  -48.2262 O.2       13 UNK        -0.5000 
     79 N          -1.2655  -25.3875  -48.1541 N.am      14 UNK        -0.5000 
     80 CA         -0.5786  -25.6778  -49.4124 C.3       14 UNK         0.1400 
     81 CB          0.7690  -24.9397  -49.4377 C.3       14 UNK        -0.1800 
     82 C          -1.4262  -25.3122  -50.6454 C.2       14 UNK         0.5000 
     83 O          -1.4794  -26.0886  -51.5998 O.2       14 UNK        -0.5000 
     84 N          -2.0615  -24.1345  -50.6037 N.am      15 UNK        -0.5000 
     85 CA         -2.9003  -23.5872  -51.6665 C.3       15 UNK         0.1400 
     86 CB         -3.1857  -22.1123  -51.3622 C.3       15 UNK        -0.1800 
     87 C          -4.2142  -24.3618  -51.8539 C.2       15 UNK         0.5000 
     88 O          -4.5895  -24.6525  -52.9916 O.2       15 UNK        -0.5000 
     89 N          -4.8924  -24.6639  -50.7366 N.am      16 UNK        -0.5000 
     90 CA         -6.1452  -25.4201  -50.6236 C.3       16 UNK         0.1400 
     91 CB         -5.8824  -26.9072  -50.9373 C.3       16 UNK        -0.1800 
     92 C          -7.3178  -24.8438  -51.4504 C.2       16 UNK         0.5000 
     93 O          -8.2272  -25.5903  -51.8169 O.2       16 UNK        -0.5000 
     94 N          -7.2603  -23.5379  -51.7575 N.am      17 UNK        -0.5000 
     95 CA         -8.1299  -22.7926  -52.6740 C.3       17 UNK         0.1400 
     96 CB         -9.5434  -22.6443  -52.0745 C.3       17 UNK        -0.1800 
     97 C          -8.1456  -23.3558  -54.1168 C.2       17 UNK         0.5000 
     98 O          -9.1269  -23.1520  -54.8350 O.2       17 UNK        -0.5000 
     99 N          -7.0791  -24.0667  -54.5126 N.am      18 UNK        -0.5000 
    100 CA        -6.9769  -24.7899  -55.7788 C.3       18 UNK         0.1400 
    101 CB        -7.1043  -26.2988  -55.5103 C.3       18 UNK        -0.1800 
    102 C         -5.6647  -24.4676  -56.5065 C.2       18 UNK         0.5000 
    103 O         -5.7013  -24.0902  -57.6784 O.2       18 UNK        -0.5000 
    104 N         -4.5292  -24.6120  -55.8096 N.am      19 UNK        -0.5000 
    105 CA        -3.1941  -24.3207  -56.3411 C.3       19 UNK         0.1400 
    106 CB        -2.1525  -25.1441  -55.5681 C.3       19 UNK        -0.1800 
    107 C         -2.8589  -22.8177  -56.2911 C.2       19 UNK         0.5000 
    108 O         -2.0125  -22.3552  -57.0568 O.2       19 UNK        -0.5000 
    109 N         -3.5467  -22.0853  -55.4113 N.am      20 UNK        -0.5000 
    110 CA        -3.5420  -20.6354  -55.2795 C.3       20 UNK         0.1400 
    111 CB        -2.2910  -20.1632  -54.5156 C.3       20 UNK        -0.1800 
    112 C         -4.8491  -20.2327  -54.5785 C.2       20 UNK         0.5000 
    113 O         -5.6025  -21.1062  -54.1411 O.2       20 UNK        -0.5000 
    114 N         -5.1080  -18.9230  -54.4966 N.am      21 UNK        -0.5000 
    115 CA        -6.3555  -18.3578  -53.9738 C.3       21 UNK         0.1400 
    116 CB        -6.4345  -16.8785  -54.3837 C.3       21 UNK        -0.1800 
    117 C         -6.5459  -18.5014  -52.4496 C.2       21 UNK         0.5000 
    118 O         -7.6822  -18.4066  -51.9832 O.2       21 UNK        -0.5000 
    119 N         -5.4501  -18.6910  -51.7013 N.am      22 UNK        -0.5000 
    120 CA        -5.4634  -18.8456  -50.2376 C.3       22 UNK         0.1400 
    121 C         -6.1552  -20.1568  -49.7593 C.2       22 UNK         0.5000 
    122 N         -6.7625  -20.1507  -48.5811 N.am      22 UNK        -0.7600 
    123 O         -6.1183  -21.1870  -50.4262 O.2       22 UNK        -0.5000 
    124 C124       -4.0411  -18.6825  -49.6324 C.3       23 UNK        -0.0398 
    125 S125       -4.0931  -17.8944  -47.9833 S.3       23 UNK        -0.2404 
    126 C126       -3.5615  -16.1840  -48.3409 C.3       23 UNK        -0.0205 
    127 H127       -1.3290  -10.3503  -50.5670 H         1 UNK         0.0600 
    128 H128        0.2483   -9.7380  -51.0765 H         1 UNK         0.0600 
    129 H129       -0.4262   -9.2542  -49.5175 H         1 UNK         0.0600 
    130 H130        0.5522  -10.3091  -47.8152 H         1 UNK         0.3000 
    131 H131        0.9394  -13.1804  -47.7935 H         1 UNK         0.0600 
    132 H132        1.7127  -12.8044  -45.4487 H         1 UNK         0.0800 
    133 H133        1.6097  -11.0809  -45.6688 H         1 UNK         0.0800 
    134 H134        0.0486  -14.0308  -44.2188 H         1 UNK         0.0800 
    135 H135       -1.6785  -13.7993  -44.2892 H         1 UNK         0.0800 
    136 H136       -2.9850  -14.4810  -46.2782 H         1 UNK         0.1150 
    137 H137       -1.1401  -17.1944  -49.0251 H         1 UNK         0.1150 
    138 H138        1.2137  -15.2969  -45.9813 H         1 UNK         0.1150 
    139 H139        1.3139  -17.3244  -49.0939 H         1 UNK         0.0800 
    140 H140        2.2884  -16.4906  -47.9137 H         1 UNK         0.0800 
    141 H141       -0.2951  -19.2255  -48.4244 H         1 UNK         0.0800 
    142 H142       -0.7322  -18.9988  -46.7457 H         1 UNK         0.0800 
    143 H143        0.7436  -21.4161  -47.9071 H         1 UNK         0.0600 
    144 H144        0.4918  -20.7065  -45.1837 H         1 UNK         0.3000 
    145 H145        0.3827  -24.0075  -43.7938 H         1 UNK         0.0600 
    146 H146        2.2955  -23.0217  -42.5415 H         1 UNK         0.0600 
    147 H147        2.7797  -23.4958  -44.1625 H         1 UNK         0.0600 
    148 H148        2.5110  -21.7989  -43.7932 H         1 UNK         0.0600 
    149 H149        0.2830  -21.2721  -42.8045 H         1 UNK         0.3000 
    150 H150       -3.2683  -21.1310  -42.5495 H         1 UNK         0.0600 
    151 H151       -2.5634  -22.4623  -40.5548 H         1 UNK         0.0600 
    152 H152       -2.7382  -20.7597  -40.1603 H         1 UNK         0.0600 
    153 H153       -1.1315  -21.4552  -40.3746 H         1 UNK         0.0600 
    154 H154       -1.1934  -19.3561  -41.6935 H         1 UNK         0.3000 
    155 H155       -1.0003  -17.4626  -44.7271 H         1 UNK         0.0600 
    156 H156       -2.9879  -16.6038  -43.5608 H         1 UNK         0.0600 
    157 H157       -1.5866  -15.7001  -43.0036 H         1 UNK         0.0600 
    158 H158       -2.2790  -16.9499  -41.9860 H         1 UNK         0.0600 
    159 H159        0.3785  -16.8114  -42.5049 H         1 UNK         0.3000 
    160 H160        2.9011  -18.9662  -42.0003 H         1 UNK         0.0600 
    161 H161        3.3525  -17.0687  -44.3555 H         1 UNK         0.0600 
    162 H162        3.7781  -18.7681  -44.2937 H         1 UNK         0.0600 
    163 H163        4.6117  -17.6287  -43.2514 H         1 UNK         0.0600 
    164 H164        2.8043  -16.0529  -42.1295 H         1 UNK         0.3000 
    165 H165        1.1665  -15.5300  -39.1373 H         1 UNK         0.0600 
    166 H166        3.2454  -14.8160  -37.9716 H         1 UNK         0.0600 
    167 H167        3.0862  -16.5636  -37.9282 H         1 UNK         0.0600 
    168 H168        4.2189  -15.8179  -39.0492 H         1 UNK         0.0600 
    169 H169        3.2861  -14.0802  -40.4903 H         1 UNK         0.3000 
    170 H170        1.1991  -12.5077  -42.8818 H         1 UNK         0.0600 
    171 H171        0.8300  -11.1781  -40.8051 H         1 UNK         0.0600 
    172 H172        2.5216  -11.3767  -40.3627 H         1 UNK         0.0600 
    173 H173        2.0826  -10.4668  -41.8091 H         1 UNK         0.0600 
    174 H174        3.9394  -12.1412  -42.2685 H         1 UNK         0.3000 
    175 H175        5.4257  -12.8117  -44.0501 H         1 UNK         0.0600 
    176 H176        5.5567  -15.5234  -42.5751 H         1 UNK         0.0600 
    177 H177        6.9505  -14.5454  -43.0239 H         1 UNK         0.0600 
    178 H178        5.8207  -13.9564  -41.8231 H         1 UNK         0.0600 
    179 H179        4.2275  -14.9769  -45.3741 H         1 UNK         0.3000 
    180 H180        6.8944  -15.7257  -47.6776 H         1 UNK         0.0600 
    181 H181        4.2539  -16.7993  -46.5479 H         1 UNK         0.0600 
    182 H182        5.8407  -17.4835  -46.2240 H         1 UNK         0.0600 
    183 H183        5.2005  -17.4882  -47.8593 H         1 UNK         0.0600 
    184 H184        4.1080  -14.9528  -48.1344 H         1 UNK         0.3000 
    185 H185        4.8669  -11.9216  -49.7736 H         1 UNK         0.0600 
    186 H186        5.3326  -13.5788  -51.5897 H         1 UNK         0.0600 
    187 H187        3.9661  -14.5533  -51.0606 H         1 UNK         0.0600 
    188 H188        3.7032  -12.9342  -51.7088 H         1 UNK         0.0600 
    189 H189        2.3904  -13.1708  -49.6412 H         1 UNK         0.3000 
    190 H190       -2.2501  -20.8503  -45.9503 H         1 UNK         0.3000 
    191 H191       -4.1077  -21.4542  -47.9656 H         1 UNK         0.0600 
    192 H192       -4.7185  -20.2933  -45.8831 H         1 UNK         0.0600 
    193 H193       -4.3435  -21.7251  -44.9247 H         1 UNK         0.0600 
    194 H194       -5.6987  -21.7409  -46.0490 H         1 UNK         0.0600 
    195 H195       -2.5361  -23.6552  -45.6038 H         1 UNK         0.3000 
    196 H196       -3.9564  -26.0065  -46.3267 H         1 UNK         0.0600 
    197 H197       -2.0786  -27.1740  -45.1576 H         1 UNK         0.0600 
    198 H198       -2.6731  -25.8102  -44.2233 H         1 UNK         0.0600 
    199 H199       -1.1606  -25.6735  -45.1173 H         1 UNK         0.0600 
    200 H200       -0.9250  -24.5953  -47.6195 H         1 UNK         0.3000 
    201 H201       -0.3752  -26.7500  -49.4530 H         1 UNK         0.0600 
    202 H202        1.4037  -25.2520  -48.6082 H         1 UNK         0.0600 
    203 H203        0.6392  -23.8591  -49.3678 H         1 UNK         0.0600 
    204 H204        1.3118  -25.1477  -50.3605 H         1 UNK         0.0600 
    205 H205       -1.9136  -23.5302  -49.7974 H         1 UNK         0.3000 
    206 H206       -2.3419  -23.6349  -52.6021 H         1 UNK         0.0600 
    207 H207       -2.2688  -21.5236  -51.3652 H         1 UNK         0.0600 
    208 H208       -3.8656  -21.6789  -52.0950 H         1 UNK         0.0600 
    209 H209       -3.6453  -21.9971  -50.3814 H         1 UNK         0.0600 
    210 H210       -4.5265  -24.3355  -49.8457 H         1 UNK         0.3000 
    211 H211       -6.4487  -25.3486  -49.5784 H         1 UNK         0.0600 
    212 H212       -5.6297  -27.0578  -51.9875 H         1 UNK         0.0600 
    213 H213       -6.7590  -27.5180  -50.7190 H         1 UNK         0.0600 
    214 H214       -5.0603  -27.2960  -50.3357 H         1 UNK         0.0600 
    215 H215       -6.5097  -22.9841  -51.3558 H         1 UNK         0.3000 
    216 H216       -7.7039  -21.7915  -52.7430 H         1 UNK         0.0600 
    217 H217      -10.1531  -21.9652  -52.6714 H         1 UNK         0.0600 
    218 H218       -9.4999  -22.2345  -51.0654 H         1 UNK         0.0600 
    219 H219      -10.0664  -23.5998  -52.0283 H         1 UNK         0.0600 
    220 H220       -6.3013  -24.1679  -53.8684 H         1 UNK         0.3000 
    221 H221       -7.7881  -24.4995  -56.4494 H         1 UNK         0.0600 
    222 H222       -6.3401  -26.6524  -54.8168 H         1 UNK         0.0600 
    223 H223       -8.0771  -26.5380  -55.0801 H         1 UNK         0.0600 
    224 H224       -7.0055  -26.8718  -56.4330 H         1 UNK         0.0600 
    225 H225       -4.5740  -24.8789  -54.8290 H         1 UNK         0.3000 
    226 H226       -3.1529  -24.6298  -57.3877 H         1 UNK         0.0600 
    227 H227       -2.3391  -26.2126  -55.6762 H         1 UNK         0.0600 
    228 H228       -1.1456  -24.9511  -55.9404 H         1 UNK         0.0600 
    229 H229       -2.1592  -24.9127  -54.5040 H         1 UNK         0.0600 
    230 H230       -4.2702  -22.5337  -54.8617 H         1 UNK         0.3000 
    231 H231       -3.5490  -20.1902  -56.2764 H         1 UNK         0.0600 
    232 H232       -1.3791  -20.4385  -55.0454 H         1 UNK         0.0600 
    233 H233       -2.2358  -20.5971  -53.5198 H         1 UNK         0.0600 
    234 H234       -2.2791  -19.0788  -54.4035 H         1 UNK         0.0600 
    235 H235       -4.4421  -18.2649  -54.8751 H         1 UNK         0.3000 
    236 H236       -7.1865  -18.8835  -54.4494 H         1 UNK         0.0600 
    237 H237       -7.3675  -16.4266  -54.0441 H         1 UNK         0.0600 
    238 H238       -5.6150  -16.2989  -53.9567 H         1 UNK         0.0600 
    239 H239       -6.3981  -16.7660  -55.4675 H         1 UNK         0.0600 
    240 H240       -4.5619  -18.7909  -52.1671 H         1 UNK         0.3000 
    241 H241       -6.0768  -18.0183  -49.8739 H         1 UNK         0.0600 
    242 H242       -7.2144  -20.9927  -48.2640 H         1 UNK         0.3800 
    243 H243       -6.7862  -19.3237  -48.0057 H         1 UNK         0.3800 
    244 H244       -3.5279  -19.6419  -49.5505 H         1 UNK         0.0800 
    245 H245       -3.4097  -18.0794  -50.2852 H         1 UNK         0.0800 
    246 H246       -4.3195  -15.5025  -47.9523 H         1 UNK         0.0800 
    247 H247       -3.5149  -15.9975  -49.4142 H         1 UNK         0.0800 
@<TRIPOS>BOND
     1    1    2 1    
     2    1  127 1    
     3    1  128 1    
     4    1  129 1    
     5    2    3 2    
     6    2    4 am   BACKBONE|DICT|INTERRES
     7    4    5 1    
     8    4  130 1    
     9    5    6 1    
    10    5   65 1    
    11    5  131 1    
    12    6    7 1    
    13    6  132 1    
    14    6  133 1    
    15    7    8 1    
    16    8    9 1    
    17    8  134 1    
    18    8  135 1    
    19    9   10 ar   
    20    9   14 ar   
    21   10   11 ar   
    22   10  136 1    
    23   11   12 ar   
    24   11  126 1    
    25   12   13 ar   
    26   12  137 1    
    27   13   14 ar   
    28   13   15 1    
    29   14  138 1    
    30   15   16 1    
    31   15  139 1    
    32   15  140 1    
    33   16   17 1    
    34   17   18 1    
    35   17  141 1    
    36   17  142 1    
    37   18   19 1    
    38   18   67 1    
    39   18  143 1    
    40   19   20 am   BACKBONE|DICT|INTERRES
    41   19  144 1    
    42   20   21 2    
    43   20   22 1    
    44   22   23 1    
    45   22   24 1    
    46   22  145 1    
    47   23  146 1    
    48   23  147 1    
    49   23  148 1    
    50   24   25 am   BACKBONE|DICT|INTERRES
    51   24  149 1    
    52   25   26 2    
    53   25   27 1    
    54   27   28 1    
    55   27   29 1    
    56   27  150 1    
    57   28  151 1    
    58   28  152 1    
    59   28  153 1    
    60   29   30 am   BACKBONE|DICT|INTERRES
    61   29  154 1    
    62   30   31 2    
    63   30   32 1    
    64   32   33 1    
    65   32   34 1    
    66   32  155 1    
    67   33  156 1    
    68   33  157 1    
    69   33  158 1    
    70   34   35 am   BACKBONE|DICT|INTERRES
    71   34  159 1    
    72   35   36 2    
    73   35   37 1    
    74   37   38 1    
    75   37   39 1    
    76   37  160 1    
    77   38  161 1    
    78   38  162 1    
    79   38  163 1    
    80   39   40 am   BACKBONE|DICT|INTERRES
    81   39  164 1    
    82   40   41 2    
    83   40   42 1    
    84   42   43 1    
    85   42   44 1    
    86   42  165 1    
    87   43  166 1    
    88   43  167 1    
    89   43  168 1    
    90   44   45 am   BACKBONE|DICT|INTERRES
    91   44  169 1    
    92   45   46 2    
    93   45   47 1    
    94   47   48 1    
    95   47   49 1    
    96   47  170 1    
    97   48  171 1    
    98   48  172 1    
    99   48  173 1    
   100   49   50 am   BACKBONE|DICT|INTERRES
   101   49  174 1    
   102   50   51 2    
   103   50   52 1    
   104   52   53 1    
   105   52   54 1    
   106   52  175 1    
   107   53  176 1    
   108   53  177 1    
   109   53  178 1    
   110   54   55 am   BACKBONE|DICT|INTERRES
   111   54  179 1    
   112   55   56 2    
   113   55   57 1    
   114   57   58 1    
   115   57   59 1    
   116   57  180 1    
   117   58  181 1    
   118   58  182 1    
   119   58  183 1    
   120   59   60 am   BACKBONE|DICT|INTERRES
   121   59  184 1    
   122   60   61 2    
   123   60   62 1    
   124   62   63 1    
   125   62   64 1    
   126   62  185 1    
   127   63  186 1    
   128   63  187 1    
   129   63  188 1    
   130   64   65 am   BACKBONE|DICT|INTERRES
   131   64  189 1    
   132   65   66 2    
   133   67   68 2    
   134   67   69 am   BACKBONE|DICT|INTERRES
   135   69   70 1    
   136   69  190 1    
   137   70   71 1    
   138   70   72 1    
   139   70  191 1    
   140   71  192 1    
   141   71  193 1    
   142   71  194 1    
   143   72   73 2    
   144   72   74 am   BACKBONE|DICT|INTERRES
   145   74   75 1    
   146   74  195 1    
   147   75   76 1    
   148   75   77 1    
   149   75  196 1    
   150   76  197 1    
   151   76  198 1    
   152   76  199 1    
   153   77   78 2    
   154   77   79 am   BACKBONE|DICT|INTERRES
   155   79   80 1    
   156   79  200 1    
   157   80   81 1    
   158   80   82 1    
   159   80  201 1    
   160   81  202 1    
   161   81  203 1    
   162   81  204 1    
   163   82   83 2    
   164   82   84 am   BACKBONE|DICT|INTERRES
   165   84   85 1    
   166   84  205 1    
   167   85   86 1    
   168   85   87 1    
   169   85  206 1    
   170   86  207 1    
   171   86  208 1    
   172   86  209 1    
   173   87   88 2    
   174   87   89 am   BACKBONE|DICT|INTERRES
   175   89   90 1    
   176   89  210 1    
   177   90   91 1    
   178   90   92 1    
   179   90  211 1    
   180   91  212 1    
   181   91  213 1    
   182   91  214 1    
   183   92   93 2    
   184   92   94 am   BACKBONE|DICT|INTERRES
   185   94   95 1    
   186   94  215 1    
   187   95   96 1    
   188   95   97 1    
   189   95  216 1    
   190   96  217 1    
   191   96  218 1    
   192   96  219 1    
   193   97   98 2    
   194   97   99 am   BACKBONE|DICT|INTERRES
   195   99  100 1    
   196   99  220 1    
   197  100  101 1    
   198  100  102 1    
   199  100  221 1    
   200  101  222 1    
   201  101  223 1    
   202  101  224 1    
   203  102  103 2    
   204  102  104 am   BACKBONE|DICT|INTERRES
   205  104  105 1    
   206  104  225 1    
   207  105  106 1    
   208  105  107 1    
   209  105  226 1    
   210  106  227 1    
   211  106  228 1    
   212  106  229 1    
   213  107  108 2    
   214  107  109 am   BACKBONE|DICT|INTERRES
   215  109  110 1    
   216  109  230 1    
   217  110  111 1    
   218  110  112 1    
   219  110  231 1    
   220  111  232 1    
   221  111  233 1    
   222  111  234 1    
   223  112  113 2    
   224  112  114 am   BACKBONE|DICT|INTERRES
   225  114  115 1    
   226  114  235 1    
   227  115  116 1    
   228  115  117 1    
   229  115  236 1    
   230  116  237 1    
   231  116  238 1    
   232  116  239 1    
   233  117  118 2    
   234  117  119 am   BACKBONE|DICT|INTERRES
   235  119  120 1    
   236  119  240 1    
   237  120  121 1    
   238  120  124 1    
   239  120  241 1    
   240  121  122 am   BACKBONE|DICT|INTERRES
   241  121  123 2    
   242  122  242 1    
   243  122  243 1    
   244  124  125 1    
   245  124  244 1    
   246  124  245 1    
   247  125  126 1    
   248  126  246 1    
   249  126  247 1    
@<TRIPOS>SUBSTRUCTURE
     1 UNK         1 GROUP             0       ****    0 ROOT    
