@<TRIPOS>MOLECULE
3R540
247   249    1
SMALL
USER_CHARGES


@<TRIPOS>ATOM
      1 CA          5.3495  -10.2784  -47.7982 C.3       0 UNK        -0.1800 
      2 C           3.9753  -10.8758  -48.0612 C.2       0 UNK         0.5000 
      3 O           3.0213  -10.5542  -47.3559 O.2       0 UNK        -0.5000 
      4 N           3.8654  -11.7548  -49.0632 N.am      1 UNK        -0.5000 
      5 CA          2.6159  -12.3903  -49.4933 C.3       1 UNK         0.1400 
      6 C6          2.9273  -13.5146  -50.5139 C.3       23 UNK        -0.0398 
      7 S7          1.5212  -14.6113  -50.8855 S.3       23 UNK        -0.2404 
      8 C8          1.6299  -15.7853  -49.5021 C.3       23 UNK        -0.0205 
      9 C9          0.5467  -16.8433  -49.6097 C.ar      23 UNK        -0.0193 
     10 C10        -0.7750  -16.5261  -49.2874 C.ar      23 UNK        -0.1150 
     11 C11        -1.7852  -17.4811  -49.4236 C.ar      23 UNK        -0.0193 
     12 C12        -1.4608  -18.7706  -49.8573 C.ar      23 UNK        -0.1150 
     13 C13        -0.1411  -19.1002  -50.1771 C.ar      23 UNK        -0.0193 
     14 C14         0.8584  -18.1316  -50.0516 C.ar      23 UNK        -0.1150 
     15 C15         0.2076  -20.4880  -50.6917 C.3       23 UNK        -0.0205 
     16 S16         0.8600  -21.5582  -49.3753 S.3       23 UNK        -0.2404 
     17 C17        -0.6772  -22.0763  -48.5455 C.3       23 UNK        -0.0398 
     18 CA         -0.4148  -23.2263  -47.5448 C.3       11 UNK         0.1400 
     19 N           0.2913  -22.7682  -46.3433 N.am      11 UNK        -0.5000 
     20 C           0.7824  -23.5761  -45.3933 C.2       10 UNK         0.5000 
     21 O           0.7341  -24.8038  -45.4504 O.2       10 UNK        -0.5000 
     22 CA          1.3769  -22.9071  -44.1415 C.3       10 UNK         0.1400 
     23 CB          2.8034  -22.4045  -44.4079 C.3       10 UNK        -0.1800 
     24 N           0.5413  -21.8155  -43.6384 N.am      10 UNK        -0.5000 
     25 C          -0.7050  -21.9763  -43.1690 C.2       9 UNK         0.5000 
     26 O          -1.2584  -23.0699  -43.0661 O.2       9 UNK        -0.5000 
     27 CA         -1.4864  -20.7057  -42.7920 C.3       9 UNK         0.1400 
     28 CB         -1.0890  -20.2154  -41.3921 C.3       9 UNK        -0.1800 
     29 N          -1.3098  -19.6259  -43.7608 N.am      9 UNK        -0.5000 
     30 C          -1.6780  -19.6813  -45.0486 C.2       8 UNK         0.5000 
     31 O          -2.2577  -20.6404  -45.5583 O.2       8 UNK        -0.5000 
     32 CA         -1.2719  -18.4856  -45.9275 C.3       8 UNK         0.1400 
     33 CB         -2.2251  -17.2979  -45.7253 C.3       8 UNK        -0.1800 
     34 N           0.1064  -18.0609  -45.6810 N.am      8 UNK        -0.5000 
     35 C           1.1828  -18.8273  -45.9087 C.2       7 UNK         0.5000 
     36 O           1.1290  -19.9607  -46.3830 O.2       7 UNK        -0.5000 
     37 CA          2.5393  -18.2558  -45.4661 C.3       7 UNK         0.1400 
     38 CB          3.0973  -17.2843  -46.5158 C.3       7 UNK        -0.1800 
     39 N           2.4421  -17.5874  -44.1677 N.am      7 UNK        -0.5000 
     40 C           2.2808  -18.2392  -43.0055 C.2       6 UNK         0.5000 
     41 O           2.2419  -19.4657  -42.9144 O.2       6 UNK        -0.5000 
     42 CA          2.0892  -17.3859  -41.7360 C.3       6 UNK         0.1400 
     43 CB          3.4485  -17.0295  -41.1166 C.3       6 UNK        -0.1800 
     44 N           1.3332  -16.1571  -41.9774 N.am      6 UNK        -0.5000 
     45 C           0.0692  -16.1104  -42.4203 C.2       5 UNK         0.5000 
     46 O          -0.6264  -17.1103  -42.5899 O.2       5 UNK        -0.5000 
     47 CA         -0.5030  -14.7256  -42.7806 C.3       5 UNK         0.1400 
     48 CB         -1.3924  -14.2010  -41.6442 C.3       5 UNK        -0.1800 
     49 N           0.5065  -13.7125  -43.1037 N.am      5 UNK        -0.5000 
     50 C           1.4131  -13.7915  -44.0862 C.2       4 UNK         0.5000 
     51 O           1.5387  -14.7739  -44.8204 O.2       4 UNK        -0.5000 
     52 CA          2.3182  -12.5580  -44.2734 C.3       4 UNK         0.1400 
     53 CB          3.6498  -12.9211  -44.9539 C.3       4 UNK        -0.1800 
     54 N           1.6446  -11.5362  -45.0694 N.am      4 UNK        -0.5000 
     55 C           0.5850  -10.8086  -44.6933 C.2       3 UNK         0.5000 
     56 O           0.1303  -10.8008  -43.5481 O.2       3 UNK        -0.5000 
     57 CA         -0.1018   -9.9739  -45.7929 C.3       3 UNK         0.1400 
     58 CB          0.4967   -8.5606  -45.8585 C.3       3 UNK        -0.1800 
     59 N          -0.0335  -10.5939  -47.1217 N.am      3 UNK        -0.5000 
     60 C          -0.6068  -11.7599  -47.4560 C.2       2 UNK         0.5000 
     61 O          -1.2814  -12.4290  -46.6731 O.2       2 UNK        -0.5000 
     62 CA         -0.4113  -12.2721  -48.8976 C.3       2 UNK         0.1400 
     63 CB         -1.7709  -12.5457  -49.5614 C.3       2 UNK        -0.1800 
     64 N           0.3330  -11.3371  -49.7507 N.am      2 UNK        -0.5000 
     65 C           1.6378  -11.3283  -50.0669 C.2       1 UNK         0.5000 
     66 O           2.0895  -10.4698  -50.8263 O.2       1 UNK        -0.5000 
     67 C          -1.7183  -23.9755  -47.1998 C.2       11 UNK         0.5000 
     68 O          -1.9813  -25.0273  -47.7849 O.2       11 UNK        -0.5000 
     69 N          -2.4897  -23.4536  -46.2359 N.am      12 UNK        -0.5000 
     70 CA         -3.7016  -24.0909  -45.7211 C.3       12 UNK         0.1400 
     71 CB         -4.4441  -23.1199  -44.7918 C.3       12 UNK        -0.1800 
     72 C          -3.4130  -25.4296  -45.0148 C.2       12 UNK         0.5000 
     73 O          -4.1093  -26.4105  -45.2761 O.2       12 UNK        -0.5000 
     74 N          -2.3683  -25.4647  -44.1743 N.am      13 UNK        -0.5000 
     75 CA         -1.8950  -26.6625  -43.4733 C.3       13 UNK         0.1400 
     76 CB         -0.8259  -26.2674  -42.4437 C.3       13 UNK        -0.1800 
     77 C          -1.3574  -27.7494  -44.4238 C.2       13 UNK         0.5000 
     78 O          -1.5785  -28.9356  -44.1783 O.2       13 UNK        -0.5000 
     79 N          -0.6975  -27.3257  -45.5101 N.am      14 UNK        -0.5000 
     80 CA         -0.2247  -28.1817  -46.6009 C.3       14 UNK         0.1400 
     81 CB          0.8273  -27.4107  -47.4147 C.3       14 UNK        -0.1800 
     82 C          -1.3525  -28.6881  -47.5256 C.2       14 UNK         0.5000 
     83 O          -1.0891  -29.5439  -48.3715 O.2       14 UNK        -0.5000 
     84 N          -2.5710  -28.1510  -47.3610 N.am      15 UNK        -0.5000 
     85 CA         -3.7800  -28.4133  -48.1456 C.3       15 UNK         0.1400 
     86 CB         -4.2407  -29.8780  -47.9896 C.3       15 UNK        -0.1800 
     87 C          -3.6503  -27.9640  -49.6157 C.2       15 UNK         0.5000 
     88 O          -4.2040  -28.6048  -50.5120 O.2       15 UNK        -0.5000 
     89 N          -2.9318  -26.8551  -49.8360 N.am      16 UNK        -0.5000 
     90 CA         -2.8500  -26.1616  -51.1189 C.3       16 UNK         0.1400 
     91 CB         -1.5882  -25.2819  -51.1243 C.3       16 UNK        -0.1800 
     92 C          -4.1128  -25.3122  -51.3615 C.2       16 UNK         0.5000 
     93 O          -4.9275  -25.1251  -50.4520 O.2       16 UNK        -0.5000 
     94 N          -4.2416  -24.7761  -52.5812 N.am      17 UNK        -0.5000 
     95 CA         -5.3238  -23.8847  -53.0072 C.3       17 UNK         0.1400 
     96 CB         -5.3776  -23.8730  -54.5458 C.3       17 UNK        -0.1800 
     97 C          -5.1712  -22.4666  -52.4160 C.2       17 UNK         0.5000 
     98 O          -5.0188  -21.4971  -53.1638 O.2       17 UNK        -0.5000 
     99 N          -5.1979  -22.3707  -51.0799 N.am      18 UNK        -0.5000 
    100 CA        -5.0116  -21.1688  -50.2611 C.3       18 UNK         0.1400 
    101 CB        -4.7123  -21.5966  -48.8124 C.3       18 UNK        -0.1800 
    102 C         -6.1767  -20.1582  -50.3655 C.2       18 UNK         0.5000 
    103 O         -6.7725  -19.7685  -49.3600 O.2       18 UNK        -0.5000 
    104 N         -6.4542  -19.7479  -51.6022 N.am      19 UNK        -0.5000 
    105 CA        -7.3502  -18.6769  -52.0134 C.3       19 UNK         0.1400 
    106 CB        -8.8099  -19.1621  -52.0359 C.3       19 UNK        -0.1800 
    107 C         -6.8927  -18.1774  -53.3919 C.2       19 UNK         0.5000 
    108 O         -6.7369  -16.9722  -53.5859 O.2       19 UNK        -0.5000 
    109 N         -6.6375  -19.1216  -54.3106 N.am      20 UNK        -0.5000 
    110 CA        -6.0890  -18.8628  -55.6421 C.3       20 UNK         0.1400 
    111 CB        -6.4509  -20.0327  -56.5699 C.3       20 UNK        -0.1800 
    112 C         -4.5641  -18.6565  -55.6083 C.2       20 UNK         0.5000 
    113 O         -4.0504  -17.7850  -56.3109 O.2       20 UNK        -0.5000 
    114 N         -3.8687  -19.4460  -54.7759 N.am      21 UNK        -0.5000 
    115 CA        -2.4128  -19.4229  -54.6044 C.3       21 UNK         0.1400 
    116 CB        -1.9900  -20.6609  -53.7981 C.3       21 UNK        -0.1800 
    117 C         -1.8792  -18.1407  -53.9354 C.2       21 UNK         0.5000 
    118 O         -0.6829  -17.8656  -54.0308 O.2       21 UNK        -0.5000 
    119 N         -2.7690  -17.3852  -53.2807 N.am      22 UNK        -0.5000 
    120 CA        -2.4721  -16.1189  -52.5944 C.3       22 UNK         0.1400 
    121 C         -2.1597  -14.9265  -53.5483 C.2       22 UNK         0.5000 
    122 N         -2.4059  -15.0294  -54.8499 N.am      22 UNK        -0.7600 
    123 O         -1.6908  -13.8852  -53.1002 O.2       22 UNK        -0.5000 
    124 C124       -3.5843  -15.7228  -51.5819 C.3       23 UNK        -0.0398 
    125 S125       -4.2630  -17.1106  -50.6045 S.3       23 UNK        -0.2404 
    126 C126       -3.2270  -17.1154  -49.1119 C.3       23 UNK        -0.0205 
    127 H127        5.3121   -9.1943  -47.9040 H         1 UNK         0.0600 
    128 H128        6.0986  -10.6634  -48.4904 H         1 UNK         0.0600 
    129 H129        5.6708  -10.5123  -46.7833 H         1 UNK         0.0600 
    130 H130        4.6778  -11.9561  -49.6282 H         1 UNK         0.3000 
    131 H131        2.1992  -12.8413  -48.5934 H         1 UNK         0.0600 
    132 H132        3.2826  -13.0883  -51.4539 H         1 UNK         0.0800 
    133 H133        3.7460  -14.1357  -50.1468 H         1 UNK         0.0800 
    134 H134        2.6175  -16.2489  -49.4943 H         1 UNK         0.0800 
    135 H135        1.5259  -15.2528  -48.5562 H         1 UNK         0.0800 
    136 H136       -1.0184  -15.5275  -48.9545 H         1 UNK         0.1150 
    137 H137       -2.2396  -19.5105  -49.9617 H         1 UNK         0.1150 
    138 H138        1.8783  -18.3812  -50.3078 H         1 UNK         0.1150 
    139 H139       -0.6601  -20.9599  -51.1525 H         1 UNK         0.0800 
    140 H140        0.9579  -20.4023  -51.4790 H         1 UNK         0.0800 
    141 H141       -1.3831  -22.3835  -49.3184 H         1 UNK         0.0800 
    142 H142       -1.1232  -21.2163  -48.0434 H         1 UNK         0.0800 
    143 H143        0.2312  -23.9575  -48.0357 H         1 UNK         0.0600 
    144 H144        0.4242  -21.7642  -46.2517 H         1 UNK         0.3000 
    145 H145        1.4323  -23.6660  -43.3584 H         1 UNK         0.0600 
    146 H146        3.2565  -22.0064  -43.5000 H         1 UNK         0.0600 
    147 H147        3.4419  -23.2152  -44.7611 H         1 UNK         0.0600 
    148 H148        2.8230  -21.6198  -45.1636 H         1 UNK         0.0600 
    149 H149        0.9499  -20.8873  -43.6490 H         1 UNK         0.3000 
    150 H150       -2.5476  -20.9615  -42.7733 H         1 UNK         0.0600 
    151 H151       -1.2444  -20.9961  -40.6465 H         1 UNK         0.0600 
    152 H152       -1.6862  -19.3543  -41.0918 H         1 UNK         0.0600 
    153 H153       -0.0392  -19.9251  -41.3502 H         1 UNK         0.0600 
    154 H154       -0.8870  -18.7689  -43.4124 H         1 UNK         0.3000 
    155 H155       -1.3374  -18.8072  -46.9676 H         1 UNK         0.0600 
    156 H156       -2.2197  -16.9414  -44.6959 H         1 UNK         0.0600 
    157 H157       -1.9561  -16.4608  -46.3694 H         1 UNK         0.0600 
    158 H158       -3.2512  -17.5793  -45.9641 H         1 UNK         0.0600 
    159 H159        0.2415  -17.1503  -45.2666 H         1 UNK         0.3000 
    160 H160        3.2401  -19.0884  -45.3739 H         1 UNK         0.0600 
    161 H161        4.0791  -16.9100  -46.2259 H         1 UNK         0.0600 
    162 H162        2.4414  -16.4267  -46.6599 H         1 UNK         0.0600 
    163 H163        3.2077  -17.7794  -47.4814 H         1 UNK         0.0600 
    164 H164        2.3911  -16.5750  -44.1823 H         1 UNK         0.3000 
    165 H165        1.5306  -17.9854  -41.0144 H         1 UNK         0.0600 
    166 H166        3.3252  -16.4955  -40.1743 H         1 UNK         0.0600 
    167 H167        4.0286  -17.9289  -40.9056 H         1 UNK         0.0600 
    168 H168        4.0435  -16.4037  -41.7831 H         1 UNK         0.0600 
    169 H169        1.8289  -15.2861  -41.8610 H         1 UNK         0.3000 
    170 H170       -1.1248  -14.8563  -43.6684 H         1 UNK         0.0600 
    171 H171       -2.1775  -14.9176  -41.3987 H         1 UNK         0.0600 
    172 H172       -0.8173  -14.0187  -40.7356 H         1 UNK         0.0600 
    173 H173       -1.8821  -13.2683  -41.9253 H         1 UNK         0.0600 
    174 H174        0.4293  -12.8318  -42.6105 H         1 UNK         0.3000 
    175 H175        2.5438  -12.1439  -43.2886 H         1 UNK         0.0600 
    176 H176        4.3092  -12.0552  -45.0135 H         1 UNK         0.0600 
    177 H177        3.4978  -13.2955  -45.9673 H         1 UNK         0.0600 
    178 H178        4.1777  -13.6939  -44.3938 H         1 UNK         0.0600 
    179 H179        1.9973  -11.3925  -46.0116 H         1 UNK         0.3000 
    180 H180       -1.1559   -9.8838  -45.5229 H         1 UNK         0.0600 
    181 H181        1.5487   -8.5808  -46.1449 H         1 UNK         0.0600 
    182 H182        0.4303   -8.0638  -44.8897 H         1 UNK         0.0600 
    183 H183       -0.0358   -7.9393  -46.5787 H         1 UNK         0.0600 
    184 H184        0.5425  -10.1259  -47.8072 H         1 UNK         0.3000 
    185 H185        0.0986  -13.2297  -48.8244 H         1 UNK         0.0600 
    186 H186       -2.3708  -11.6387  -49.6435 H         1 UNK         0.0600 
    187 H187       -1.6390  -12.9527  -50.5635 H         1 UNK         0.0600 
    188 H188       -2.3511  -13.2742  -48.9936 H         1 UNK         0.0600 
    189 H189       -0.2372  -10.6100  -50.1572 H         1 UNK         0.3000 
    190 H190       -2.2385  -22.5553  -45.8319 H         1 UNK         0.3000 
    191 H191       -4.3512  -24.3007  -46.5738 H         1 UNK         0.0600 
    192 H192       -4.7110  -22.2018  -45.3159 H         1 UNK         0.0600 
    193 H193       -5.3684  -23.5643  -44.4209 H         1 UNK         0.0600 
    194 H194       -3.8403  -22.8466  -43.9266 H         1 UNK         0.0600 
    195 H195       -1.8723  -24.5993  -43.9736 H         1 UNK         0.3000 
    196 H196       -2.7438  -27.0877  -42.9339 H         1 UNK         0.0600 
    197 H197       -0.4693  -27.1398  -41.8947 H         1 UNK         0.0600 
    198 H198       -1.2241  -25.5637  -41.7126 H         1 UNK         0.0600 
    199 H199        0.0377  -25.8022  -42.9196 H         1 UNK         0.0600 
    200 H200       -0.4870  -26.3352  -45.5938 H         1 UNK         0.3000 
    201 H201        0.2573  -29.0592  -46.1654 H         1 UNK         0.0600 
    202 H202        1.6619  -27.0994  -46.7864 H         1 UNK         0.0600 
    203 H203        0.4024  -26.5179  -47.8745 H         1 UNK         0.0600 
    204 H204        1.2373  -28.0282  -48.2146 H         1 UNK         0.0600 
    205 H205       -2.6756  -27.4443  -46.6438 H         1 UNK         0.3000 
    206 H206       -4.5570  -27.7820  -47.7126 H         1 UNK         0.0600 
    207 H207       -4.3235  -30.1545  -46.9385 H         1 UNK         0.0600 
    208 H208       -5.2217  -30.0282  -48.4416 H         1 UNK         0.0600 
    209 H209       -3.5522  -30.5751  -48.4676 H         1 UNK         0.0600 
    210 H210       -2.5600  -26.3503  -49.0353 H         1 UNK         0.3000 
    211 H211       -2.7671  -26.8992  -51.9198 H         1 UNK         0.0600 
    212 H212       -1.6639  -24.4680  -50.4047 H         1 UNK         0.0600 
    213 H213       -1.4208  -24.8350  -52.1048 H         1 UNK         0.0600 
    214 H214       -0.6994  -25.8634  -50.8783 H         1 UNK         0.0600 
    215 H215       -3.5198  -24.9500  -53.2656 H         1 UNK         0.3000 
    216 H216       -6.2723  -24.2863  -52.6447 H         1 UNK         0.0600 
    217 H217       -6.1999  -23.2521  -54.9036 H         1 UNK         0.0600 
    218 H218       -5.5351  -24.8760  -54.9428 H         1 UNK         0.0600 
    219 H219       -4.4568  -23.4807  -54.9795 H         1 UNK         0.0600 
    220 H220       -5.3068  -23.2430  -50.5702 H         1 UNK         0.3000 
    221 H221       -4.1263  -20.6550  -50.6388 H         1 UNK         0.0600 
    222 H222       -5.5611  -22.1128  -48.3624 H         1 UNK         0.0600 
    223 H223       -3.8550  -22.2675  -48.7678 H         1 UNK         0.0600 
    224 H224       -4.4797  -20.7339  -48.1863 H         1 UNK         0.0600 
    225 H225       -5.8956  -20.1658  -52.3419 H         1 UNK         0.3000 
    226 H226       -7.2604  -17.8491  -51.3069 H         1 UNK         0.0600 
    227 H227       -9.1418  -19.4581  -51.0407 H         1 UNK         0.0600 
    228 H228       -9.4776  -18.3709  -52.3790 H         1 UNK         0.0600 
    229 H229       -8.9419  -20.0172  -52.6996 H         1 UNK         0.0600 
    230 H230       -6.7936  -20.0911  -54.0751 H         1 UNK         0.3000 
    231 H231       -6.5444  -17.9553  -56.0445 H         1 UNK         0.0600 
    232 H232       -6.0311  -20.9749  -56.2147 H         1 UNK         0.0600 
    233 H233       -6.0706  -19.8631  -57.5781 H         1 UNK         0.0600 
    234 H234       -7.5314  -20.1547  -56.6470 H         1 UNK         0.0600 
    235 H235       -4.3639  -20.1557  -54.2420 H         1 UNK         0.3000 
    236 H236       -1.9571  -19.4874  -55.5944 H         1 UNK         0.0600 
    237 H237       -2.3128  -21.5808  -54.2861 H         1 UNK         0.0600 
    238 H238       -0.9052  -20.7105  -53.6964 H         1 UNK         0.0600 
    239 H239       -2.4163  -20.6463  -52.7945 H         1 UNK         0.0600 
    240 H240       -3.7298  -17.6901  -53.2501 H         1 UNK         0.3000 
    241 H241       -1.5563  -16.2835  -52.0249 H         1 UNK         0.0600 
    242 H242       -2.7989  -15.8764  -55.2341 H         1 UNK         0.3800 
    243 H243       -2.1994  -14.2515  -55.4564 H         1 UNK         0.3800 
    244 H244       -3.2197  -14.9521  -50.9016 H         1 UNK         0.0800 
    245 H245       -4.4290  -15.2792  -52.1123 H         1 UNK         0.0800 
    246 H246       -3.6347  -17.8442  -48.4105 H         1 UNK         0.0800 
    247 H247       -3.2924  -16.1429  -48.6216 H         1 UNK         0.0800 
@<TRIPOS>BOND
     1    1    2 1    
     2    1  127 1    
     3    1  128 1    
     4    1  129 1    
     5    2    3 2    
     6    2    4 am   BACKBONE|DICT|INTERRES
     7    4    5 1    
     8    4  130 1    
     9    5    6 1    
    10    5   65 1    
    11    5  131 1    
    12    6    7 1    
    13    6  132 1    
    14    6  133 1    
    15    7    8 1    
    16    8    9 1    
    17    8  134 1    
    18    8  135 1    
    19    9   10 ar   
    20    9   14 ar   
    21   10   11 ar   
    22   10  136 1    
    23   11   12 ar   
    24   11  126 1    
    25   12   13 ar   
    26   12  137 1    
    27   13   14 ar   
    28   13   15 1    
    29   14  138 1    
    30   15   16 1    
    31   15  139 1    
    32   15  140 1    
    33   16   17 1    
    34   17   18 1    
    35   17  141 1    
    36   17  142 1    
    37   18   19 1    
    38   18   67 1    
    39   18  143 1    
    40   19   20 am   BACKBONE|DICT|INTERRES
    41   19  144 1    
    42   20   21 2    
    43   20   22 1    
    44   22   23 1    
    45   22   24 1    
    46   22  145 1    
    47   23  146 1    
    48   23  147 1    
    49   23  148 1    
    50   24   25 am   BACKBONE|DICT|INTERRES
    51   24  149 1    
    52   25   26 2    
    53   25   27 1    
    54   27   28 1    
    55   27   29 1    
    56   27  150 1    
    57   28  151 1    
    58   28  152 1    
    59   28  153 1    
    60   29   30 am   BACKBONE|DICT|INTERRES
    61   29  154 1    
    62   30   31 2    
    63   30   32 1    
    64   32   33 1    
    65   32   34 1    
    66   32  155 1    
    67   33  156 1    
    68   33  157 1    
    69   33  158 1    
    70   34   35 am   BACKBONE|DICT|INTERRES
    71   34  159 1    
    72   35   36 2    
    73   35   37 1    
    74   37   38 1    
    75   37   39 1    
    76   37  160 1    
    77   38  161 1    
    78   38  162 1    
    79   38  163 1    
    80   39   40 am   BACKBONE|DICT|INTERRES
    81   39  164 1    
    82   40   41 2    
    83   40   42 1    
    84   42   43 1    
    85   42   44 1    
    86   42  165 1    
    87   43  166 1    
    88   43  167 1    
    89   43  168 1    
    90   44   45 am   BACKBONE|DICT|INTERRES
    91   44  169 1    
    92   45   46 2    
    93   45   47 1    
    94   47   48 1    
    95   47   49 1    
    96   47  170 1    
    97   48  171 1    
    98   48  172 1    
    99   48  173 1    
   100   49   50 am   BACKBONE|DICT|INTERRES
   101   49  174 1    
   102   50   51 2    
   103   50   52 1    
   104   52   53 1    
   105   52   54 1    
   106   52  175 1    
   107   53  176 1    
   108   53  177 1    
   109   53  178 1    
   110   54   55 am   BACKBONE|DICT|INTERRES
   111   54  179 1    
   112   55   56 2    
   113   55   57 1    
   114   57   58 1    
   115   57   59 1    
   116   57  180 1    
   117   58  181 1    
   118   58  182 1    
   119   58  183 1    
   120   59   60 am   BACKBONE|DICT|INTERRES
   121   59  184 1    
   122   60   61 2    
   123   60   62 1    
   124   62   63 1    
   125   62   64 1    
   126   62  185 1    
   127   63  186 1    
   128   63  187 1    
   129   63  188 1    
   130   64   65 am   BACKBONE|DICT|INTERRES
   131   64  189 1    
   132   65   66 2    
   133   67   68 2    
   134   67   69 am   BACKBONE|DICT|INTERRES
   135   69   70 1    
   136   69  190 1    
   137   70   71 1    
   138   70   72 1    
   139   70  191 1    
   140   71  192 1    
   141   71  193 1    
   142   71  194 1    
   143   72   73 2    
   144   72   74 am   BACKBONE|DICT|INTERRES
   145   74   75 1    
   146   74  195 1    
   147   75   76 1    
   148   75   77 1    
   149   75  196 1    
   150   76  197 1    
   151   76  198 1    
   152   76  199 1    
   153   77   78 2    
   154   77   79 am   BACKBONE|DICT|INTERRES
   155   79   80 1    
   156   79  200 1    
   157   80   81 1    
   158   80   82 1    
   159   80  201 1    
   160   81  202 1    
   161   81  203 1    
   162   81  204 1    
   163   82   83 2    
   164   82   84 am   BACKBONE|DICT|INTERRES
   165   84   85 1    
   166   84  205 1    
   167   85   86 1    
   168   85   87 1    
   169   85  206 1    
   170   86  207 1    
   171   86  208 1    
   172   86  209 1    
   173   87   88 2    
   174   87   89 am   BACKBONE|DICT|INTERRES
   175   89   90 1    
   176   89  210 1    
   177   90   91 1    
   178   90   92 1    
   179   90  211 1    
   180   91  212 1    
   181   91  213 1    
   182   91  214 1    
   183   92   93 2    
   184   92   94 am   BACKBONE|DICT|INTERRES
   185   94   95 1    
   186   94  215 1    
   187   95   96 1    
   188   95   97 1    
   189   95  216 1    
   190   96  217 1    
   191   96  218 1    
   192   96  219 1    
   193   97   98 2    
   194   97   99 am   BACKBONE|DICT|INTERRES
   195   99  100 1    
   196   99  220 1    
   197  100  101 1    
   198  100  102 1    
   199  100  221 1    
   200  101  222 1    
   201  101  223 1    
   202  101  224 1    
   203  102  103 2    
   204  102  104 am   BACKBONE|DICT|INTERRES
   205  104  105 1    
   206  104  225 1    
   207  105  106 1    
   208  105  107 1    
   209  105  226 1    
   210  106  227 1    
   211  106  228 1    
   212  106  229 1    
   213  107  108 2    
   214  107  109 am   BACKBONE|DICT|INTERRES
   215  109  110 1    
   216  109  230 1    
   217  110  111 1    
   218  110  112 1    
   219  110  231 1    
   220  111  232 1    
   221  111  233 1    
   222  111  234 1    
   223  112  113 2    
   224  112  114 am   BACKBONE|DICT|INTERRES
   225  114  115 1    
   226  114  235 1    
   227  115  116 1    
   228  115  117 1    
   229  115  236 1    
   230  116  237 1    
   231  116  238 1    
   232  116  239 1    
   233  117  118 2    
   234  117  119 am   BACKBONE|DICT|INTERRES
   235  119  120 1    
   236  119  240 1    
   237  120  121 1    
   238  120  124 1    
   239  120  241 1    
   240  121  122 am   BACKBONE|DICT|INTERRES
   241  121  123 2    
   242  122  242 1    
   243  122  243 1    
   244  124  125 1    
   245  124  244 1    
   246  124  245 1    
   247  125  126 1    
   248  126  246 1    
   249  126  247 1    
@<TRIPOS>SUBSTRUCTURE
     1 UNK         1 GROUP             0       ****    0 ROOT    
