@<TRIPOS>MOLECULE
3R540
247   249    1
SMALL
USER_CHARGES


@<TRIPOS>ATOM
      1 CA          2.7144  -12.3902  -52.0932 C.3       0 UNK        -0.1800 
      2 C           3.2924  -12.2288  -50.6953 C.2       0 UNK         0.5000 
      3 O           3.8588  -11.1826  -50.3803 O.2       0 UNK        -0.5000 
      4 N           3.1335  -13.2485  -49.8438 N.am      1 UNK        -0.5000 
      5 CA          3.6586  -13.3131  -48.4727 C.3       1 UNK         0.1400 
      6 C6          4.0110  -14.7651  -48.0443 C.3       23 UNK        -0.0398 
      7 S7          5.2983  -15.5136  -49.1053 S.3       23 UNK        -0.2404 
      8 C8          4.8549  -17.2904  -49.0669 C.3       23 UNK        -0.0205 
      9 C9          3.5904  -17.7024  -49.8280 C.ar      23 UNK        -0.0193 
     10 C10         2.8178  -16.7984  -50.5640 C.ar      23 UNK        -0.1150 
     11 C11         1.6382  -17.2017  -51.1895 C.ar      23 UNK        -0.0193 
     12 C12         1.2506  -18.5421  -51.1233 C.ar      23 UNK        -0.1150 
     13 C13         2.0313  -19.4790  -50.4395 C.ar      23 UNK        -0.0193 
     14 C14         3.1948  -19.0438  -49.7874 C.ar      23 UNK        -0.1150 
     15 C15         1.6012  -20.9484  -50.4723 C.3       23 UNK        -0.0205 
     16 S16         2.2642  -21.9976  -49.1316 S.3       23 UNK        -0.2404 
     17 C17         1.3335  -21.3537  -47.7030 C.3       23 UNK        -0.0398 
     18 CA          0.2876  -22.3483  -47.1456 C.3       11 UNK         0.1400 
     19 N          -0.2022  -21.9161  -45.8345 N.am      11 UNK        -0.5000 
     20 C          -1.0153  -22.6165  -45.0327 C.2       10 UNK         0.5000 
     21 O          -1.4194  -23.7484  -45.2884 O.2       10 UNK        -0.5000 
     22 CA         -1.5136  -21.9084  -43.7604 C.3       10 UNK         0.1400 
     23 CB         -0.4467  -21.9384  -42.6566 C.3       10 UNK        -0.1800 
     24 N          -1.9272  -20.5293  -44.0248 N.am      10 UNK        -0.5000 
     25 C          -2.9512  -20.1960  -44.8245 C.2       9 UNK         0.5000 
     26 O          -3.6947  -21.0214  -45.3563 O.2       9 UNK        -0.5000 
     27 CA         -3.1541  -18.6973  -45.1141 C.3       9 UNK         0.1400 
     28 CB         -3.9286  -18.0228  -43.9724 C.3       9 UNK        -0.1800 
     29 N          -1.8945  -17.9865  -45.3435 N.am      9 UNK        -0.5000 
     30 C          -1.0630  -18.2178  -46.3701 C.2       8 UNK         0.5000 
     31 O          -1.2955  -19.0305  -47.2634 O.2       8 UNK        -0.5000 
     32 CA          0.2803  -17.4623  -46.3659 C.3       8 UNK         0.1400 
     33 CB          0.1073  -16.0237  -46.8734 C.3       8 UNK        -0.1800 
     34 N           0.9038  -17.4529  -45.0409 N.am      8 UNK        -0.5000 
     35 C           1.3068  -18.5533  -44.3890 C.2       7 UNK         0.5000 
     36 O           1.2593  -19.6849  -44.8673 O.2       7 UNK        -0.5000 
     37 CA          1.7894  -18.3719  -42.9416 C.3       7 UNK         0.1400 
     38 CB          3.2770  -17.9904  -42.8995 C.3       7 UNK        -0.1800 
     39 N           0.9906  -17.3721  -42.2338 N.am      7 UNK        -0.5000 
     40 C          -0.2648  -17.5757  -41.8099 C.2       6 UNK         0.5000 
     41 O          -0.8595  -18.6464  -41.9336 O.2       6 UNK        -0.5000 
     42 CA         -0.9914  -16.3728  -41.1778 C.3       6 UNK         0.1400 
     43 CB         -0.6464  -16.2558  -39.6858 C.3       6 UNK        -0.1800 
     44 N          -0.6835  -15.1076  -41.8472 N.am      6 UNK        -0.5000 
     45 C          -1.0455  -14.8115  -43.1031 C.2       5 UNK         0.5000 
     46 O          -1.7266  -15.5555  -43.8069 O.2       5 UNK        -0.5000 
     47 CA         -0.5206  -13.4877  -43.6926 C.3       5 UNK         0.1400 
     48 CB         -1.5132  -12.3487  -43.4184 C.3       5 UNK        -0.1800 
     49 N           0.8123  -13.0914  -43.2259 N.am      5 UNK        -0.5000 
     50 C           1.9198  -13.8437  -43.3016 C.2       4 UNK         0.5000 
     51 O           1.9241  -15.0103  -43.6959 O.2       4 UNK        -0.5000 
     52 CA          3.2324  -13.1526  -42.9040 C.3       4 UNK         0.1400 
     53 CB          4.4641  -14.0639  -43.0546 C.3       4 UNK        -0.1800 
     54 N           3.3938  -11.9821  -43.7569 N.am      4 UNK        -0.5000 
     55 C           3.6940  -10.7435  -43.3477 C.2       3 UNK         0.5000 
     56 O           3.9303  -10.4515  -42.1749 O.2       3 UNK        -0.5000 
     57 CA          3.7315   -9.6355  -44.4229 C.3       3 UNK         0.1400 
     58 CB          5.1840   -9.2812  -44.7773 C.3       3 UNK        -0.1800 
     59 N           3.0216   -9.9918  -45.6538 N.am      3 UNK        -0.5000 
     60 C           1.6934  -10.1341  -45.7653 C.2       2 UNK         0.5000 
     61 O           0.9034   -9.8846  -44.8549 O.2       2 UNK        -0.5000 
     62 CA          1.1608  -10.6842  -47.1040 C.3       2 UNK         0.1400 
     63 CB          0.6384   -9.5427  -47.9886 C.3       2 UNK        -0.1800 
     64 N           2.1409  -11.4650  -47.8674 N.am      2 UNK        -0.5000 
     65 C           2.7010  -12.6187  -47.4764 C.2       1 UNK         0.5000 
     66 O           2.4885  -13.1197  -46.3737 O.2       1 UNK        -0.5000 
     67 C          -0.8679  -22.6030  -48.1391 C.2       11 UNK         0.5000 
     68 O          -0.8754  -23.6349  -48.8106 O.2       11 UNK        -0.5000 
     69 N          -1.8467  -21.6877  -48.1773 N.am      12 UNK        -0.5000 
     70 CA         -3.0537  -21.7839  -48.9986 C.3       12 UNK         0.1400 
     71 CB         -3.8763  -20.4960  -48.8436 C.3       12 UNK        -0.1800 
     72 C          -3.9164  -23.0188  -48.6781 C.2       12 UNK         0.5000 
     73 O          -4.4674  -23.6252  -49.5989 O.2       12 UNK        -0.5000 
     74 N          -4.0037  -23.3700  -47.3881 N.am      13 UNK        -0.5000 
     75 CA         -4.6767  -24.5714  -46.8990 C.3       13 UNK         0.1400 
     76 CB         -4.9858  -24.4096  -45.4033 C.3       13 UNK        -0.1800 
     77 C          -3.8521  -25.8461  -47.1554 C.2       13 UNK         0.5000 
     78 O          -4.4127  -26.8514  -47.5923 O.2       13 UNK        -0.5000 
     79 N          -2.5362  -25.7831  -46.9028 N.am      14 UNK        -0.5000 
     80 CA         -1.5848  -26.8824  -47.0986 C.3       14 UNK         0.1400 
     81 CB         -0.2106  -26.4840  -46.5413 C.3       14 UNK        -0.1800 
     82 C          -1.4577  -27.3367  -48.5640 C.2       14 UNK         0.5000 
     83 O          -1.1715  -28.5095  -48.8116 O.2       14 UNK        -0.5000 
     84 N          -1.7164  -26.4219  -49.5071 N.am      15 UNK        -0.5000 
     85 CA         -1.8333  -26.6612  -50.9449 C.3       15 UNK         0.1400 
     86 CB         -1.7572  -25.3057  -51.6696 C.3       15 UNK        -0.1800 
     87 C          -3.1135  -27.4498  -51.3056 C.2       15 UNK         0.5000 
     88 O          -3.9668  -26.9456  -52.0357 O.2       15 UNK        -0.5000 
     89 N          -3.2350  -28.6697  -50.7627 N.am      16 UNK        -0.5000 
     90 CA         -4.2868  -29.6679  -50.9981 C.3       16 UNK         0.1400 
     91 CB         -4.1319  -30.2605  -52.4141 C.3       16 UNK        -0.1800 
     92 C          -5.7241  -29.1673  -50.7266 C.2       16 UNK         0.5000 
     93 O          -6.6668  -29.6535  -51.3541 O.2       16 UNK        -0.5000 
     94 N          -5.8652  -28.1931  -49.8139 N.am      17 UNK        -0.5000 
     95 CA         -7.0949  -27.4689  -49.4730 C.3       17 UNK         0.1400 
     96 CB         -8.1078  -28.4020  -48.7775 C.3       17 UNK        -0.1800 
     97 C          -7.7089  -26.6885  -50.6577 C.2       17 UNK         0.5000 
     98 O          -8.9122  -26.4227  -50.6539 O.2       17 UNK        -0.5000 
     99 N          -6.8805  -26.3156  -51.6459 N.am      18 UNK        -0.5000 
    100 CA        -7.2962  -25.5789  -52.8423 C.3       18 UNK         0.1400 
    101 CB        -6.2282  -25.7483  -53.9342 C.3       18 UNK        -0.1800 
    102 C         -7.5592  -24.0828  -52.5844 C.2       18 UNK         0.5000 
    103 O         -8.1437  -23.4270  -53.4477 O.2       18 UNK        -0.5000 
    104 N         -7.1135  -23.5725  -51.4248 N.am      19 UNK        -0.5000 
    105 CA        -7.1518  -22.1697  -51.0021 C.3       19 UNK         0.1400 
    106 CB        -8.6008  -21.6604  -50.8523 C.3       19 UNK        -0.1800 
    107 C         -6.2803  -21.2916  -51.9200 C.2       19 UNK         0.5000 
    108 O         -6.7367  -20.2668  -52.4312 O.2       19 UNK        -0.5000 
    109 N         -5.0270  -21.7259  -52.1139 N.am      20 UNK        -0.5000 
    110 CA        -4.0064  -21.0884  -52.9518 C.3       20 UNK         0.1400 
    111 CB        -2.9247  -22.1323  -53.2833 C.3       20 UNK        -0.1800 
    112 C         -3.4197  -19.8083  -52.3128 C.2       20 UNK         0.5000 
    113 O         -2.2077  -19.7076  -52.1150 O.2       20 UNK        -0.5000 
    114 N         -4.3033  -18.8657  -51.9690 N.am      21 UNK        -0.5000 
    115 CA        -3.9848  -17.5611  -51.3969 C.3       21 UNK         0.1400 
    116 CB        -5.2673  -16.9696  -50.7912 C.3       21 UNK        -0.1800 
    117 C         -3.3750  -16.6061  -52.4394 C.2       21 UNK         0.5000 
    118 O         -3.5184  -16.8195  -53.6463 O.2       21 UNK        -0.5000 
    119 N         -2.7110  -15.5588  -51.9419 N.am      22 UNK        -0.5000 
    120 CA        -1.9520  -14.5839  -52.7433 C.3       22 UNK         0.1400 
    121 C         -2.8135  -13.5487  -53.5260 C.2       22 UNK         0.5000 
    122 N         -4.1226  -13.4762  -53.3195 N.am      22 UNK        -0.7600 
    123 O         -2.2824  -12.7988  -54.3405 O.2       22 UNK        -0.5000 
    124 C124       -0.8620  -13.8667  -51.9002 C.3       23 UNK        -0.0398 
    125 S125        0.0972  -14.9516  -50.7835 S.3       23 UNK        -0.2404 
    126 C126        0.7926  -16.1811  -51.9341 C.3       23 UNK        -0.0205 
    127 H127        1.8405  -11.7504  -52.2143 H         1 UNK         0.0600 
    128 H128        3.4544  -12.1046  -52.8408 H         1 UNK         0.0600 
    129 H129        2.4187  -13.4202  -52.2903 H         1 UNK         0.0600 
    130 H130        2.5857  -14.0453  -50.1338 H         1 UNK         0.3000 
    131 H131        4.5877  -12.7404  -48.4329 H         1 UNK         0.0600 
    132 H132        3.1181  -15.3914  -48.0524 H         1 UNK         0.0800 
    133 H133        4.3870  -14.7854  -47.0196 H         1 UNK         0.0800 
    134 H134        5.6956  -17.8516  -49.4769 H         1 UNK         0.0800 
    135 H135        4.7585  -17.6001  -48.0251 H         1 UNK         0.0800 
    136 H136        3.1143  -15.7674  -50.6504 H         1 UNK         0.1150 
    137 H137        0.3448  -18.8619  -51.6204 H         1 UNK         0.1150 
    138 H138        3.8114  -19.7488  -49.2494 H         1 UNK         0.1150 
    139 H139        0.5117  -21.0163  -50.4613 H         1 UNK         0.0800 
    140 H140        1.9230  -21.3718  -51.4245 H         1 UNK         0.0800 
    141 H141        0.8713  -20.3982  -47.9530 H         1 UNK         0.0800 
    142 H142        2.0719  -21.1308  -46.9322 H         1 UNK         0.0800 
    143 H143        0.7922  -23.3027  -46.9849 H         1 UNK         0.0600 
    144 H144        0.1234  -21.0066  -45.5154 H         1 UNK         0.3000 
    145 H145       -2.3876  -22.4540  -43.3983 H         1 UNK         0.0600 
    146 H146       -0.8177  -21.4848  -41.7374 H         1 UNK         0.0600 
    147 H147       -0.1604  -22.9641  -42.4208 H         1 UNK         0.0600 
    148 H148        0.4572  -21.4064  -42.9513 H         1 UNK         0.0600 
    149 H149       -1.3946  -19.7952  -43.5714 H         1 UNK         0.3000 
    150 H150       -3.7522  -18.6142  -46.0237 H         1 UNK         0.0600 
    151 H151       -4.8779  -18.5284  -43.7916 H         1 UNK         0.0600 
    152 H152       -4.1539  -16.9832  -44.2105 H         1 UNK         0.0600 
    153 H153       -3.3647  -18.0370  -43.0394 H         1 UNK         0.0600 
    154 H154       -1.6620  -17.2519  -44.6806 H         1 UNK         0.3000 
    155 H155        0.9597  -17.9795  -47.0470 H         1 UNK         0.0600 
    156 H156       -0.2303  -16.0194  -47.9101 H         1 UNK         0.0600 
    157 H157        1.0459  -15.4723  -46.8322 H         1 UNK         0.0600 
    158 H158       -0.6285  -15.4730  -46.2889 H         1 UNK         0.0600 
    159 H159        1.0288  -16.5524  -44.5888 H         1 UNK         0.3000 
    160 H160        1.6761  -19.3275  -42.4257 H         1 UNK         0.0600 
    161 H161        3.6185  -17.8396  -41.8755 H         1 UNK         0.0600 
    162 H162        3.4821  -17.0792  -43.4608 H         1 UNK         0.0600 
    163 H163        3.8894  -18.7815  -43.3338 H         1 UNK         0.0600 
    164 H164        1.3742  -16.4367  -42.1996 H         1 UNK         0.3000 
    165 H165       -2.0653  -16.5504  -41.2661 H         1 UNK         0.0600 
    166 H166       -1.2154  -15.4563  -39.2111 H         1 UNK         0.0600 
    167 H167       -0.8837  -17.1802  -39.1574 H         1 UNK         0.0600 
    168 H168        0.4139  -16.0520  -39.5311 H         1 UNK         0.0600 
    169 H169       -0.1214  -14.4418  -41.3380 H         1 UNK         0.3000 
    170 H170       -0.4498  -13.6199  -44.7737 H         1 UNK         0.0600 
    171 H171       -2.5127  -12.6071  -43.7712 H         1 UNK         0.0600 
    172 H172       -1.5872  -12.1274  -42.3531 H         1 UNK         0.0600 
    173 H173       -1.2169  -11.4341  -43.9321 H         1 UNK         0.0600 
    174 H174        0.9088  -12.1337  -42.9198 H         1 UNK         0.3000 
    175 H175        3.1391  -12.8614  -41.8560 H         1 UNK         0.0600 
    176 H176        5.3772  -13.5407  -42.7709 H         1 UNK         0.0600 
    177 H177        4.3805  -14.9426  -42.4143 H         1 UNK         0.0600 
    178 H178        4.5829  -14.4120  -44.0817 H         1 UNK         0.0600 
    179 H179        3.1609  -12.1378  -44.7330 H         1 UNK         0.3000 
    180 H180        3.2550   -8.7497  -43.9979 H         1 UNK         0.0600 
    181 H181        5.7088  -10.1296  -45.2184 H         1 UNK         0.0600 
    182 H182        5.7402   -8.9769  -43.8895 H         1 UNK         0.0600 
    183 H183        5.2273   -8.4531  -45.4850 H         1 UNK         0.0600 
    184 H184        3.5911  -10.2099  -46.4580 H         1 UNK         0.3000 
    185 H185        0.3244  -11.3457  -46.8688 H         1 UNK         0.0600 
    186 H186        0.1747   -9.9281  -48.8968 H         1 UNK         0.0600 
    187 H187       -0.1162   -8.9547  -47.4643 H         1 UNK         0.0600 
    188 H188        1.4396   -8.8633  -48.2821 H         1 UNK         0.0600 
    189 H189        2.4065  -11.1028  -48.7751 H         1 UNK         0.3000 
    190 H190       -1.7363  -20.8330  -47.6372 H         1 UNK         0.3000 
    191 H191       -2.7325  -21.8647  -50.0380 H         1 UNK         0.0600 
    192 H192       -4.2221  -20.3556  -47.8207 H         1 UNK         0.0600 
    193 H193       -4.7586  -20.5083  -49.4816 H         1 UNK         0.0600 
    194 H194       -3.2883  -19.6209  -49.1180 H         1 UNK         0.0600 
    195 H195       -3.5543  -22.7825  -46.6953 H         1 UNK         0.3000 
    196 H196       -5.6258  -24.6754  -47.4291 H         1 UNK         0.0600 
    197 H197       -4.0777  -24.2821  -44.8132 H         1 UNK         0.0600 
    198 H198       -5.5104  -25.2839  -45.0160 H         1 UNK         0.0600 
    199 H199       -5.6216  -23.5420  -45.2254 H         1 UNK         0.0600 
    200 H200       -2.1573  -24.9329  -46.4913 H         1 UNK         0.3000 
    201 H201       -1.9491  -27.7367  -46.5246 H         1 UNK         0.0600 
    202 H202        0.1964  -25.6185  -47.0636 H         1 UNK         0.0600 
    203 H203        0.5066  -27.2989  -46.6482 H         1 UNK         0.0600 
    204 H204       -0.2690  -26.2414  -45.4803 H         1 UNK         0.0600 
    205 H205       -1.8715  -25.4677  -49.2015 H         1 UNK         0.3000 
    206 H206       -0.9803  -27.2620  -51.2660 H         1 UNK         0.0600 
    207 H207       -0.8225  -24.7901  -51.4479 H         1 UNK         0.0600 
    208 H208       -1.8101  -25.4325  -52.7516 H         1 UNK         0.0600 
    209 H209       -2.5774  -24.6513  -51.3731 H         1 UNK         0.0600 
    210 H210       -2.5018  -28.9477  -50.1156 H         1 UNK         0.3000 
    211 H211       -4.1091  -30.4707  -50.2814 H         1 UNK         0.0600 
    212 H212       -4.3495  -29.5201  -53.1849 H         1 UNK         0.0600 
    213 H213       -4.8084  -31.1022  -52.5667 H         1 UNK         0.0600 
    214 H214       -3.1194  -30.6287  -52.5792 H         1 UNK         0.0600 
    215 H215       -5.0380  -27.8681  -49.3247 H         1 UNK         0.3000 
    216 H216       -6.8056  -26.7094  -48.7465 H         1 UNK         0.0600 
    217 H217       -7.6485  -28.9258  -47.9392 H         1 UNK         0.0600 
    218 H218       -8.9524  -27.8377  -48.3805 H         1 UNK         0.0600 
    219 H219       -8.5087  -29.1495  -49.4624 H         1 UNK         0.0600 
    220 H220       -5.9002  -26.5797  -51.6010 H         1 UNK         0.3000 
    221 H221       -8.2265  -26.0173  -53.2095 H         1 UNK         0.0600 
    222 H222       -5.2892  -25.2687  -53.6548 H         1 UNK         0.0600 
    223 H223       -6.0234  -26.8013  -54.1287 H         1 UNK         0.0600 
    224 H224       -6.5552  -25.3014  -54.8738 H         1 UNK         0.0600 
    225 H225       -6.6070  -24.1956  -50.8104 H         1 UNK         0.3000 
    226 H226       -6.6963  -22.1315  -50.0122 H         1 UNK         0.0600 
    227 H227       -9.1807  -22.3112  -50.1980 H         1 UNK         0.0600 
    228 H228       -8.6161  -20.6619  -50.4141 H         1 UNK         0.0600 
    229 H229       -9.1177  -21.6011  -51.8102 H         1 UNK         0.0600 
    230 H230       -4.7446  -22.5683  -51.6296 H         1 UNK         0.3000 
    231 H231       -4.4753  -20.7892  -53.8915 H         1 UNK         0.0600 
    232 H232       -3.3572  -23.0193  -53.7470 H         1 UNK         0.0600 
    233 H233       -2.3838  -22.4491  -52.3916 H         1 UNK         0.0600 
    234 H234       -2.1922  -21.7264  -53.9821 H         1 UNK         0.0600 
    235 H235       -5.2804  -19.0471  -52.1786 H         1 UNK         0.3000 
    236 H236       -3.2533  -17.7042  -50.5988 H         1 UNK         0.0600 
    237 H237       -5.0730  -16.0094  -50.3121 H         1 UNK         0.0600 
    238 H238       -6.0335  -16.8101  -51.5511 H         1 UNK         0.0600 
    239 H239       -5.6833  -17.6309  -50.0306 H         1 UNK         0.0600 
    240 H240       -2.6432  -15.4453  -50.9411 H         1 UNK         0.3000 
    241 H241       -1.4326  -15.1502  -53.5182 H         1 UNK         0.0600 
    242 H242       -4.6709  -12.8052  -53.8346 H         1 UNK         0.3800 
    243 H243       -4.5716  -14.0919  -52.6610 H         1 UNK         0.3800 
    244 H244       -0.1630  -13.3470  -52.5570 H         1 UNK         0.0800 
    245 H245       -1.3181  -13.0953  -51.2772 H         1 UNK         0.0800 
    246 H246        1.4019  -15.6810  -52.6879 H         1 UNK         0.0800 
    247 H247       -0.0156  -16.6849  -52.4652 H         1 UNK         0.0800 
@<TRIPOS>BOND
     1    1    2 1    
     2    1  127 1    
     3    1  128 1    
     4    1  129 1    
     5    2    3 2    
     6    2    4 am   BACKBONE|DICT|INTERRES
     7    4    5 1    
     8    4  130 1    
     9    5    6 1    
    10    5   65 1    
    11    5  131 1    
    12    6    7 1    
    13    6  132 1    
    14    6  133 1    
    15    7    8 1    
    16    8    9 1    
    17    8  134 1    
    18    8  135 1    
    19    9   10 ar   
    20    9   14 ar   
    21   10   11 ar   
    22   10  136 1    
    23   11   12 ar   
    24   11  126 1    
    25   12   13 ar   
    26   12  137 1    
    27   13   14 ar   
    28   13   15 1    
    29   14  138 1    
    30   15   16 1    
    31   15  139 1    
    32   15  140 1    
    33   16   17 1    
    34   17   18 1    
    35   17  141 1    
    36   17  142 1    
    37   18   19 1    
    38   18   67 1    
    39   18  143 1    
    40   19   20 am   BACKBONE|DICT|INTERRES
    41   19  144 1    
    42   20   21 2    
    43   20   22 1    
    44   22   23 1    
    45   22   24 1    
    46   22  145 1    
    47   23  146 1    
    48   23  147 1    
    49   23  148 1    
    50   24   25 am   BACKBONE|DICT|INTERRES
    51   24  149 1    
    52   25   26 2    
    53   25   27 1    
    54   27   28 1    
    55   27   29 1    
    56   27  150 1    
    57   28  151 1    
    58   28  152 1    
    59   28  153 1    
    60   29   30 am   BACKBONE|DICT|INTERRES
    61   29  154 1    
    62   30   31 2    
    63   30   32 1    
    64   32   33 1    
    65   32   34 1    
    66   32  155 1    
    67   33  156 1    
    68   33  157 1    
    69   33  158 1    
    70   34   35 am   BACKBONE|DICT|INTERRES
    71   34  159 1    
    72   35   36 2    
    73   35   37 1    
    74   37   38 1    
    75   37   39 1    
    76   37  160 1    
    77   38  161 1    
    78   38  162 1    
    79   38  163 1    
    80   39   40 am   BACKBONE|DICT|INTERRES
    81   39  164 1    
    82   40   41 2    
    83   40   42 1    
    84   42   43 1    
    85   42   44 1    
    86   42  165 1    
    87   43  166 1    
    88   43  167 1    
    89   43  168 1    
    90   44   45 am   BACKBONE|DICT|INTERRES
    91   44  169 1    
    92   45   46 2    
    93   45   47 1    
    94   47   48 1    
    95   47   49 1    
    96   47  170 1    
    97   48  171 1    
    98   48  172 1    
    99   48  173 1    
   100   49   50 am   BACKBONE|DICT|INTERRES
   101   49  174 1    
   102   50   51 2    
   103   50   52 1    
   104   52   53 1    
   105   52   54 1    
   106   52  175 1    
   107   53  176 1    
   108   53  177 1    
   109   53  178 1    
   110   54   55 am   BACKBONE|DICT|INTERRES
   111   54  179 1    
   112   55   56 2    
   113   55   57 1    
   114   57   58 1    
   115   57   59 1    
   116   57  180 1    
   117   58  181 1    
   118   58  182 1    
   119   58  183 1    
   120   59   60 am   BACKBONE|DICT|INTERRES
   121   59  184 1    
   122   60   61 2    
   123   60   62 1    
   124   62   63 1    
   125   62   64 1    
   126   62  185 1    
   127   63  186 1    
   128   63  187 1    
   129   63  188 1    
   130   64   65 am   BACKBONE|DICT|INTERRES
   131   64  189 1    
   132   65   66 2    
   133   67   68 2    
   134   67   69 am   BACKBONE|DICT|INTERRES
   135   69   70 1    
   136   69  190 1    
   137   70   71 1    
   138   70   72 1    
   139   70  191 1    
   140   71  192 1    
   141   71  193 1    
   142   71  194 1    
   143   72   73 2    
   144   72   74 am   BACKBONE|DICT|INTERRES
   145   74   75 1    
   146   74  195 1    
   147   75   76 1    
   148   75   77 1    
   149   75  196 1    
   150   76  197 1    
   151   76  198 1    
   152   76  199 1    
   153   77   78 2    
   154   77   79 am   BACKBONE|DICT|INTERRES
   155   79   80 1    
   156   79  200 1    
   157   80   81 1    
   158   80   82 1    
   159   80  201 1    
   160   81  202 1    
   161   81  203 1    
   162   81  204 1    
   163   82   83 2    
   164   82   84 am   BACKBONE|DICT|INTERRES
   165   84   85 1    
   166   84  205 1    
   167   85   86 1    
   168   85   87 1    
   169   85  206 1    
   170   86  207 1    
   171   86  208 1    
   172   86  209 1    
   173   87   88 2    
   174   87   89 am   BACKBONE|DICT|INTERRES
   175   89   90 1    
   176   89  210 1    
   177   90   91 1    
   178   90   92 1    
   179   90  211 1    
   180   91  212 1    
   181   91  213 1    
   182   91  214 1    
   183   92   93 2    
   184   92   94 am   BACKBONE|DICT|INTERRES
   185   94   95 1    
   186   94  215 1    
   187   95   96 1    
   188   95   97 1    
   189   95  216 1    
   190   96  217 1    
   191   96  218 1    
   192   96  219 1    
   193   97   98 2    
   194   97   99 am   BACKBONE|DICT|INTERRES
   195   99  100 1    
   196   99  220 1    
   197  100  101 1    
   198  100  102 1    
   199  100  221 1    
   200  101  222 1    
   201  101  223 1    
   202  101  224 1    
   203  102  103 2    
   204  102  104 am   BACKBONE|DICT|INTERRES
   205  104  105 1    
   206  104  225 1    
   207  105  106 1    
   208  105  107 1    
   209  105  226 1    
   210  106  227 1    
   211  106  228 1    
   212  106  229 1    
   213  107  108 2    
   214  107  109 am   BACKBONE|DICT|INTERRES
   215  109  110 1    
   216  109  230 1    
   217  110  111 1    
   218  110  112 1    
   219  110  231 1    
   220  111  232 1    
   221  111  233 1    
   222  111  234 1    
   223  112  113 2    
   224  112  114 am   BACKBONE|DICT|INTERRES
   225  114  115 1    
   226  114  235 1    
   227  115  116 1    
   228  115  117 1    
   229  115  236 1    
   230  116  237 1    
   231  116  238 1    
   232  116  239 1    
   233  117  118 2    
   234  117  119 am   BACKBONE|DICT|INTERRES
   235  119  120 1    
   236  119  240 1    
   237  120  121 1    
   238  120  124 1    
   239  120  241 1    
   240  121  122 am   BACKBONE|DICT|INTERRES
   241  121  123 2    
   242  122  242 1    
   243  122  243 1    
   244  124  125 1    
   245  124  244 1    
   246  124  245 1    
   247  125  126 1    
   248  126  246 1    
   249  126  247 1    
@<TRIPOS>SUBSTRUCTURE
     1 UNK         1 GROUP             0       ****    0 ROOT    
