@<TRIPOS>MOLECULE
3R540
247   249    1
SMALL
USER_CHARGES


@<TRIPOS>ATOM
      1 CA          5.7593  -10.7624  -48.5533 C.3       0 UNK        -0.1800 
      2 C           6.0694  -12.2403  -48.3626 C.2       0 UNK         0.5000 
      3 O           7.1745  -12.5857  -47.9443 O.2       0 UNK        -0.5000 
      4 N           5.0995  -13.1118  -48.6680 N.am      1 UNK        -0.5000 
      5 CA          5.2072  -14.5725  -48.5430 C.3       1 UNK         0.1400 
      6 C6          4.0598  -15.3001  -49.2813 C.3       23 UNK        -0.0398 
      7 S7          4.0797  -14.9925  -51.0801 S.3       23 UNK        -0.2404 
      8 C8          4.5680  -16.6250  -51.7304 C.3       23 UNK        -0.0205 
      9 C9          3.5387  -17.7030  -51.4166 C.ar      23 UNK        -0.0193 
     10 C10         2.2410  -17.6031  -51.9255 C.ar      23 UNK        -0.1150 
     11 C11         1.2810  -18.5704  -51.6192 C.ar      23 UNK        -0.0193 
     12 C12         1.6334  -19.6594  -50.8191 C.ar      23 UNK        -0.1150 
     13 C13         2.9281  -19.7736  -50.3047 C.ar      23 UNK        -0.0193 
     14 C14         3.8774  -18.7934  -50.6087 C.ar      23 UNK        -0.1150 
     15 C15         3.3055  -20.9636  -49.4350 C.3       23 UNK        -0.0205 
     16 S16         3.4333  -20.5447  -47.6639 S.3       23 UNK        -0.2404 
     17 C17         1.7530  -19.9781  -47.2268 C.3       23 UNK        -0.0398 
     18 CA          0.7763  -21.1391  -46.8952 C.3       11 UNK         0.1400 
     19 N          -0.1120  -20.8305  -45.7702 N.am      11 UNK        -0.5000 
     20 C          -0.9481  -21.7047  -45.1899 C.2       10 UNK         0.5000 
     21 O          -0.9901  -22.9008  -45.4765 O.2       10 UNK        -0.5000 
     22 CA         -1.9499  -21.1386  -44.1642 C.3       10 UNK         0.1400 
     23 CB         -1.3291  -21.0672  -42.7616 C.3       10 UNK        -0.1800 
     24 N          -2.4651  -19.8240  -44.5555 N.am      10 UNK        -0.5000 
     25 C          -3.2154  -19.6108  -45.6464 C.2       9 UNK         0.5000 
     26 O          -3.6190  -20.5150  -46.3757 O.2       9 UNK        -0.5000 
     27 CA         -3.5173  -18.1495  -46.0246 C.3       9 UNK         0.1400 
     28 CB         -4.7433  -17.6281  -45.2618 C.3       9 UNK        -0.1800 
     29 N          -2.3740  -17.2618  -45.8036 N.am      9 UNK        -0.5000 
     30 C          -1.2093  -17.3424  -46.4636 C.2       8 UNK         0.5000 
     31 O          -1.0018  -18.1381  -47.3793 O.2       8 UNK        -0.5000 
     32 CA         -0.0646  -16.4311  -45.9791 C.3       8 UNK         0.1400 
     33 CB         -0.1841  -15.0211  -46.5745 C.3       8 UNK        -0.1800 
     34 N          -0.0011  -16.3524  -44.5182 N.am      8 UNK        -0.5000 
     35 C           0.2981  -17.3896  -43.7229 C.2       7 UNK         0.5000 
     36 O           0.6258  -18.4958  -44.1495 O.2       7 UNK        -0.5000 
     37 CA          0.1467  -17.1797  -42.2051 C.3       7 UNK         0.1400 
     38 CB          1.4161  -16.5853  -41.5796 C.3       7 UNK        -0.1800 
     39 N          -0.9991  -16.3315  -41.8844 N.am      7 UNK        -0.5000 
     40 C          -2.2759  -16.7244  -41.9862 C.2       6 UNK         0.5000 
     41 O          -2.6155  -17.8590  -42.3203 O.2       6 UNK        -0.5000 
     42 CA         -3.3491  -15.6554  -41.7093 C.3       6 UNK         0.1400 
     43 CB         -3.6367  -15.5543  -40.2041 C.3       6 UNK        -0.1800 
     44 N          -2.9693  -14.3367  -42.2204 N.am      6 UNK        -0.5000 
     45 C          -2.8388  -14.0396  -43.5212 C.2       5 UNK         0.5000 
     46 O          -3.0724  -14.8367  -44.4278 O.2       5 UNK        -0.5000 
     47 CA         -2.3093  -12.6353  -43.8653 C.3       5 UNK         0.1400 
     48 CB         -3.4688  -11.6347  -43.9784 C.3       5 UNK        -0.1800 
     49 N          -1.3273  -12.1360  -42.8988 N.am      5 UNK        -0.5000 
     50 C          -0.1331  -12.6957  -42.6673 C.2       4 UNK         0.5000 
     51 O           0.2736  -13.7118  -43.2377 O.2       4 UNK        -0.5000 
     52 CA          0.7186  -12.0422  -41.5741 C.3       4 UNK         0.1400 
     53 CB          0.2880  -12.5399  -40.1830 C.3       4 UNK        -0.1800 
     54 N           2.1235  -12.3686  -41.7922 N.am      4 UNK        -0.5000 
     55 C           3.1557  -11.5842  -41.4615 C.2       3 UNK         0.5000 
     56 O           3.0243  -10.4820  -40.9266 O.2       3 UNK        -0.5000 
     57 CA          4.5781  -12.1075  -41.7505 C.3       3 UNK         0.1400 
     58 CB          5.2826  -12.4880  -40.4381 C.3       3 UNK        -0.1800 
     59 N           4.6291  -13.2595  -42.6546 N.am      3 UNK        -0.5000 
     60 C           4.4463  -13.2033  -43.9787 C.2       2 UNK         0.5000 
     61 O           4.1603  -12.1715  -44.5928 O.2       2 UNK        -0.5000 
     62 CA          4.6073  -14.5304  -44.7333 C.3       2 UNK         0.1400 
     63 CB          3.4400  -15.4870  -44.4389 C.3       2 UNK        -0.1800 
     64 N           4.6716  -14.2608  -46.1627 N.am      2 UNK        -0.5000 
     65 C           5.2553  -15.0454  -47.0748 C.2       1 UNK         0.5000 
     66 O           5.8088  -16.1117  -46.8027 O.2       1 UNK        -0.5000 
     67 C          -0.0304  -21.5682  -48.1376 C.2       11 UNK         0.5000 
     68 O           0.2763  -22.6014  -48.7293 O.2       11 UNK        -0.5000 
     69 N          -1.0725  -20.7976  -48.4863 N.am      12 UNK        -0.5000 
     70 CA         -1.9995  -21.0923  -49.5825 C.3       12 UNK         0.1400 
     71 CB         -3.0092  -19.9434  -49.7391 C.3       12 UNK        -0.1800 
     72 C          -2.7238  -22.4379  -49.3970 C.2       12 UNK         0.5000 
     73 O          -2.7877  -23.2251  -50.3402 O.2       12 UNK        -0.5000 
     74 N          -3.2020  -22.6981  -48.1724 N.am      13 UNK        -0.5000 
     75 CA         -3.8232  -23.9592  -47.7701 C.3       13 UNK         0.1400 
     76 CB         -4.4131  -23.8233  -46.3597 C.3       13 UNK        -0.1800 
     77 C          -2.8762  -25.1682  -47.8586 C.2       13 UNK         0.5000 
     78 O          -3.3213  -26.2489  -48.2394 O.2       13 UNK        -0.5000 
     79 N          -1.5916  -24.9734  -47.5368 N.am      14 UNK        -0.5000 
     80 CA         -0.5529  -25.9898  -47.6978 C.3       14 UNK         0.1400 
     81 CB          0.6919  -25.5878  -46.8913 C.3       14 UNK        -0.1800 
     82 C          -0.1993  -26.2316  -49.1779 C.2       14 UNK         0.5000 
     83 O          -0.0568  -27.3841  -49.5877 O.2       14 UNK        -0.5000 
     84 N          -0.0622  -25.1440  -49.9473 N.am      15 UNK        -0.5000 
     85 CA          0.3468  -25.1554  -51.3504 C.3       15 UNK         0.1400 
     86 CB          0.7505  -23.7328  -51.7734 C.3       15 UNK        -0.1800 
     87 C          -0.7233  -25.7160  -52.3031 C.2       15 UNK         0.5000 
     88 O          -0.3993  -26.5496  -53.1501 O.2       15 UNK        -0.5000 
     89 N          -1.9643  -25.2323  -52.1689 N.am      16 UNK        -0.5000 
     90 CA         -3.0591  -25.4828  -53.1109 C.3       16 UNK         0.1400 
     91 CB         -3.6420  -24.1258  -53.5393 C.3       16 UNK        -0.1800 
     92 C          -4.1517  -26.4075  -52.5424 C.2       16 UNK         0.5000 
     93 O          -5.1792  -26.5884  -53.1957 O.2       16 UNK        -0.5000 
     94 N          -3.9304  -26.9608  -51.3403 N.am      17 UNK        -0.5000 
     95 CA         -4.8174  -27.8419  -50.5598 C.3       17 UNK         0.1400 
     96 CB         -5.2290  -29.0948  -51.3602 C.3       17 UNK        -0.1800 
     97 C          -6.0405  -27.1343  -49.9320 C.2       17 UNK         0.5000 
     98 O          -6.7446  -27.7465  -49.1274 O.2       17 UNK        -0.5000 
     99 N          -6.2568  -25.8610  -50.2717 N.am      18 UNK        -0.5000 
    100 CA        -7.2654  -24.9587  -49.7361 C.3       18 UNK         0.1400 
    101 CB        -8.6441  -25.2657  -50.3462 C.3       18 UNK        -0.1800 
    102 C         -6.8143  -23.5374  -50.0892 C.2       18 UNK         0.5000 
    103 O         -6.1875  -23.3442  -51.1333 O.2       18 UNK        -0.5000 
    104 N         -7.1407  -22.5585  -49.2381 N.am      19 UNK        -0.5000 
    105 CA        -6.7436  -21.1522  -49.3830 C.3       19 UNK         0.1400 
    106 CB        -6.7739  -20.4794  -47.9992 C.3       19 UNK        -0.1800 
    107 C         -7.5757  -20.3847  -50.4375 C.2       19 UNK         0.5000 
    108 O         -7.9507  -19.2316  -50.2187 O.2       19 UNK        -0.5000 
    109 N         -7.8470  -21.0307  -51.5765 N.am      20 UNK        -0.5000 
    110 CA        -8.6583  -20.5416  -52.6907 C.3       20 UNK         0.1400 
    111 CB        -9.2462  -21.7579  -53.4293 C.3       20 UNK        -0.1800 
    112 C         -7.8570  -19.6056  -53.6198 C.2       20 UNK         0.5000 
    113 O         -7.7897  -19.8413  -54.8269 O.2       20 UNK        -0.5000 
    114 N         -7.2588  -18.5627  -53.0264 N.am      21 UNK        -0.5000 
    115 CA        -6.4179  -17.5386  -53.6575 C.3       21 UNK         0.1400 
    116 CB        -7.2399  -16.6785  -54.6412 C.3       21 UNK        -0.1800 
    117 C         -5.1248  -18.1106  -54.2807 C.2       21 UNK         0.5000 
    118 O         -4.7027  -17.6643  -55.3495 O.2       21 UNK        -0.5000 
    119 N         -4.5042  -19.0673  -53.5750 N.am      22 UNK        -0.5000 
    120 CA        -3.2604  -19.7585  -53.9586 C.3       22 UNK         0.1400 
    121 C         -3.4319  -20.7387  -55.1617 C.2       22 UNK         0.5000 
    122 N         -2.3437  -21.2251  -55.7440 N.am      22 UNK        -0.7600 
    123 O         -4.5386  -21.1021  -55.5515 O.2       22 UNK        -0.5000 
    124 C124       -2.0706  -18.7649  -54.1286 C.3       23 UNK        -0.0398 
    125 S125       -0.4637  -19.4445  -53.5871 S.3       23 UNK        -0.2404 
    126 C126       -0.1431  -18.4153  -52.1232 C.3       23 UNK        -0.0205 
    127 H127        6.4721  -10.3154  -49.2462 H         1 UNK         0.0600 
    128 H128        5.8331  -10.2385  -47.6003 H         1 UNK         0.0600 
    129 H129        4.7559  -10.6064  -48.9503 H         1 UNK         0.0600 
    130 H130        4.2220  -12.7686  -49.0321 H         1 UNK         0.3000 
    131 H131        6.1503  -14.8772  -49.0024 H         1 UNK         0.0600 
    132 H132        4.1132  -16.3745  -49.0995 H         1 UNK         0.0800 
    133 H133        3.0906  -14.9825  -48.8926 H         1 UNK         0.0800 
    134 H134        4.6870  -16.5534  -52.8123 H         1 UNK         0.0800 
    135 H135        5.5477  -16.8904  -51.3299 H         1 UNK         0.0800 
    136 H136        1.9749  -16.7571  -52.5438 H         1 UNK         0.1150 
    137 H137        0.8961  -20.4158  -50.5969 H         1 UNK         0.1150 
    138 H138        4.8780  -18.8793  -50.2083 H         1 UNK         0.1150 
    139 H139        2.5986  -21.7814  -49.5687 H         1 UNK         0.0800 
    140 H140        4.2692  -21.3521  -49.7673 H         1 UNK         0.0800 
    141 H141        1.3662  -19.3076  -47.9956 H         1 UNK         0.0800 
    142 H142        1.8835  -19.3462  -46.3480 H         1 UNK         0.0800 
    143 H143        1.3632  -22.0043  -46.5789 H         1 UNK         0.0600 
    144 H144       -0.0964  -19.8772  -45.4237 H         1 UNK         0.3000 
    145 H145       -2.7983  -21.8241  -44.1178 H         1 UNK         0.0600 
    146 H146       -2.0458  -20.6917  -42.0312 H         1 UNK         0.0600 
    147 H147       -1.0119  -22.0560  -42.4282 H         1 UNK         0.0600 
    148 H148       -0.4540  -20.4195  -42.7360 H         1 UNK         0.0600 
    149 H149       -2.2302  -19.0390  -43.9582 H         1 UNK         0.3000 
    150 H150       -3.7517  -18.1273  -47.0907 H         1 UNK         0.0600 
    151 H151       -5.6130  -18.2607  -45.4439 H         1 UNK         0.0600 
    152 H152       -5.0036  -16.6180  -45.5782 H         1 UNK         0.0600 
    153 H153       -4.5714  -17.6075  -44.1859 H         1 UNK         0.0600 
    154 H154       -2.4953  -16.5265  -45.1127 H         1 UNK         0.3000 
    155 H155        0.8749  -16.8631  -46.3303 H         1 UNK         0.0600 
    156 H156       -0.1537  -15.0569  -47.6641 H         1 UNK         0.0600 
    157 H157        0.6356  -14.3816  -46.2463 H         1 UNK         0.0600 
    158 H158       -1.1191  -14.5400  -46.2894 H         1 UNK         0.0600 
    159 H159       -0.1983  -15.4522  -44.0935 H         1 UNK         0.3000 
    160 H160       -0.0161  -18.1604  -41.7531 H         1 UNK         0.0600 
    161 H161        1.6180  -15.5799  -41.9464 H         1 UNK         0.0600 
    162 H162        2.2858  -17.2045  -41.8021 H         1 UNK         0.0600 
    163 H163        1.3284  -16.5301  -40.4944 H         1 UNK         0.0600 
    164 H164       -0.8029  -15.3690  -41.6553 H         1 UNK         0.3000 
    165 H165       -4.2669  -15.9654  -42.2134 H         1 UNK         0.0600 
    166 H166       -4.4471  -14.8533  -40.0039 H         1 UNK         0.0600 
    167 H167       -3.9376  -16.5215  -39.7990 H         1 UNK         0.0600 
    168 H168       -2.7599  -15.2229  -39.6461 H         1 UNK         0.0600 
    169 H169       -2.7647  -13.6213  -41.5387 H         1 UNK         0.3000 
    170 H170       -1.8174  -12.6972  -44.8380 H         1 UNK         0.0600 
    171 H171       -4.2056  -11.9725  -44.7085 H         1 UNK         0.0600 
    172 H172       -3.9852  -11.5055  -43.0264 H         1 UNK         0.0600 
    173 H173       -3.1153  -10.6565  -44.3049 H         1 UNK         0.0600 
    174 H174       -1.5894  -11.3093  -42.3811 H         1 UNK         0.3000 
    175 H175        0.5764  -10.9611  -41.6366 H         1 UNK         0.0600 
    176 H176        0.4201  -13.6182  -40.0835 H         1 UNK         0.0600 
    177 H177        0.8696  -12.0597  -39.3959 H         1 UNK         0.0600 
    178 H178       -0.7618  -12.3163  -39.9899 H         1 UNK         0.0600 
    179 H179        2.2891  -13.2309  -42.2930 H         1 UNK         0.3000 
    180 H180        5.1355  -11.2875  -42.2086 H         1 UNK         0.0600 
    181 H181        4.7752  -13.3114  -39.9337 H         1 UNK         0.0600 
    182 H182        5.3065  -11.6449  -39.7463 H         1 UNK         0.0600 
    183 H183        6.3157  -12.7873  -40.6162 H         1 UNK         0.0600 
    184 H184        4.8540  -14.1472  -42.2289 H         1 UNK         0.3000 
    185 H185        5.5459  -14.9884  -44.4136 H         1 UNK         0.0600 
    186 H186        3.4631  -15.8073  -43.3991 H         1 UNK         0.0600 
    187 H187        2.4772  -15.0096  -44.6222 H         1 UNK         0.0600 
    188 H188        3.4892  -16.3883  -45.0502 H         1 UNK         0.0600 
    189 H189        4.2979  -13.3609  -46.4376 H         1 UNK         0.3000 
    190 H190       -1.2297  -19.9346  -47.9720 H         1 UNK         0.3000 
    191 H191       -1.4121  -21.1543  -50.5005 H         1 UNK         0.0600 
    192 H192       -2.5127  -18.9757  -49.7994 H         1 UNK         0.0600 
    193 H193       -3.5981  -20.0676  -50.6478 H         1 UNK         0.0600 
    194 H194       -3.7062  -19.8976  -48.9035 H         1 UNK         0.0600 
    195 H195       -3.1513  -21.9683  -47.4652 H         1 UNK         0.3000 
    196 H196       -4.6432  -24.1521  -48.4589 H         1 UNK         0.0600 
    197 H197       -4.9208  -24.7406  -46.0593 H         1 UNK         0.0600 
    198 H198       -5.1441  -23.0166  -46.3126 H         1 UNK         0.0600 
    199 H199       -3.6400  -23.6183  -45.6195 H         1 UNK         0.0600 
    200 H200       -1.3041  -24.0713  -47.1735 H         1 UNK         0.3000 
    201 H201       -0.9266  -26.9299  -47.2863 H         1 UNK         0.0600 
    202 H202        0.4541  -25.4717  -45.8337 H         1 UNK         0.0600 
    203 H203        1.1177  -24.6475  -47.2412 H         1 UNK         0.0600 
    204 H204        1.4692  -26.3489  -46.9693 H         1 UNK         0.0600 
    205 H205       -0.1495  -24.2288  -49.5108 H         1 UNK         0.3000 
    206 H206        1.2302  -25.7917  -51.4360 H         1 UNK         0.0600 
    207 H207        1.5890  -23.3695  -51.1797 H         1 UNK         0.0600 
    208 H208        1.0583  -23.7057  -52.8194 H         1 UNK         0.0600 
    209 H209       -0.0724  -23.0269  -51.6545 H         1 UNK         0.0600 
    210 H210       -2.1553  -24.5450  -51.4405 H         1 UNK         0.3000 
    211 H211       -2.6816  -25.9731  -54.0102 H         1 UNK         0.0600 
    212 H212       -4.0638  -23.5815  -52.6950 H         1 UNK         0.0600 
    213 H213       -4.4322  -24.2454  -54.2813 H         1 UNK         0.0600 
    214 H214       -2.8720  -23.4982  -53.9866 H         1 UNK         0.0600 
    215 H215       -3.0660  -26.7142  -50.8775 H         1 UNK         0.3000 
    216 H216       -4.2135  -28.1925  -49.7225 H         1 UNK         0.0600 
    217 H217       -5.7245  -29.8205  -50.7142 H         1 UNK         0.0600 
    218 H218       -4.3609  -29.5892  -51.7959 H         1 UNK         0.0600 
    219 H219       -5.9234  -28.8573  -52.1661 H         1 UNK         0.0600 
    220 H220       -5.6389  -25.4241  -50.9447 H         1 UNK         0.3000 
    221 H221       -7.3030  -25.0651  -48.6501 H         1 UNK         0.0600 
    222 H222       -8.6279  -25.1826  -51.4339 H         1 UNK         0.0600 
    223 H223       -8.9760  -26.2726  -50.0931 H         1 UNK         0.0600 
    224 H224       -9.3995  -24.5726  -49.9743 H         1 UNK         0.0600 
    225 H225       -7.6999  -22.7792  -48.4266 H         1 UNK         0.3000 
    226 H226       -5.7098  -21.1296  -49.7310 H         1 UNK         0.0600 
    227 H227       -6.1521  -21.0185  -47.2852 H         1 UNK         0.0600 
    228 H228       -6.3903  -19.4595  -48.0480 H         1 UNK         0.0600 
    229 H229       -7.7861  -20.4336  -47.5959 H         1 UNK         0.0600 
    230 H230       -7.4219  -21.9451  -51.6958 H         1 UNK         0.3000 
    231 H231       -9.4925  -19.9609  -52.2916 H         1 UNK         0.0600 
    232 H232       -8.4629  -22.3853  -53.8569 H         1 UNK         0.0600 
    233 H233       -9.9009  -21.4448  -54.2435 H         1 UNK         0.0600 
    234 H234       -9.8405  -22.3773  -52.7572 H         1 UNK         0.0600 
    235 H235       -7.3916  -18.4731  -52.0238 H         1 UNK         0.3000 
    236 H236       -6.0915  -16.8808  -52.8508 H         1 UNK         0.0600 
    237 H237       -8.1344  -16.2789  -54.1635 H         1 UNK         0.0600 
    238 H238       -6.6571  -15.8283  -54.9975 H         1 UNK         0.0600 
    239 H239       -7.5526  -17.2482  -55.5166 H         1 UNK         0.0600 
    240 H240       -4.9549  -19.4024  -52.7376 H         1 UNK         0.3000 
    241 H241       -3.0450  -20.4033  -53.1059 H         1 UNK         0.0600 
    242 H242       -1.4231  -20.9577  -55.4285 H         1 UNK         0.3800 
    243 H243       -2.4423  -21.8683  -56.5136 H         1 UNK         0.3800 
    244 H244       -1.9832  -18.4314  -55.1642 H         1 UNK         0.0800 
    245 H245       -2.2626  -17.8552  -53.5588 H         1 UNK         0.0800 
    246 H246       -0.3343  -17.3678  -52.3615 H         1 UNK         0.0800 
    247 H247       -0.8422  -18.6827  -51.3326 H         1 UNK         0.0800 
@<TRIPOS>BOND
     1    1    2 1    
     2    1  127 1    
     3    1  128 1    
     4    1  129 1    
     5    2    3 2    
     6    2    4 am   BACKBONE|DICT|INTERRES
     7    4    5 1    
     8    4  130 1    
     9    5    6 1    
    10    5   65 1    
    11    5  131 1    
    12    6    7 1    
    13    6  132 1    
    14    6  133 1    
    15    7    8 1    
    16    8    9 1    
    17    8  134 1    
    18    8  135 1    
    19    9   10 ar   
    20    9   14 ar   
    21   10   11 ar   
    22   10  136 1    
    23   11   12 ar   
    24   11  126 1    
    25   12   13 ar   
    26   12  137 1    
    27   13   14 ar   
    28   13   15 1    
    29   14  138 1    
    30   15   16 1    
    31   15  139 1    
    32   15  140 1    
    33   16   17 1    
    34   17   18 1    
    35   17  141 1    
    36   17  142 1    
    37   18   19 1    
    38   18   67 1    
    39   18  143 1    
    40   19   20 am   BACKBONE|DICT|INTERRES
    41   19  144 1    
    42   20   21 2    
    43   20   22 1    
    44   22   23 1    
    45   22   24 1    
    46   22  145 1    
    47   23  146 1    
    48   23  147 1    
    49   23  148 1    
    50   24   25 am   BACKBONE|DICT|INTERRES
    51   24  149 1    
    52   25   26 2    
    53   25   27 1    
    54   27   28 1    
    55   27   29 1    
    56   27  150 1    
    57   28  151 1    
    58   28  152 1    
    59   28  153 1    
    60   29   30 am   BACKBONE|DICT|INTERRES
    61   29  154 1    
    62   30   31 2    
    63   30   32 1    
    64   32   33 1    
    65   32   34 1    
    66   32  155 1    
    67   33  156 1    
    68   33  157 1    
    69   33  158 1    
    70   34   35 am   BACKBONE|DICT|INTERRES
    71   34  159 1    
    72   35   36 2    
    73   35   37 1    
    74   37   38 1    
    75   37   39 1    
    76   37  160 1    
    77   38  161 1    
    78   38  162 1    
    79   38  163 1    
    80   39   40 am   BACKBONE|DICT|INTERRES
    81   39  164 1    
    82   40   41 2    
    83   40   42 1    
    84   42   43 1    
    85   42   44 1    
    86   42  165 1    
    87   43  166 1    
    88   43  167 1    
    89   43  168 1    
    90   44   45 am   BACKBONE|DICT|INTERRES
    91   44  169 1    
    92   45   46 2    
    93   45   47 1    
    94   47   48 1    
    95   47   49 1    
    96   47  170 1    
    97   48  171 1    
    98   48  172 1    
    99   48  173 1    
   100   49   50 am   BACKBONE|DICT|INTERRES
   101   49  174 1    
   102   50   51 2    
   103   50   52 1    
   104   52   53 1    
   105   52   54 1    
   106   52  175 1    
   107   53  176 1    
   108   53  177 1    
   109   53  178 1    
   110   54   55 am   BACKBONE|DICT|INTERRES
   111   54  179 1    
   112   55   56 2    
   113   55   57 1    
   114   57   58 1    
   115   57   59 1    
   116   57  180 1    
   117   58  181 1    
   118   58  182 1    
   119   58  183 1    
   120   59   60 am   BACKBONE|DICT|INTERRES
   121   59  184 1    
   122   60   61 2    
   123   60   62 1    
   124   62   63 1    
   125   62   64 1    
   126   62  185 1    
   127   63  186 1    
   128   63  187 1    
   129   63  188 1    
   130   64   65 am   BACKBONE|DICT|INTERRES
   131   64  189 1    
   132   65   66 2    
   133   67   68 2    
   134   67   69 am   BACKBONE|DICT|INTERRES
   135   69   70 1    
   136   69  190 1    
   137   70   71 1    
   138   70   72 1    
   139   70  191 1    
   140   71  192 1    
   141   71  193 1    
   142   71  194 1    
   143   72   73 2    
   144   72   74 am   BACKBONE|DICT|INTERRES
   145   74   75 1    
   146   74  195 1    
   147   75   76 1    
   148   75   77 1    
   149   75  196 1    
   150   76  197 1    
   151   76  198 1    
   152   76  199 1    
   153   77   78 2    
   154   77   79 am   BACKBONE|DICT|INTERRES
   155   79   80 1    
   156   79  200 1    
   157   80   81 1    
   158   80   82 1    
   159   80  201 1    
   160   81  202 1    
   161   81  203 1    
   162   81  204 1    
   163   82   83 2    
   164   82   84 am   BACKBONE|DICT|INTERRES
   165   84   85 1    
   166   84  205 1    
   167   85   86 1    
   168   85   87 1    
   169   85  206 1    
   170   86  207 1    
   171   86  208 1    
   172   86  209 1    
   173   87   88 2    
   174   87   89 am   BACKBONE|DICT|INTERRES
   175   89   90 1    
   176   89  210 1    
   177   90   91 1    
   178   90   92 1    
   179   90  211 1    
   180   91  212 1    
   181   91  213 1    
   182   91  214 1    
   183   92   93 2    
   184   92   94 am   BACKBONE|DICT|INTERRES
   185   94   95 1    
   186   94  215 1    
   187   95   96 1    
   188   95   97 1    
   189   95  216 1    
   190   96  217 1    
   191   96  218 1    
   192   96  219 1    
   193   97   98 2    
   194   97   99 am   BACKBONE|DICT|INTERRES
   195   99  100 1    
   196   99  220 1    
   197  100  101 1    
   198  100  102 1    
   199  100  221 1    
   200  101  222 1    
   201  101  223 1    
   202  101  224 1    
   203  102  103 2    
   204  102  104 am   BACKBONE|DICT|INTERRES
   205  104  105 1    
   206  104  225 1    
   207  105  106 1    
   208  105  107 1    
   209  105  226 1    
   210  106  227 1    
   211  106  228 1    
   212  106  229 1    
   213  107  108 2    
   214  107  109 am   BACKBONE|DICT|INTERRES
   215  109  110 1    
   216  109  230 1    
   217  110  111 1    
   218  110  112 1    
   219  110  231 1    
   220  111  232 1    
   221  111  233 1    
   222  111  234 1    
   223  112  113 2    
   224  112  114 am   BACKBONE|DICT|INTERRES
   225  114  115 1    
   226  114  235 1    
   227  115  116 1    
   228  115  117 1    
   229  115  236 1    
   230  116  237 1    
   231  116  238 1    
   232  116  239 1    
   233  117  118 2    
   234  117  119 am   BACKBONE|DICT|INTERRES
   235  119  120 1    
   236  119  240 1    
   237  120  121 1    
   238  120  124 1    
   239  120  241 1    
   240  121  122 am   BACKBONE|DICT|INTERRES
   241  121  123 2    
   242  122  242 1    
   243  122  243 1    
   244  124  125 1    
   245  124  244 1    
   246  124  245 1    
   247  125  126 1    
   248  126  246 1    
   249  126  247 1    
@<TRIPOS>SUBSTRUCTURE
     1 UNK         1 GROUP             0       ****    0 ROOT    
