@<TRIPOS>MOLECULE
3R540
247   249    1
SMALL
USER_CHARGES


@<TRIPOS>ATOM
      1 CA          4.9110  -17.9157  -44.3074 C.3       0 UNK        -0.1800 
      2 C           4.5669  -16.5339  -44.8406 C.2       0 UNK         0.5000 
      3 O           4.4770  -15.5822  -44.0644 O.2       0 UNK        -0.5000 
      4 N           4.4074  -16.4131  -46.1661 N.am      1 UNK        -0.5000 
      5 CA          4.1078  -15.1651  -46.8862 C.3       1 UNK         0.1400 
      6 C6          3.8375  -15.4167  -48.3916 C.3       23 UNK        -0.0398 
      7 S7          2.3214  -16.3931  -48.6831 S.3       23 UNK        -0.2404 
      8 C8          1.4282  -15.3042  -49.8412 C.3       23 UNK        -0.0205 
      9 C9          0.0044  -15.7855  -50.0714 C.ar      23 UNK        -0.0193 
     10 C10        -0.3018  -16.6428  -51.1319 C.ar      23 UNK        -0.1150 
     11 C11        -1.6105  -17.1038  -51.3177 C.ar      23 UNK        -0.0193 
     12 C12        -2.6141  -16.7030  -50.4293 C.ar      23 UNK        -0.1150 
     13 C13        -2.3181  -15.8398  -49.3696 C.ar      23 UNK        -0.0193 
     14 C14        -1.0133  -15.3710  -49.2116 C.ar      23 UNK        -0.1150 
     15 C15        -3.3894  -15.4264  -48.3724 C.3       23 UNK        -0.0205 
     16 S16        -3.2146  -16.3270  -46.7965 S.3       23 UNK        -0.2404 
     17 C17        -3.7337  -18.0038  -47.2888 C.3       23 UNK        -0.0398 
     18 CA         -2.5472  -18.9396  -47.6274 C.3       11 UNK         0.1400 
     19 N          -1.6343  -19.1350  -46.4964 N.am      11 UNK        -0.5000 
     20 C          -0.5113  -19.8687  -46.5252 C.2       10 UNK         0.5000 
     21 O          -0.1390  -20.5149  -47.5031 O.2       10 UNK        -0.5000 
     22 CA          0.3430  -19.9041  -45.2500 C.3       10 UNK         0.1400 
     23 CB          1.5575  -18.9780  -45.4035 C.3       10 UNK        -0.1800 
     24 N          -0.4020  -19.5235  -44.0522 N.am      10 UNK        -0.5000 
     25 C          -1.2749  -20.3037  -43.4013 C.2       9 UNK         0.5000 
     26 O          -1.6020  -21.4280  -43.7858 O.2       9 UNK        -0.5000 
     27 CA         -1.8666  -19.7076  -42.1049 C.3       9 UNK         0.1400 
     28 CB         -2.5090  -20.7639  -41.1825 C.3       9 UNK        -0.1800 
     29 N          -0.8856  -18.8870  -41.3832 N.am      9 UNK        -0.5000 
     30 C           0.2762  -19.2859  -40.8416 C.2       8 UNK         0.5000 
     31 O           0.6262  -20.4627  -40.7466 O.2       8 UNK        -0.5000 
     32 CA          1.2359  -18.1797  -40.3586 C.3       8 UNK         0.1400 
     33 CB          2.3652  -17.9794  -41.3804 C.3       8 UNK        -0.1800 
     34 N           0.5810  -16.8905  -40.1393 N.am      8 UNK        -0.5000 
     35 C          -0.2162  -16.6037  -39.1017 C.2       7 UNK         0.5000 
     36 O          -0.4695  -17.3921  -38.1904 O.2       7 UNK        -0.5000 
     37 CA         -0.8547  -15.2050  -39.1013 C.3       7 UNK         0.1400 
     38 CB          0.1299  -14.1573  -38.5609 C.3       7 UNK        -0.1800 
     39 N          -1.2961  -14.8155  -40.4410 N.am      7 UNK        -0.5000 
     40 C          -2.4074  -15.2757  -41.0324 C.2       6 UNK         0.5000 
     41 O          -3.1967  -16.0531  -40.4958 O.2       6 UNK        -0.5000 
     42 CA         -2.6759  -14.8017  -42.4723 C.3       6 UNK         0.1400 
     43 CB         -3.4926  -13.5009  -42.4701 C.3       6 UNK        -0.1800 
     44 N          -1.4501  -14.5977  -43.2440 N.am      6 UNK        -0.5000 
     45 C          -0.6574  -15.5875  -43.6743 C.2       5 UNK         0.5000 
     46 O          -0.8601  -16.7800  -43.4508 O.2       5 UNK        -0.5000 
     47 CA          0.5860  -15.1723  -44.4759 C.3       5 UNK         0.1400 
     48 CB          0.1882  -14.9344  -45.9368 C.3       5 UNK        -0.1800 
     49 N           1.2766  -13.9909  -43.9527 N.am      5 UNK        -0.5000 
     50 C           1.7798  -13.8919  -42.7156 C.2       4 UNK         0.5000 
     51 O           1.6163  -14.7414  -41.8367 O.2       4 UNK        -0.5000 
     52 CA          2.6469  -12.6632  -42.4254 C.3       4 UNK         0.1400 
     53 CB          2.3358  -12.0869  -41.0272 C.3       4 UNK        -0.1800 
     54 N           4.0353  -13.1000  -42.5321 N.am      4 UNK        -0.5000 
     55 C           5.1289  -12.3451  -42.3787 C.2       3 UNK         0.5000 
     56 O           5.1095  -11.1283  -42.1892 O.2       3 UNK        -0.5000 
     57 CA          6.4766  -13.0764  -42.4658 C.3       3 UNK         0.1400 
     58 CB          6.5528  -14.2585  -41.4818 C.3       3 UNK        -0.1800 
     59 N           6.6936  -13.5620  -43.8251 N.am      3 UNK        -0.5000 
     60 C           7.4666  -12.9584  -44.7387 C.2       2 UNK         0.5000 
     61 O           8.1054  -11.9281  -44.5202 O.2       2 UNK        -0.5000 
     62 CA          7.5631  -13.6139  -46.1324 C.3       2 UNK         0.1400 
     63 CB          8.8671  -14.4172  -46.2570 C.3       2 UNK        -0.1800 
     64 N           6.4369  -14.4960  -46.4400 N.am      2 UNK        -0.5000 
     65 C           5.1926  -14.0791  -46.7114 C.2       1 UNK         0.5000 
     66 O           4.8779  -12.8922  -46.8032 O.2       1 UNK        -0.5000 
     67 C          -3.0799  -20.2653  -48.2014 C.2       11 UNK         0.5000 
     68 O          -3.1078  -20.4270  -49.4199 O.2       11 UNK        -0.5000 
     69 N          -3.4606  -21.1982  -47.3163 N.am      12 UNK        -0.5000 
     70 CA         -3.9528  -22.5239  -47.6892 C.3       12 UNK         0.1400 
     71 CB         -4.5631  -23.2137  -46.4609 C.3       12 UNK        -0.1800 
     72 C          -2.8577  -23.4009  -48.3170 C.2       12 UNK         0.5000 
     73 O          -3.1276  -24.0887  -49.3010 O.2       12 UNK        -0.5000 
     74 N          -1.6413  -23.3396  -47.7585 N.am      13 UNK        -0.5000 
     75 CA         -0.4671  -24.0637  -48.2458 C.3       13 UNK         0.1400 
     76 CB          0.6589  -23.9829  -47.2036 C.3       13 UNK        -0.1800 
     77 C           0.0050  -23.5431  -49.6136 C.2       13 UNK         0.5000 
     78 O           0.2571  -24.3422  -50.5159 O.2       13 UNK        -0.5000 
     79 N           0.0583  -22.2123  -49.7598 N.am      14 UNK        -0.5000 
     80 CA          0.3850  -21.5150  -51.0045 C.3       14 UNK         0.1400 
     81 CB          0.5536  -20.0190  -50.7086 C.3       14 UNK        -0.1800 
     82 C          -0.6586  -21.7469  -52.1154 C.2       14 UNK         0.5000 
     83 O          -0.2968  -21.7834  -53.2906 O.2       14 UNK        -0.5000 
     84 N          -1.9212  -21.9512  -51.7194 N.am      15 UNK        -0.5000 
     85 CA         -3.0318  -22.3544  -52.5806 C.3       15 UNK         0.1400 
     86 CB         -4.3340  -21.7494  -52.0295 C.3       15 UNK        -0.1800 
     87 C          -3.1402  -23.8824  -52.7676 C.2       15 UNK         0.5000 
     88 O          -4.1833  -24.3474  -53.2209 O.2       15 UNK        -0.5000 
     89 N          -2.0876  -24.6427  -52.4259 N.am      16 UNK        -0.5000 
     90 CA         -1.9425  -26.0898  -52.6265 C.3       16 UNK         0.1400 
     91 CB         -1.8244  -26.4125  -54.1311 C.3       16 UNK        -0.1800 
     92 C          -3.0413  -26.9094  -51.9184 C.2       16 UNK         0.5000 
     93 O          -3.7167  -27.7240  -52.5498 O.2       16 UNK        -0.5000 
     94 N          -3.1977  -26.6496  -50.6135 N.am      17 UNK        -0.5000 
     95 CA         -4.2364  -27.1674  -49.7173 C.3       17 UNK         0.1400 
     96 CB         -4.2196  -28.7090  -49.6337 C.3       17 UNK        -0.1800 
     97 C          -5.6191  -26.5730  -50.0510 C.2       17 UNK         0.5000 
     98 O          -6.6159  -27.2962  -50.0968 O.2       17 UNK        -0.5000 
     99 N          -5.6338  -25.2473  -50.2567 N.am      18 UNK        -0.5000 
    100 CA        -6.7968  -24.3948  -50.5196 C.3       18 UNK         0.1400 
    101 CB        -7.6777  -24.2888  -49.2575 C.3       18 UNK        -0.1800 
    102 C         -7.5887  -24.8011  -51.7806 C.2       18 UNK         0.5000 
    103 O         -8.8200  -24.8629  -51.7494 O.2       18 UNK        -0.5000 
    104 N         -6.8748  -25.0464  -52.8866 N.am      19 UNK        -0.5000 
    105 CA        -7.4215  -25.4117  -54.1948 C.3       19 UNK         0.1400 
    106 CB        -6.3439  -26.1689  -54.9922 C.3       19 UNK        -0.1800 
    107 C         -7.9740  -24.1836  -54.9519 C.2       19 UNK         0.5000 
    108 O         -7.5379  -23.8863  -56.0649 O.2       19 UNK        -0.5000 
    109 N         -8.9246  -23.4865  -54.3159 N.am      20 UNK        -0.5000 
    110 CA        -9.7067  -22.3276  -54.7667 C.3       20 UNK         0.1400 
    111 CB       -10.5182  -22.6652  -56.0322 C.3       20 UNK        -0.1800 
    112 C         -8.9281  -21.0079  -54.9515 C.2       20 UNK         0.5000 
    113 O         -9.5070  -19.9467  -54.7133 O.2       20 UNK        -0.5000 
    114 N         -7.6582  -21.0669  -55.3637 N.am      21 UNK        -0.5000 
    115 CA        -6.8103  -19.9114  -55.6477 C.3       21 UNK         0.1400 
    116 CB        -7.1446  -19.3609  -57.0487 C.3       21 UNK        -0.1800 
    117 C         -5.3270  -20.2967  -55.5430 C.2       21 UNK         0.5000 
    118 O         -5.0003  -21.4795  -55.4273 O.2       21 UNK        -0.5000 
    119 N         -4.4562  -19.2820  -55.6047 N.am      22 UNK        -0.5000 
    120 CA        -2.9883  -19.4119  -55.5603 C.3       22 UNK         0.1400 
    121 C         -2.3418  -20.0863  -56.8089 C.2       22 UNK         0.5000 
    122 N         -3.0601  -20.2973  -57.9051 N.am      22 UNK        -0.7600 
    123 O         -1.1614  -20.4218  -56.7837 O.2       22 UNK        -0.5000 
    124 C124       -2.2947  -18.0567  -55.2656 C.3       23 UNK        -0.0398 
    125 S125       -2.9034  -17.2230  -53.7596 S.3       23 UNK        -0.2404 
    126 C126       -1.9339  -18.0531  -52.4619 C.3       23 UNK        -0.0205 
    127 H127        5.9388  -17.9296  -43.9454 H         1 UNK         0.0600 
    128 H128        4.8063  -18.6839  -45.0738 H         1 UNK         0.0600 
    129 H129        4.2565  -18.1725  -43.4770 H         1 UNK         0.0600 
    130 H130        4.4832  -17.2359  -46.7471 H         1 UNK         0.3000 
    131 H131        3.2067  -14.7511  -46.4363 H         1 UNK         0.0600 
    132 H132        3.7501  -14.4693  -48.9269 H         1 UNK         0.0800 
    133 H133        4.6787  -15.9397  -48.8496 H         1 UNK         0.0800 
    134 H134        1.9696  -15.2589  -50.7873 H         1 UNK         0.0800 
    135 H135        1.4080  -14.2873  -49.4459 H         1 UNK         0.0800 
    136 H136        0.4826  -16.9594  -51.8046 H         1 UNK         0.1150 
    137 H137       -3.6215  -17.0722  -50.5610 H         1 UNK         0.1150 
    138 H138       -0.7864  -14.6952  -48.4020 H         1 UNK         0.1150 
    139 H139       -3.3056  -14.3564  -48.1768 H         1 UNK         0.0800 
    140 H140       -4.3879  -15.5831  -48.7834 H         1 UNK         0.0800 
    141 H141       -4.4151  -17.9220  -48.1377 H         1 UNK         0.0800 
    142 H142       -4.3250  -18.4215  -46.4721 H         1 UNK         0.0800 
    143 H143       -1.9544  -18.4765  -48.4172 H         1 UNK         0.0600 
    144 H144       -1.8453  -18.6184  -45.6551 H         1 UNK         0.3000 
    145 H145        0.7056  -20.9259  -45.1198 H         1 UNK         0.0600 
    146 H146        2.1585  -18.9639  -44.4954 H         1 UNK         0.0600 
    147 H147        2.2021  -19.3133  -46.2172 H         1 UNK         0.0600 
    148 H148        1.2572  -17.9558  -45.6314 H         1 UNK         0.0600 
    149 H149       -0.2761  -18.5743  -43.7121 H         1 UNK         0.3000 
    150 H150       -2.6560  -19.0237  -42.4200 H         1 UNK         0.0600 
    151 H151       -3.3402  -21.2624  -41.6823 H         1 UNK         0.0600 
    152 H152       -2.9035  -20.3062  -40.2753 H         1 UNK         0.0600 
    153 H153       -1.7977  -21.5358  -40.8880 H         1 UNK         0.0600 
    154 H154       -1.0344  -17.8889  -41.4523 H         1 UNK         0.3000 
    155 H155        1.6777  -18.5115  -39.4168 H         1 UNK         0.0600 
    156 H156        1.9802  -17.6257  -42.3378 H         1 UNK         0.0600 
    157 H157        2.8990  -18.9130  -41.5618 H         1 UNK         0.0600 
    158 H158        3.0946  -17.2501  -41.0269 H         1 UNK         0.0600 
    159 H159        0.7879  -16.1587  -40.8142 H         1 UNK         0.3000 
    160 H160       -1.7224  -15.2278  -38.4382 H         1 UNK         0.0600 
    161 H161        1.0387  -14.1130  -39.1608 H         1 UNK         0.0600 
    162 H162        0.4255  -14.3935  -37.5380 H         1 UNK         0.0600 
    163 H163       -0.3157  -13.1626  -38.5499 H         1 UNK         0.0600 
    164 H164       -0.6744  -14.2221  -40.9708 H         1 UNK         0.3000 
    165 H165       -3.2669  -15.5735  -42.9707 H         1 UNK         0.0600 
    166 H166       -3.7533  -13.1980  -43.4844 H         1 UNK         0.0600 
    167 H167       -4.4261  -13.6271  -41.9199 H         1 UNK         0.0600 
    168 H168       -2.9447  -12.6810  -42.0040 H         1 UNK         0.0600 
    169 H169       -1.2039  -13.6461  -43.4732 H         1 UNK         0.3000 
    170 H170        1.3009  -15.9956  -44.4377 H         1 UNK         0.0600 
    171 H171       -0.1743  -15.8597  -46.3870 H         1 UNK         0.0600 
    172 H172       -0.6074  -14.1929  -46.0220 H         1 UNK         0.0600 
    173 H173        1.0219  -14.5875  -46.5420 H         1 UNK         0.0600 
    174 H174        1.4585  -13.2487  -44.6124 H         1 UNK         0.3000 
    175 H175        2.4538  -11.8977  -43.1792 H         1 UNK         0.0600 
    176 H176        2.6826  -12.7500  -40.2341 H         1 UNK         0.0600 
    177 H177        2.8089  -11.1167  -40.8786 H         1 UNK         0.0600 
    178 H178        1.2635  -11.9409  -40.8914 H         1 UNK         0.0600 
    179 H179        4.1514  -14.0831  -42.7655 H         1 UNK         0.3000 
    180 H180        7.2578  -12.3672  -42.1840 H         1 UNK         0.0600 
    181 H181        5.8422  -15.0487  -41.7264 H         1 UNK         0.0600 
    182 H182        6.3431  -13.9314  -40.4627 H         1 UNK         0.0600 
    183 H183        7.5492  -14.7004  -41.4819 H         1 UNK         0.0600 
    184 H184        6.1422  -14.3658  -44.1024 H         1 UNK         0.3000 
    185 H185        7.5847  -12.8112  -46.8727 H         1 UNK         0.0600 
    186 H186        9.7354  -13.7854  -46.0655 H         1 UNK         0.0600 
    187 H187        8.8998  -15.2440  -45.5463 H         1 UNK         0.0600 
    188 H188        8.9826  -14.8299  -47.2594 H         1 UNK         0.0600 
    189 H189        6.6090  -15.4893  -46.3837 H         1 UNK         0.3000 
    190 H190       -3.3772  -21.0000  -46.3296 H         1 UNK         0.3000 
    191 H191       -4.7424  -22.3975  -48.4331 H         1 UNK         0.0600 
    192 H192       -3.8314  -23.3379  -45.6614 H         1 UNK         0.0600 
    193 H193       -4.9421  -24.2040  -46.7178 H         1 UNK         0.0600 
    194 H194       -5.4005  -22.6401  -46.0632 H         1 UNK         0.0600 
    195 H195       -1.4974  -22.7118  -46.9815 H         1 UNK         0.3000 
    196 H196       -0.7429  -25.1136  -48.3655 H         1 UNK         0.0600 
    197 H197        1.5346  -24.5433  -47.5333 H         1 UNK         0.0600 
    198 H198        0.3434  -24.4053  -46.2495 H         1 UNK         0.0600 
    199 H199        0.9762  -22.9550  -47.0259 H         1 UNK         0.0600 
    200 H200       -0.1349  -21.6235  -48.9511 H         1 UNK         0.3000 
    201 H201        1.3409  -21.9018  -51.3635 H         1 UNK         0.0600 
    202 H202        1.3370  -19.8469  -49.9702 H         1 UNK         0.0600 
    203 H203       -0.3675  -19.5834  -50.3199 H         1 UNK         0.0600 
    204 H204        0.8318  -19.4715  -51.6091 H         1 UNK         0.0600 
    205 H205       -2.1415  -21.8409  -50.7365 H         1 UNK         0.3000 
    206 H206       -2.8750  -21.9499  -53.5795 H         1 UNK         0.0600 
    207 H207       -4.2811  -20.6610  -52.0082 H         1 UNK         0.0600 
    208 H208       -5.1940  -22.0144  -52.6457 H         1 UNK         0.0600 
    209 H209       -4.5303  -22.0930  -51.0147 H         1 UNK         0.0600 
    210 H210       -1.2922  -24.1895  -51.9928 H         1 UNK         0.3000 
    211 H211       -0.9992  -26.3718  -52.1566 H         1 UNK         0.0600 
    212 H212       -2.7444  -26.1819  -54.6695 H         1 UNK         0.0600 
    213 H213       -1.6107  -27.4704  -54.2877 H         1 UNK         0.0600 
    214 H214       -1.0154  -25.8465  -54.5927 H         1 UNK         0.0600 
    215 H215       -2.6551  -25.8864  -50.2250 H         1 UNK         0.3000 
    216 H216       -3.9837  -26.7929  -48.7242 H         1 UNK         0.0600 
    217 H217       -4.8798  -29.0592  -48.8395 H         1 UNK         0.0600 
    218 H218       -3.2196  -29.0815  -49.4120 H         1 UNK         0.0600 
    219 H219       -4.5556  -29.1753  -50.5598 H         1 UNK         0.0600 
    220 H220       -4.7425  -24.7667  -50.1824 H         1 UNK         0.3000 
    221 H221       -6.4088  -23.3978  -50.7227 H         1 UNK         0.0600 
    222 H222       -8.1376  -25.2442  -49.0033 H         1 UNK         0.0600 
    223 H223       -7.0958  -23.9574  -48.3975 H         1 UNK         0.0600 
    224 H224       -8.4819  -23.5662  -49.4007 H         1 UNK         0.0600 
    225 H225       -5.8652  -24.9063  -52.8643 H         1 UNK         0.3000 
    226 H226       -8.2567  -26.0985  -54.0432 H         1 UNK         0.0600 
    227 H227       -5.9732  -27.0302  -54.4359 H         1 UNK         0.0600 
    228 H228       -6.7443  -26.5383  -55.9369 H         1 UNK         0.0600 
    229 H229       -5.4907  -25.5308  -55.2248 H         1 UNK         0.0600 
    230 H230       -9.1592  -23.8195  -53.3850 H         1 UNK         0.3000 
    231 H231      -10.4240  -22.1431  -53.9654 H         1 UNK         0.0600 
    232 H232      -11.1351  -23.5512  -55.8815 H         1 UNK         0.0600 
    233 H233       -9.8741  -22.8459  -56.8932 H         1 UNK         0.0600 
    234 H234      -11.1873  -21.8450  -56.2953 H         1 UNK         0.0600 
    235 H235       -7.2341  -21.9743  -55.5383 H         1 UNK         0.3000 
    236 H236       -6.9985  -19.1384  -54.8996 H         1 UNK         0.0600 
    237 H237       -6.5380  -18.4878  -57.2912 H         1 UNK         0.0600 
    238 H238       -6.9705  -20.1092  -57.8228 H         1 UNK         0.0600 
    239 H239       -8.1875  -19.0506  -57.1151 H         1 UNK         0.0600 
    240 H240       -4.8065  -18.3393  -55.6934 H         1 UNK         0.3000 
    241 H241       -2.7559  -20.0677  -54.7226 H         1 UNK         0.0600 
    242 H242       -4.0311  -20.0338  -57.9422 H         1 UNK         0.3800 
    243 H243       -2.6285  -20.7356  -58.7036 H         1 UNK         0.3800 
    244 H244       -1.2137  -18.1832  -55.1818 H         1 UNK         0.0800 
    245 H245       -2.4469  -17.3734  -56.1028 H         1 UNK         0.0800 
    246 H246       -2.4961  -18.9071  -52.0811 H         1 UNK         0.0800 
    247 H247       -1.0137  -18.4581  -52.8839 H         1 UNK         0.0800 
@<TRIPOS>BOND
     1    1    2 1    
     2    1  127 1    
     3    1  128 1    
     4    1  129 1    
     5    2    3 2    
     6    2    4 am   BACKBONE|DICT|INTERRES
     7    4    5 1    
     8    4  130 1    
     9    5    6 1    
    10    5   65 1    
    11    5  131 1    
    12    6    7 1    
    13    6  132 1    
    14    6  133 1    
    15    7    8 1    
    16    8    9 1    
    17    8  134 1    
    18    8  135 1    
    19    9   10 ar   
    20    9   14 ar   
    21   10   11 ar   
    22   10  136 1    
    23   11   12 ar   
    24   11  126 1    
    25   12   13 ar   
    26   12  137 1    
    27   13   14 ar   
    28   13   15 1    
    29   14  138 1    
    30   15   16 1    
    31   15  139 1    
    32   15  140 1    
    33   16   17 1    
    34   17   18 1    
    35   17  141 1    
    36   17  142 1    
    37   18   19 1    
    38   18   67 1    
    39   18  143 1    
    40   19   20 am   BACKBONE|DICT|INTERRES
    41   19  144 1    
    42   20   21 2    
    43   20   22 1    
    44   22   23 1    
    45   22   24 1    
    46   22  145 1    
    47   23  146 1    
    48   23  147 1    
    49   23  148 1    
    50   24   25 am   BACKBONE|DICT|INTERRES
    51   24  149 1    
    52   25   26 2    
    53   25   27 1    
    54   27   28 1    
    55   27   29 1    
    56   27  150 1    
    57   28  151 1    
    58   28  152 1    
    59   28  153 1    
    60   29   30 am   BACKBONE|DICT|INTERRES
    61   29  154 1    
    62   30   31 2    
    63   30   32 1    
    64   32   33 1    
    65   32   34 1    
    66   32  155 1    
    67   33  156 1    
    68   33  157 1    
    69   33  158 1    
    70   34   35 am   BACKBONE|DICT|INTERRES
    71   34  159 1    
    72   35   36 2    
    73   35   37 1    
    74   37   38 1    
    75   37   39 1    
    76   37  160 1    
    77   38  161 1    
    78   38  162 1    
    79   38  163 1    
    80   39   40 am   BACKBONE|DICT|INTERRES
    81   39  164 1    
    82   40   41 2    
    83   40   42 1    
    84   42   43 1    
    85   42   44 1    
    86   42  165 1    
    87   43  166 1    
    88   43  167 1    
    89   43  168 1    
    90   44   45 am   BACKBONE|DICT|INTERRES
    91   44  169 1    
    92   45   46 2    
    93   45   47 1    
    94   47   48 1    
    95   47   49 1    
    96   47  170 1    
    97   48  171 1    
    98   48  172 1    
    99   48  173 1    
   100   49   50 am   BACKBONE|DICT|INTERRES
   101   49  174 1    
   102   50   51 2    
   103   50   52 1    
   104   52   53 1    
   105   52   54 1    
   106   52  175 1    
   107   53  176 1    
   108   53  177 1    
   109   53  178 1    
   110   54   55 am   BACKBONE|DICT|INTERRES
   111   54  179 1    
   112   55   56 2    
   113   55   57 1    
   114   57   58 1    
   115   57   59 1    
   116   57  180 1    
   117   58  181 1    
   118   58  182 1    
   119   58  183 1    
   120   59   60 am   BACKBONE|DICT|INTERRES
   121   59  184 1    
   122   60   61 2    
   123   60   62 1    
   124   62   63 1    
   125   62   64 1    
   126   62  185 1    
   127   63  186 1    
   128   63  187 1    
   129   63  188 1    
   130   64   65 am   BACKBONE|DICT|INTERRES
   131   64  189 1    
   132   65   66 2    
   133   67   68 2    
   134   67   69 am   BACKBONE|DICT|INTERRES
   135   69   70 1    
   136   69  190 1    
   137   70   71 1    
   138   70   72 1    
   139   70  191 1    
   140   71  192 1    
   141   71  193 1    
   142   71  194 1    
   143   72   73 2    
   144   72   74 am   BACKBONE|DICT|INTERRES
   145   74   75 1    
   146   74  195 1    
   147   75   76 1    
   148   75   77 1    
   149   75  196 1    
   150   76  197 1    
   151   76  198 1    
   152   76  199 1    
   153   77   78 2    
   154   77   79 am   BACKBONE|DICT|INTERRES
   155   79   80 1    
   156   79  200 1    
   157   80   81 1    
   158   80   82 1    
   159   80  201 1    
   160   81  202 1    
   161   81  203 1    
   162   81  204 1    
   163   82   83 2    
   164   82   84 am   BACKBONE|DICT|INTERRES
   165   84   85 1    
   166   84  205 1    
   167   85   86 1    
   168   85   87 1    
   169   85  206 1    
   170   86  207 1    
   171   86  208 1    
   172   86  209 1    
   173   87   88 2    
   174   87   89 am   BACKBONE|DICT|INTERRES
   175   89   90 1    
   176   89  210 1    
   177   90   91 1    
   178   90   92 1    
   179   90  211 1    
   180   91  212 1    
   181   91  213 1    
   182   91  214 1    
   183   92   93 2    
   184   92   94 am   BACKBONE|DICT|INTERRES
   185   94   95 1    
   186   94  215 1    
   187   95   96 1    
   188   95   97 1    
   189   95  216 1    
   190   96  217 1    
   191   96  218 1    
   192   96  219 1    
   193   97   98 2    
   194   97   99 am   BACKBONE|DICT|INTERRES
   195   99  100 1    
   196   99  220 1    
   197  100  101 1    
   198  100  102 1    
   199  100  221 1    
   200  101  222 1    
   201  101  223 1    
   202  101  224 1    
   203  102  103 2    
   204  102  104 am   BACKBONE|DICT|INTERRES
   205  104  105 1    
   206  104  225 1    
   207  105  106 1    
   208  105  107 1    
   209  105  226 1    
   210  106  227 1    
   211  106  228 1    
   212  106  229 1    
   213  107  108 2    
   214  107  109 am   BACKBONE|DICT|INTERRES
   215  109  110 1    
   216  109  230 1    
   217  110  111 1    
   218  110  112 1    
   219  110  231 1    
   220  111  232 1    
   221  111  233 1    
   222  111  234 1    
   223  112  113 2    
   224  112  114 am   BACKBONE|DICT|INTERRES
   225  114  115 1    
   226  114  235 1    
   227  115  116 1    
   228  115  117 1    
   229  115  236 1    
   230  116  237 1    
   231  116  238 1    
   232  116  239 1    
   233  117  118 2    
   234  117  119 am   BACKBONE|DICT|INTERRES
   235  119  120 1    
   236  119  240 1    
   237  120  121 1    
   238  120  124 1    
   239  120  241 1    
   240  121  122 am   BACKBONE|DICT|INTERRES
   241  121  123 2    
   242  122  242 1    
   243  122  243 1    
   244  124  125 1    
   245  124  244 1    
   246  124  245 1    
   247  125  126 1    
   248  126  246 1    
   249  126  247 1    
@<TRIPOS>SUBSTRUCTURE
     1 UNK         1 GROUP             0       ****    0 ROOT    
