@<TRIPOS>MOLECULE
3R540
247   249    1
SMALL
USER_CHARGES


@<TRIPOS>ATOM
      1 CA         -4.3023  -18.5123  -43.1871 C.3       0 UNK        -0.1800 
      2 C          -4.1336  -17.0038  -43.3092 C.2       0 UNK         0.5000 
      3 O          -4.5620  -16.2607  -42.4259 O.2       0 UNK        -0.5000 
      4 N          -3.4976  -16.5488  -44.3927 N.am      1 UNK        -0.5000 
      5 CA         -3.1535  -15.1514  -44.6588 C.3       1 UNK         0.1400 
      6 C6         -3.1516  -14.8516  -46.1789 C.3       23 UNK        -0.0398 
      7 S7         -4.8260  -14.5734  -46.8508 S.3       23 UNK        -0.2404 
      8 C8         -5.3325  -16.2328  -47.4263 C.3       23 UNK        -0.0205 
      9 C9         -4.4334  -16.8778  -48.4814 C.ar      23 UNK        -0.0193 
     10 C10        -3.6781  -16.1253  -49.3890 C.ar      23 UNK        -0.1150 
     11 C11        -2.8430  -16.7581  -50.3125 C.ar      23 UNK        -0.0193 
     12 C12        -2.7654  -18.1515  -50.3236 C.ar      23 UNK        -0.1150 
     13 C13        -3.5356  -18.9276  -49.4550 C.ar      23 UNK        -0.0193 
     14 C14        -4.3808  -18.2733  -48.5484 C.ar      23 UNK        -0.1150 
     15 C15        -3.4083  -20.4540  -49.5436 C.3       23 UNK        -0.0205 
     16 S16        -4.2399  -21.4184  -48.2320 S.3       23 UNK        -0.2404 
     17 C17        -3.3186  -20.8488  -46.7672 C.3       23 UNK        -0.0398 
     18 CA         -3.0840  -21.9466  -45.7091 C.3       11 UNK         0.1400 
     19 N          -1.8808  -21.6492  -44.9247 N.am      11 UNK        -0.5000 
     20 C          -1.1568  -22.5036  -44.1907 C.2       10 UNK         0.5000 
     21 O          -1.4758  -23.6843  -44.0297 O.2       10 UNK        -0.5000 
     22 CA          0.1349  -21.9790  -43.5319 C.3       10 UNK         0.1400 
     23 CB          1.3381  -22.8272  -43.9723 C.3       10 UNK        -0.1800 
     24 N           0.4172  -20.5702  -43.8194 N.am      10 UNK        -0.5000 
     25 C          -0.1762  -19.5243  -43.2282 C.2       9 UNK         0.5000 
     26 O          -1.0299  -19.6312  -42.3487 O.2       9 UNK        -0.5000 
     27 CA          0.2193  -18.1272  -43.7383 C.3       9 UNK         0.1400 
     28 CB          1.5125  -17.6418  -43.0673 C.3       9 UNK        -0.1800 
     29 N           0.3858  -18.0880  -45.1902 N.am      9 UNK        -0.5000 
     30 C          -0.6017  -18.2233  -46.0834 C.2       8 UNK         0.5000 
     31 O          -1.7863  -18.3341  -45.7710 O.2       8 UNK        -0.5000 
     32 CA         -0.1962  -18.3017  -47.5665 C.3       8 UNK         0.1400 
     33 CB         -0.0607  -16.9091  -48.1942 C.3       8 UNK        -0.1800 
     34 N           1.0574  -19.0269  -47.7505 N.am      8 UNK        -0.5000 
     35 C           1.1887  -20.3569  -47.6718 C.2       7 UNK         0.5000 
     36 O           0.2510  -21.1283  -47.4752 O.2       7 UNK        -0.5000 
     37 CA          2.6173  -20.9130  -47.8200 C.3       7 UNK         0.1400 
     38 CB          2.9404  -21.1657  -49.3004 C.3       7 UNK        -0.1800 
     39 N           3.6366  -20.0295  -47.2446 N.am      7 UNK        -0.5000 
     40 C           3.7717  -19.7955  -45.9314 C.2       6 UNK         0.5000 
     41 O           3.0607  -20.3140  -45.0720 O.2       6 UNK        -0.5000 
     42 CA          4.8433  -18.7709  -45.5083 C.3       6 UNK         0.1400 
     43 CB          6.2271  -19.4342  -45.4423 C.3       6 UNK        -0.1800 
     44 N           4.9148  -17.5771  -46.3600 N.am      6 UNK        -0.5000 
     45 C           3.8877  -16.7572  -46.6219 C.2       5 UNK         0.5000 
     46 O           2.7374  -16.9763  -46.2441 O.2       5 UNK        -0.5000 
     47 CA          4.1908  -15.5209  -47.4918 C.3       5 UNK         0.1400 
     48 CB          4.3787  -15.9411  -48.9589 C.3       5 UNK        -0.1800 
     49 N           3.1350  -14.5044  -47.4393 N.am      5 UNK        -0.5000 
     50 C           2.7628  -13.8077  -46.3560 C.2       4 UNK         0.5000 
     51 O           3.3255  -13.9024  -45.2621 O.2       4 UNK        -0.5000 
     52 CA          1.6006  -12.8076  -46.5502 C.3       4 UNK         0.1400 
     53 CB          0.5002  -13.3203  -47.5002 C.3       4 UNK        -0.1800 
     54 N           0.9764  -12.4611  -45.2742 N.am      4 UNK        -0.5000 
     55 C           1.2779  -11.3859  -44.5337 C.2       3 UNK         0.5000 
     56 O           2.1262  -10.5529  -44.8581 O.2       3 UNK        -0.5000 
     57 CA          0.4864  -11.1709  -43.2255 C.3       3 UNK         0.1400 
     58 CB         -0.5240  -10.0247  -43.3946 C.3       3 UNK        -0.1800 
     59 N          -0.2354  -12.3606  -42.7723 N.am      3 UNK        -0.5000 
     60 C           0.3256  -13.4037  -42.1474 C.2       2 UNK         0.5000 
     61 O           1.5131  -13.4473  -41.8256 O.2       2 UNK        -0.5000 
     62 CA         -0.5884  -14.6051  -41.8275 C.3       2 UNK         0.1400 
     63 CB         -1.0315  -14.5676  -40.3573 C.3       2 UNK        -0.1800 
     64 N          -1.7801  -14.7351  -42.6753 N.am      2 UNK        -0.5000 
     65 C          -1.7848  -14.8743  -44.0081 C.2       1 UNK         0.5000 
     66 O          -0.7667  -14.8268  -44.6981 O.2       1 UNK        -0.5000 
     67 C          -4.3329  -22.2327  -44.8353 C.2       11 UNK         0.5000 
     68 O          -5.3892  -21.6262  -45.0163 O.2       11 UNK        -0.5000 
     69 N          -4.1779  -23.1713  -43.9020 N.am      12 UNK        -0.5000 
     70 CA         -5.2022  -23.7280  -43.0283 C.3       12 UNK         0.1400 
     71 CB         -5.5071  -22.7713  -41.8616 C.3       12 UNK        -0.1800 
     72 C          -4.7208  -25.0969  -42.5292 C.2       12 UNK         0.5000 
     73 O          -5.4726  -26.0692  -42.5950 O.2       12 UNK        -0.5000 
     74 N          -3.4580  -25.1529  -42.0796 N.am      13 UNK        -0.5000 
     75 CA         -2.7772  -26.3797  -41.6695 C.3       13 UNK         0.1400 
     76 CB         -1.6149  -26.0232  -40.7286 C.3       13 UNK        -0.1800 
     77 C          -2.2718  -27.1805  -42.8821 C.2       13 UNK         0.5000 
     78 O          -2.5177  -28.3846  -42.9624 O.2       13 UNK        -0.5000 
     79 N          -1.5799  -26.4949  -43.8024 N.am      14 UNK        -0.5000 
     80 CA         -1.0373  -27.0729  -45.0313 C.3       14 UNK         0.1400 
     81 CB          0.2418  -26.3166  -45.4260 C.3       14 UNK        -0.1800 
     82 C          -2.0555  -27.0281  -46.1816 C.2       14 UNK         0.5000 
     83 O          -2.0805  -27.9523  -46.9945 O.2       14 UNK        -0.5000 
     84 N          -2.8641  -25.9546  -46.2238 N.am      15 UNK        -0.5000 
     85 CA         -3.8783  -25.6487  -47.2444 C.3       15 UNK         0.1400 
     86 CB         -5.0737  -26.6153  -47.1209 C.3       15 UNK        -0.1800 
     87 C          -3.2735  -25.5995  -48.6659 C.2       15 UNK         0.5000 
     88 O          -3.7330  -26.3028  -49.5682 O.2       15 UNK        -0.5000 
     89 N          -2.2016  -24.8067  -48.8039 N.am      16 UNK        -0.5000 
     90 CA         -1.3694  -24.6872  -50.0007 C.3       16 UNK         0.1400 
     91 CB         -0.1967  -23.7459  -49.6808 C.3       16 UNK        -0.1800 
     92 C          -2.1188  -24.1815  -51.2490 C.2       16 UNK         0.5000 
     93 O          -3.0924  -23.4344  -51.1395 O.2       16 UNK        -0.5000 
     94 N          -1.5874  -24.5411  -52.4248 N.am      17 UNK        -0.5000 
     95 CA         -2.0780  -24.1261  -53.7443 C.3       17 UNK         0.1400 
     96 CB         -1.4984  -25.0765  -54.8044 C.3       17 UNK        -0.1800 
     97 C          -1.7620  -22.6569  -54.1012 C.2       17 UNK         0.5000 
     98 O          -2.1906  -22.1874  -55.1562 O.2       17 UNK        -0.5000 
     99 N          -1.0362  -21.9513  -53.2198 N.am      18 UNK        -0.5000 
    100 CA        -0.5960  -20.5575  -53.3416 C.3       18 UNK         0.1400 
    101 CB         0.1959  -20.1802  -52.0783 C.3       18 UNK        -0.1800 
    102 C         -1.7180  -19.5321  -53.6032 C.2       18 UNK         0.5000 
    103 O         -1.4316  -18.4512  -54.1174 O.2       18 UNK        -0.5000 
    104 N         -2.9726  -19.8905  -53.2914 N.am      19 UNK        -0.5000 
    105 CA        -4.1736  -19.1142  -53.6117 C.3       19 UNK         0.1400 
    106 CB        -5.4107  -19.8301  -53.0499 C.3       19 UNK        -0.1800 
    107 C         -4.3411  -18.8519  -55.1217 C.2       19 UNK         0.5000 
    108 O         -4.8185  -17.7840  -55.5061 O.2       19 UNK        -0.5000 
    109 N         -3.9024  -19.8088  -55.9529 N.am      20 UNK        -0.5000 
    110 CA        -3.8856  -19.6879  -57.4104 C.3       20 UNK         0.1400 
    111 CB        -3.7126  -21.0845  -58.0270 C.3       20 UNK        -0.1800 
    112 C         -2.7901  -18.7322  -57.9232 C.2       20 UNK         0.5000 
    113 O         -2.9179  -18.2193  -59.0356 O.2       20 UNK        -0.5000 
    114 N         -1.7391  -18.5120  -57.1203 N.am      21 UNK        -0.5000 
    115 CA        -0.6430  -17.5995  -57.4328 C.3       21 UNK         0.1400 
    116 CB         0.6540  -18.0862  -56.7656 C.3       21 UNK        -0.1800 
    117 C         -0.9811  -16.1598  -57.0148 C.2       21 UNK         0.5000 
    118 O         -0.7836  -15.2452  -57.8165 O.2       21 UNK        -0.5000 
    119 N         -1.4821  -15.9761  -55.7833 N.am      22 UNK        -0.5000 
    120 CA        -1.8717  -14.6534  -55.2629 C.3       22 UNK         0.1400 
    121 C         -3.2330  -14.1172  -55.7955 C.2       22 UNK         0.5000 
    122 N         -4.1545  -14.9616  -56.2437 N.am      22 UNK        -0.7600 
    123 O         -3.4480  -12.9082  -55.8206 O.2       22 UNK        -0.5000 
    124 C124       -1.7568  -14.5546  -53.7196 C.3       23 UNK        -0.0398 
    125 S125       -2.9578  -15.5707  -52.7957 S.3       23 UNK        -0.2404 
    126 C126       -2.0128  -15.9403  -51.2885 C.3       23 UNK        -0.0205 
    127 H127       -3.8972  -18.8606  -42.2370 H         1 UNK         0.0600 
    128 H128       -3.7851  -19.0437  -43.9859 H         1 UNK         0.0600 
    129 H129       -5.3581  -18.7797  -43.2291 H         1 UNK         0.0600 
    130 H130       -3.0745  -17.2223  -45.0283 H         1 UNK         0.3000 
    131 H131       -3.8793  -14.4890  -44.1818 H         1 UNK         0.0600 
    132 H132       -2.5901  -13.9402  -46.3928 H         1 UNK         0.0800 
    133 H133       -2.6493  -15.6466  -46.7279 H         1 UNK         0.0800 
    134 H134       -6.3406  -16.1611  -47.8356 H         1 UNK         0.0800 
    135 H135       -5.4020  -16.8829  -46.5528 H         1 UNK         0.0800 
    136 H136       -3.7298  -15.0463  -49.3780 H         1 UNK         0.1150 
    137 H137       -2.1002  -18.6338  -51.0199 H         1 UNK         0.1150 
    138 H138       -5.0044  -18.8412  -47.8756 H         1 UNK         0.1150 
    139 H139       -2.3520  -20.7273  -49.5492 H         1 UNK         0.0800 
    140 H140       -3.8084  -20.7823  -50.5021 H         1 UNK         0.0800 
    141 H141       -3.8087  -19.9789  -46.3292 H         1 UNK         0.0800 
    142 H142       -2.3541  -20.4973  -47.1293 H         1 UNK         0.0800 
    143 H143       -2.8658  -22.8696  -46.2477 H         1 UNK         0.0600 
    144 H144       -1.5485  -20.6970  -44.9835 H         1 UNK         0.3000 
    145 H145        0.0146  -22.0970  -42.4533 H         1 UNK         0.0600 
    146 H146        2.2549  -22.4932  -43.4863 H         1 UNK         0.0600 
    147 H147        1.1999  -23.8766  -43.7095 H         1 UNK         0.0600 
    148 H148        1.4919  -22.7740  -45.0510 H         1 UNK         0.0600 
    149 H149        1.1580  -20.3918  -44.4911 H         1 UNK         0.3000 
    150 H150       -0.5854  -17.4424  -43.4700 H         1 UNK         0.0600 
    151 H151        2.3561  -18.2907  -43.3025 H         1 UNK         0.0600 
    152 H152        1.4070  -17.6205  -41.9821 H         1 UNK         0.0600 
    153 H153        1.7685  -16.6327  -43.3930 H         1 UNK         0.0600 
    154 H154        1.3232  -17.8990  -45.5382 H         1 UNK         0.3000 
    155 H155       -0.9844  -18.8338  -48.1001 H         1 UNK         0.0600 
    156 H156        0.7334  -16.3319  -47.7247 H         1 UNK         0.0600 
    157 H157       -0.9840  -16.3418  -48.0946 H         1 UNK         0.0600 
    158 H158        0.1629  -16.9788  -49.2585 H         1 UNK         0.0600 
    159 H159        1.8917  -18.4641  -47.8320 H         1 UNK         0.3000 
    160 H160        2.6561  -21.8691  -47.2935 H         1 UNK         0.0600 
    161 H161        2.9338  -20.2410  -49.8790 H         1 UNK         0.0600 
    162 H162        2.2092  -21.8385  -49.7498 H         1 UNK         0.0600 
    163 H163        3.9203  -21.6287  -49.4169 H         1 UNK         0.0600 
    164 H164        4.2569  -19.5599  -47.8875 H         1 UNK         0.3000 
    165 H165        4.5849  -18.4322  -44.5030 H         1 UNK         0.0600 
    166 H166        6.9723  -18.7530  -45.0313 H         1 UNK         0.0600 
    167 H167        6.5694  -19.7524  -46.4278 H         1 UNK         0.0600 
    168 H168        6.2074  -20.3164  -44.8008 H         1 UNK         0.0600 
    169 H169        5.8277  -17.3437  -46.7231 H         1 UNK         0.3000 
    170 H170        5.1152  -15.0673  -47.1291 H         1 UNK         0.0600 
    171 H171        5.1884  -16.6641  -49.0649 H         1 UNK         0.0600 
    172 H172        3.4752  -16.3988  -49.3646 H         1 UNK         0.0600 
    173 H173        4.6307  -15.0851  -49.5852 H         1 UNK         0.0600 
    174 H174        2.6129  -14.3702  -48.2916 H         1 UNK         0.3000 
    175 H175        2.0320  -11.9132  -47.0038 H         1 UNK         0.0600 
    176 H176        0.0383  -14.2302  -47.1215 H         1 UNK         0.0600 
    177 H177       -0.2901  -12.5782  -47.6141 H         1 UNK         0.0600 
    178 H178        0.8826  -13.5271  -48.4998 H         1 UNK         0.0600 
    179 H179        0.3277  -13.1488  -44.9055 H         1 UNK         0.3000 
    180 H180        1.2029  -10.8804  -42.4542 H         1 UNK         0.0600 
    181 H181       -1.2714  -10.2563  -44.1546 H         1 UNK         0.0600 
    182 H182       -0.0243   -9.1031  -43.6961 H         1 UNK         0.0600 
    183 H183       -1.0464   -9.8176  -42.4604 H         1 UNK         0.0600 
    184 H184       -1.2197  -12.4061  -42.9899 H         1 UNK         0.3000 
    185 H185        0.0110  -15.5036  -41.9732 H         1 UNK         0.0600 
    186 H186       -1.5845  -15.4680  -40.0885 H         1 UNK         0.0600 
    187 H187       -0.1712  -14.5056  -39.6894 H         1 UNK         0.0600 
    188 H188       -1.6693  -13.7068  -40.1526 H         1 UNK         0.0600 
    189 H189       -2.6638  -14.8259  -42.1905 H         1 UNK         0.3000 
    190 H190       -3.2524  -23.5841  -43.8235 H         1 UNK         0.3000 
    191 H191       -6.1141  -23.8837  -43.6087 H         1 UNK         0.0600 
    192 H192       -6.2439  -23.2050  -41.1845 H         1 UNK         0.0600 
    193 H193       -5.9145  -21.8263  -42.2213 H         1 UNK         0.0600 
    194 H194       -4.6134  -22.5473  -41.2782 H         1 UNK         0.0600 
    195 H195       -2.9132  -24.3045  -42.0361 H         1 UNK         0.3000 
    196 H196       -3.4786  -27.0082  -41.1163 H         1 UNK         0.0600 
    197 H197       -0.8874  -25.3685  -41.2104 H         1 UNK         0.0600 
    198 H198       -1.9760  -25.5193  -39.8320 H         1 UNK         0.0600 
    199 H199       -1.0858  -26.9206  -40.4053 H         1 UNK         0.0600 
    200 H200       -1.4369  -25.4969  -43.6757 H         1 UNK         0.3000 
    201 H201       -0.7697  -28.1172  -44.8557 H         1 UNK         0.0600 
    202 H202        0.0426  -25.2686  -45.6518 H         1 UNK         0.0600 
    203 H203        0.6974  -26.7596  -46.3125 H         1 UNK         0.0600 
    204 H204        0.9830  -26.3527  -44.6276 H         1 UNK         0.0600 
    205 H205       -2.7364  -25.2647  -45.4993 H         1 UNK         0.3000 
    206 H206       -4.2530  -24.6465  -47.0344 H         1 UNK         0.0600 
    207 H207       -5.4939  -26.5931  -46.1152 H         1 UNK         0.0600 
    208 H208       -5.8707  -26.3396  -47.8124 H         1 UNK         0.0600 
    209 H209       -4.7897  -27.6445  -47.3423 H         1 UNK         0.0600 
    210 H210       -1.9010  -24.2661  -48.0083 H         1 UNK         0.3000 
    211 H211       -0.9719  -25.6809  -50.2175 H         1 UNK         0.0600 
    212 H212        0.3634  -24.0869  -48.8096 H         1 UNK         0.0600 
    213 H213       -0.5448  -22.7322  -49.4786 H         1 UNK         0.0600 
    214 H214        0.5056  -23.6913  -50.5133 H         1 UNK         0.0600 
    215 H215       -0.7744  -25.1408  -52.4276 H         1 UNK         0.3000 
    216 H216       -3.1651  -24.2292  -53.7535 H         1 UNK         0.0600 
    217 H217       -0.4101  -25.0171  -54.8458 H         1 UNK         0.0600 
    218 H218       -1.8780  -24.8359  -55.7984 H         1 UNK         0.0600 
    219 H219       -1.7717  -26.1116  -54.5983 H         1 UNK         0.0600 
    220 H220       -0.7427  -22.4341  -52.3850 H         1 UNK         0.3000 
    221 H221        0.0801  -20.5054  -54.1972 H         1 UNK         0.0600 
    222 H222        1.0941  -20.7902  -51.9816 H         1 UNK         0.0600 
    223 H223       -0.3963  -20.3150  -51.1727 H         1 UNK         0.0600 
    224 H224        0.5172  -19.1379  -52.1094 H         1 UNK         0.0600 
    225 H225       -3.1180  -20.8038  -52.8873 H         1 UNK         0.3000 
    226 H226       -4.0911  -18.1483  -53.1146 H         1 UNK         0.0600 
    227 H227       -5.4957  -20.8485  -53.4307 H         1 UNK         0.0600 
    228 H228       -5.3812  -19.8757  -51.9620 H         1 UNK         0.0600 
    229 H229       -6.3249  -19.3001  -53.3207 H         1 UNK         0.0600 
    230 H230       -3.4784  -20.6458  -55.5652 H         1 UNK         0.3000 
    231 H231       -4.8497  -19.2904  -57.7344 H         1 UNK         0.0600 
    232 H232       -2.7529  -21.5270  -57.7578 H         1 UNK         0.0600 
    233 H233       -3.7582  -21.0387  -59.1158 H         1 UNK         0.0600 
    234 H234       -4.4994  -21.7629  -57.6969 H         1 UNK         0.0600 
    235 H235       -1.7389  -18.9154  -56.1931 H         1 UNK         0.3000 
    236 H236       -0.4729  -17.6039  -58.5118 H         1 UNK         0.0600 
    237 H237        0.8923  -19.1068  -57.0653 H         1 UNK         0.0600 
    238 H238        1.4962  -17.4574  -57.0568 H         1 UNK         0.0600 
    239 H239        0.5943  -18.0618  -55.6780 H         1 UNK         0.0600 
    240 H240       -1.6053  -16.7710  -55.1631 H         1 UNK         0.3000 
    241 H241       -1.1315  -13.9453  -55.6414 H         1 UNK         0.0600 
    242 H242       -5.0262  -14.5963  -56.5916 H         1 UNK         0.3800 
    243 H243       -4.0473  -15.9627  -56.1326 H         1 UNK         0.3800 
    244 H244       -1.8776  -13.5179  -53.4010 H         1 UNK         0.0800 
    245 H245       -0.7471  -14.8383  -53.4199 H         1 UNK         0.0800 
    246 H246       -1.6941  -15.0091  -50.8176 H         1 UNK         0.0800 
    247 H247       -1.1043  -16.4827  -51.5561 H         1 UNK         0.0800 
@<TRIPOS>BOND
     1    1    2 1    
     2    1  127 1    
     3    1  128 1    
     4    1  129 1    
     5    2    3 2    
     6    2    4 am   BACKBONE|DICT|INTERRES
     7    4    5 1    
     8    4  130 1    
     9    5    6 1    
    10    5   65 1    
    11    5  131 1    
    12    6    7 1    
    13    6  132 1    
    14    6  133 1    
    15    7    8 1    
    16    8    9 1    
    17    8  134 1    
    18    8  135 1    
    19    9   10 ar   
    20    9   14 ar   
    21   10   11 ar   
    22   10  136 1    
    23   11   12 ar   
    24   11  126 1    
    25   12   13 ar   
    26   12  137 1    
    27   13   14 ar   
    28   13   15 1    
    29   14  138 1    
    30   15   16 1    
    31   15  139 1    
    32   15  140 1    
    33   16   17 1    
    34   17   18 1    
    35   17  141 1    
    36   17  142 1    
    37   18   19 1    
    38   18   67 1    
    39   18  143 1    
    40   19   20 am   BACKBONE|DICT|INTERRES
    41   19  144 1    
    42   20   21 2    
    43   20   22 1    
    44   22   23 1    
    45   22   24 1    
    46   22  145 1    
    47   23  146 1    
    48   23  147 1    
    49   23  148 1    
    50   24   25 am   BACKBONE|DICT|INTERRES
    51   24  149 1    
    52   25   26 2    
    53   25   27 1    
    54   27   28 1    
    55   27   29 1    
    56   27  150 1    
    57   28  151 1    
    58   28  152 1    
    59   28  153 1    
    60   29   30 am   BACKBONE|DICT|INTERRES
    61   29  154 1    
    62   30   31 2    
    63   30   32 1    
    64   32   33 1    
    65   32   34 1    
    66   32  155 1    
    67   33  156 1    
    68   33  157 1    
    69   33  158 1    
    70   34   35 am   BACKBONE|DICT|INTERRES
    71   34  159 1    
    72   35   36 2    
    73   35   37 1    
    74   37   38 1    
    75   37   39 1    
    76   37  160 1    
    77   38  161 1    
    78   38  162 1    
    79   38  163 1    
    80   39   40 am   BACKBONE|DICT|INTERRES
    81   39  164 1    
    82   40   41 2    
    83   40   42 1    
    84   42   43 1    
    85   42   44 1    
    86   42  165 1    
    87   43  166 1    
    88   43  167 1    
    89   43  168 1    
    90   44   45 am   BACKBONE|DICT|INTERRES
    91   44  169 1    
    92   45   46 2    
    93   45   47 1    
    94   47   48 1    
    95   47   49 1    
    96   47  170 1    
    97   48  171 1    
    98   48  172 1    
    99   48  173 1    
   100   49   50 am   BACKBONE|DICT|INTERRES
   101   49  174 1    
   102   50   51 2    
   103   50   52 1    
   104   52   53 1    
   105   52   54 1    
   106   52  175 1    
   107   53  176 1    
   108   53  177 1    
   109   53  178 1    
   110   54   55 am   BACKBONE|DICT|INTERRES
   111   54  179 1    
   112   55   56 2    
   113   55   57 1    
   114   57   58 1    
   115   57   59 1    
   116   57  180 1    
   117   58  181 1    
   118   58  182 1    
   119   58  183 1    
   120   59   60 am   BACKBONE|DICT|INTERRES
   121   59  184 1    
   122   60   61 2    
   123   60   62 1    
   124   62   63 1    
   125   62   64 1    
   126   62  185 1    
   127   63  186 1    
   128   63  187 1    
   129   63  188 1    
   130   64   65 am   BACKBONE|DICT|INTERRES
   131   64  189 1    
   132   65   66 2    
   133   67   68 2    
   134   67   69 am   BACKBONE|DICT|INTERRES
   135   69   70 1    
   136   69  190 1    
   137   70   71 1    
   138   70   72 1    
   139   70  191 1    
   140   71  192 1    
   141   71  193 1    
   142   71  194 1    
   143   72   73 2    
   144   72   74 am   BACKBONE|DICT|INTERRES
   145   74   75 1    
   146   74  195 1    
   147   75   76 1    
   148   75   77 1    
   149   75  196 1    
   150   76  197 1    
   151   76  198 1    
   152   76  199 1    
   153   77   78 2    
   154   77   79 am   BACKBONE|DICT|INTERRES
   155   79   80 1    
   156   79  200 1    
   157   80   81 1    
   158   80   82 1    
   159   80  201 1    
   160   81  202 1    
   161   81  203 1    
   162   81  204 1    
   163   82   83 2    
   164   82   84 am   BACKBONE|DICT|INTERRES
   165   84   85 1    
   166   84  205 1    
   167   85   86 1    
   168   85   87 1    
   169   85  206 1    
   170   86  207 1    
   171   86  208 1    
   172   86  209 1    
   173   87   88 2    
   174   87   89 am   BACKBONE|DICT|INTERRES
   175   89   90 1    
   176   89  210 1    
   177   90   91 1    
   178   90   92 1    
   179   90  211 1    
   180   91  212 1    
   181   91  213 1    
   182   91  214 1    
   183   92   93 2    
   184   92   94 am   BACKBONE|DICT|INTERRES
   185   94   95 1    
   186   94  215 1    
   187   95   96 1    
   188   95   97 1    
   189   95  216 1    
   190   96  217 1    
   191   96  218 1    
   192   96  219 1    
   193   97   98 2    
   194   97   99 am   BACKBONE|DICT|INTERRES
   195   99  100 1    
   196   99  220 1    
   197  100  101 1    
   198  100  102 1    
   199  100  221 1    
   200  101  222 1    
   201  101  223 1    
   202  101  224 1    
   203  102  103 2    
   204  102  104 am   BACKBONE|DICT|INTERRES
   205  104  105 1    
   206  104  225 1    
   207  105  106 1    
   208  105  107 1    
   209  105  226 1    
   210  106  227 1    
   211  106  228 1    
   212  106  229 1    
   213  107  108 2    
   214  107  109 am   BACKBONE|DICT|INTERRES
   215  109  110 1    
   216  109  230 1    
   217  110  111 1    
   218  110  112 1    
   219  110  231 1    
   220  111  232 1    
   221  111  233 1    
   222  111  234 1    
   223  112  113 2    
   224  112  114 am   BACKBONE|DICT|INTERRES
   225  114  115 1    
   226  114  235 1    
   227  115  116 1    
   228  115  117 1    
   229  115  236 1    
   230  116  237 1    
   231  116  238 1    
   232  116  239 1    
   233  117  118 2    
   234  117  119 am   BACKBONE|DICT|INTERRES
   235  119  120 1    
   236  119  240 1    
   237  120  121 1    
   238  120  124 1    
   239  120  241 1    
   240  121  122 am   BACKBONE|DICT|INTERRES
   241  121  123 2    
   242  122  242 1    
   243  122  243 1    
   244  124  125 1    
   245  124  244 1    
   246  124  245 1    
   247  125  126 1    
   248  126  246 1    
   249  126  247 1    
@<TRIPOS>SUBSTRUCTURE
     1 UNK         1 GROUP             0       ****    0 ROOT    
