@<TRIPOS>MOLECULE
3R540
247   249    1
SMALL
USER_CHARGES


@<TRIPOS>ATOM
      1 CA          0.5463  -14.0138  -52.5684 C.3       0 UNK        -0.1800 
      2 C           1.1206  -12.9163  -51.6856 C.2       0 UNK         0.5000 
      3 O           1.1403  -11.7515  -52.0846 O.2       0 UNK        -0.5000 
      4 N           1.5984  -13.2860  -50.4928 N.am      1 UNK        -0.5000 
      5 CA          2.1204  -12.3772  -49.4708 C.3       1 UNK         0.1400 
      6 C6          3.0282  -13.0928  -48.4300 C.3       23 UNK        -0.0398 
      7 S7          2.4709  -14.7648  -47.9274 S.3       23 UNK        -0.2404 
      8 C8          3.6066  -15.7728  -48.9312 C.3       23 UNK        -0.0205 
      9 C9          3.1134  -17.1949  -49.1511 C.ar      23 UNK        -0.0193 
     10 C10         2.0131  -17.4326  -49.9815 C.ar      23 UNK        -0.1150 
     11 C11         1.6311  -18.7398  -50.3041 C.ar      23 UNK        -0.0193 
     12 C12         2.3630  -19.8071  -49.7787 C.ar      23 UNK        -0.1150 
     13 C13         3.4357  -19.5893  -48.9093 C.ar      23 UNK        -0.0193 
     14 C14         3.8047  -18.2774  -48.5972 C.ar      23 UNK        -0.1150 
     15 C15         4.2223  -20.7704  -48.3502 C.3       23 UNK        -0.0205 
     16 S16         3.4219  -21.5329  -46.8987 S.3       23 UNK        -0.2404 
     17 C17         1.9525  -22.2852  -47.6700 C.3       23 UNK        -0.0398 
     18 CA          1.2254  -23.3255  -46.7885 C.3       11 UNK         0.1400 
     19 N           0.6992  -22.7441  -45.5496 N.am      11 UNK        -0.5000 
     20 C           0.1502  -23.4512  -44.5519 C.2       10 UNK         0.5000 
     21 O           0.1227  -24.6822  -44.5198 O.2       10 UNK        -0.5000 
     22 CA         -0.5337  -22.6505  -43.4276 C.3       10 UNK         0.1400 
     23 CB          0.4879  -22.1741  -42.3842 C.3       10 UNK        -0.1800 
     24 N          -1.3038  -21.5109  -43.9332 N.am      10 UNK        -0.5000 
     25 C          -2.3805  -21.6247  -44.7245 C.2       9 UNK         0.5000 
     26 O          -2.8523  -22.7036  -45.0787 O.2       9 UNK        -0.5000 
     27 CA         -3.0288  -20.3256  -45.2329 C.3       9 UNK         0.1400 
     28 CB         -3.9759  -19.7485  -44.1703 C.3       9 UNK        -0.1800 
     29 N          -2.0552  -19.3128  -45.6425 N.am      9 UNK        -0.5000 
     30 C          -1.1578  -19.4560  -46.6300 C.2       8 UNK         0.5000 
     31 O          -1.0868  -20.4520  -47.3462 O.2       8 UNK        -0.5000 
     32 CA         -0.1192  -18.3300  -46.7981 C.3       8 UNK         0.1400 
     33 CB         -0.7145  -17.1348  -47.5557 C.3       8 UNK        -0.1800 
     34 N           0.4221  -17.8827  -45.5146 N.am      8 UNK        -0.5000 
     35 C           1.0812  -18.6757  -44.6565 C.2       7 UNK         0.5000 
     36 O           1.3415  -19.8583  -44.8731 O.2       7 UNK        -0.5000 
     37 CA          1.4385  -18.0630  -43.2941 C.3       7 UNK         0.1400 
     38 CB          2.7012  -17.1929  -43.3908 C.3       7 UNK        -0.1800 
     39 N           0.3209  -17.2809  -42.7632 N.am      7 UNK        -0.5000 
     40 C          -0.8073  -17.8250  -42.2825 C.2       6 UNK         0.5000 
     41 O          -0.9860  -19.0385  -42.1797 O.2       6 UNK        -0.5000 
     42 CA         -1.9390  -16.8584  -41.8828 C.3       6 UNK         0.1400 
     43 CB         -1.7575  -16.3849  -40.4333 C.3       6 UNK        -0.1800 
     44 N          -2.0283  -15.6936  -42.7638 N.am      6 UNK        -0.5000 
     45 C          -2.3851  -15.7406  -44.0555 C.2       5 UNK         0.5000 
     46 O          -2.7476  -16.7674  -44.6246 O.2       5 UNK        -0.5000 
     47 CA         -2.2677  -14.4348  -44.8630 C.3       5 UNK         0.1400 
     48 CB         -3.6060  -13.6831  -44.8821 C.3       5 UNK        -0.1800 
     49 N          -1.2176  -13.5443  -44.3664 N.am      5 UNK        -0.5000 
     50 C           0.0902  -13.8320  -44.3412 C.2       4 UNK         0.5000 
     51 O           0.5410  -14.9116  -44.7276 O.2       4 UNK        -0.5000 
     52 CA          1.0346  -12.7577  -43.7550 C.3       4 UNK         0.1400 
     53 CB          2.5027  -12.9926  -44.1501 C.3       4 UNK        -0.1800 
     54 N           0.6626  -11.3925  -44.1325 N.am      4 UNK        -0.5000 
     55 C          -0.3339  -10.6574  -43.6267 C.2       3 UNK         0.5000 
     56 O          -1.0929  -11.0681  -42.7486 O.2       3 UNK        -0.5000 
     57 CA         -0.5646   -9.2579  -44.2338 C.3       3 UNK         0.1400 
     58 CB          0.3814   -8.2152  -43.6082 C.3       3 UNK        -0.1800 
     59 N          -0.5225   -9.2179  -45.7047 N.am      3 UNK        -0.5000 
     60 C           0.5190   -9.4332  -46.5196 C.2       2 UNK         0.5000 
     61 O           1.6628   -9.6833  -46.1289 O.2       2 UNK        -0.5000 
     62 CA          0.2319   -9.3586  -48.0290 C.3       2 UNK         0.1400 
     63 CB          0.4413   -7.9277  -48.5475 C.3       2 UNK        -0.1800 
     64 N           1.1154  -10.2636  -48.7609 N.am      2 UNK        -0.5000 
     65 C           0.9732  -11.5943  -48.8017 C.2       1 UNK         0.5000 
     66 O           0.0044  -12.1959  -48.3324 O.2       1 UNK        -0.5000 
     67 C           0.0998  -23.9895  -47.6098 C.2       11 UNK         0.5000 
     68 O           0.2324  -25.1421  -48.0241 O.2       11 UNK        -0.5000 
     69 N          -0.9948  -23.2471  -47.8212 N.am      12 UNK        -0.5000 
     70 CA         -2.1483  -23.6539  -48.6191 C.3       12 UNK         0.1400 
     71 CB         -3.1078  -22.4737  -48.7523 C.3       12 UNK        -0.1800 
     72 C          -2.8892  -24.8828  -48.0726 C.2       12 UNK         0.5000 
     73 O          -3.3901  -25.6763  -48.8666 O.2       12 UNK        -0.5000 
     74 N          -2.9192  -25.0425  -46.7436 N.am      13 UNK        -0.5000 
     75 CA         -3.4769  -26.2077  -46.0573 C.3       13 UNK         0.1400 
     76 CB         -3.4951  -25.9467  -44.5437 C.3       13 UNK        -0.1800 
     77 C          -2.7192  -27.5112  -46.3732 C.2       13 UNK         0.5000 
     78 O          -3.3481  -28.5646  -46.4773 O.2       13 UNK        -0.5000 
     79 N          -1.3933  -27.4153  -46.5446 N.am      14 UNK        -0.5000 
     80 CA         -0.5374  -28.5277  -46.9555 C.3       14 UNK         0.1400 
     81 CB          0.9100  -28.2479  -46.5221 C.3       14 UNK        -0.1800 
     82 C          -0.6196  -28.7813  -48.4717 C.2       14 UNK         0.5000 
     83 O          -0.6335  -29.9380  -48.8941 O.2       14 UNK        -0.5000 
     84 N          -0.6810  -27.6994  -49.2608 N.am      15 UNK        -0.5000 
     85 CA         -0.7604  -27.7370  -50.7239 C.3       15 UNK         0.1400 
     86 CB         -0.3811  -26.3536  -51.2743 C.3       15 UNK        -0.1800 
     87 C          -2.1393  -28.1624  -51.2706 C.2       15 UNK         0.5000 
     88 O          -2.2180  -28.5761  -52.4278 O.2       15 UNK        -0.5000 
     89 N          -3.1886  -28.0278  -50.4461 N.am      16 UNK        -0.5000 
     90 CA         -4.6128  -28.1702  -50.7692 C.3       16 UNK         0.1400 
     91 CB         -4.9539  -29.6084  -51.2131 C.3       16 UNK        -0.1800 
     92 C          -5.0716  -27.0846  -51.7664 C.2       16 UNK         0.5000 
     93 O          -5.6778  -27.3912  -52.7952 O.2       16 UNK        -0.5000 
     94 N          -4.7383  -25.8310  -51.4408 N.am      17 UNK        -0.5000 
     95 CA         -4.9918  -24.6339  -52.2409 C.3       17 UNK         0.1400 
     96 CB         -3.6287  -24.0579  -52.6678 C.3       17 UNK        -0.1800 
     97 C          -5.7997  -23.5993  -51.4342 C.2       17 UNK         0.5000 
     98 O          -6.1352  -23.8397  -50.2714 O.2       17 UNK        -0.5000 
     99 N          -6.0803  -22.4492  -52.0614 N.am      18 UNK        -0.5000 
    100 CA        -6.5700  -21.2402  -51.3936 C.3       18 UNK         0.1400 
    101 CB        -7.2409  -20.3302  -52.4340 C.3       18 UNK        -0.1800 
    102 C         -5.4020  -20.5061  -50.7070 C.2       18 UNK         0.5000 
    103 O         -4.2712  -20.6158  -51.1801 O.2       18 UNK        -0.5000 
    104 N         -5.7003  -19.7859  -49.6160 N.am      19 UNK        -0.5000 
    105 CA        -4.7432  -19.1164  -48.7276 C.3       19 UNK         0.1400 
    106 CB        -5.4855  -18.6350  -47.4659 C.3       19 UNK        -0.1800 
    107 C         -3.9251  -17.9993  -49.4079 C.2       19 UNK         0.5000 
    108 O         -2.9298  -18.2885  -50.0677 O.2       19 UNK        -0.5000 
    109 N         -4.3329  -16.7355  -49.2255 N.am      20 UNK        -0.5000 
    110 CA        -3.6094  -15.5494  -49.7016 C.3       20 UNK         0.1400 
    111 CB        -4.2575  -14.2940  -49.0984 C.3       20 UNK        -0.1800 
    112 C         -3.5147  -15.4359  -51.2373 C.2       20 UNK         0.5000 
    113 O         -2.6249  -14.7507  -51.7394 O.2       20 UNK        -0.5000 
    114 N         -4.4235  -16.1122  -51.9517 N.am      21 UNK        -0.5000 
    115 CA        -4.4190  -16.2267  -53.4094 C.3       21 UNK         0.1400 
    116 CB        -5.8435  -16.5678  -53.8758 C.3       21 UNK        -0.1800 
    117 C         -3.4178  -17.2764  -53.9356 C.2       21 UNK         0.5000 
    118 O         -3.0844  -17.2352  -55.1202 O.2       21 UNK        -0.5000 
    119 N         -2.9855  -18.2079  -53.0728 N.am      22 UNK        -0.5000 
    120 CA        -2.0972  -19.3468  -53.3729 C.3       22 UNK         0.1400 
    121 C         -2.6900  -20.4189  -54.3418 C.2       22 UNK         0.5000 
    122 N         -3.9784  -20.3957  -54.6619 N.am      22 UNK        -0.7600 
    123 O         -1.9755  -21.3068  -54.7994 O.2       22 UNK        -0.5000 
    124 C124       -0.6604  -18.9183  -53.7902 C.3       23 UNK        -0.0398 
    125 S125        0.1945  -17.8632  -52.5703 S.3       23 UNK        -0.2404 
    126 C126        0.4279  -19.0398  -51.1948 C.3       23 UNK        -0.0205 
    127 H127       -0.3637  -13.6684  -53.0590 H         1 UNK         0.0600 
    128 H128        0.2950  -14.9008  -51.9870 H         1 UNK         0.0600 
    129 H129        1.2647  -14.2970  -53.3373 H         1 UNK         0.0600 
    130 H130        1.5142  -14.2467  -50.1944 H         1 UNK         0.3000 
    131 H131        2.7534  -11.6499  -49.9846 H         1 UNK         0.0600 
    132 H132        4.0358  -13.1732  -48.8397 H         1 UNK         0.0800 
    133 H133        3.1474  -12.4829  -47.5328 H         1 UNK         0.0800 
    134 H134        4.5891  -15.7724  -48.4567 H         1 UNK         0.0800 
    135 H135        3.7421  -15.3093  -49.9096 H         1 UNK         0.0800 
    136 H136        1.4685  -16.5955  -50.3926 H         1 UNK         0.1150 
    137 H137        2.0883  -20.8175  -50.0434 H         1 UNK         0.1150 
    138 H138        4.6533  -18.0997  -47.9516 H         1 UNK         0.1150 
    139 H139        4.3657  -21.5228  -49.1271 H         1 UNK         0.0800 
    140 H140        5.2229  -20.4457  -48.0611 H         1 UNK         0.0800 
    141 H141        2.2681  -22.7477  -48.6072 H         1 UNK         0.0800 
    142 H142        1.2663  -21.4796  -47.9314 H         1 UNK         0.0800 
    143 H143        1.9401  -24.1052  -46.5167 H         1 UNK         0.0600 
    144 H144        0.7328  -21.7320  -45.4709 H         1 UNK         0.3000 
    145 H145       -1.2337  -23.3225  -42.9265 H         1 UNK         0.0600 
    146 H146       -0.0026  -21.6561  -41.5600 H         1 UNK         0.0600 
    147 H147        1.0322  -23.0186  -41.9599 H         1 UNK         0.0600 
    148 H148        1.2234  -21.4955  -42.8152 H         1 UNK         0.0600 
    149 H149       -0.9957  -20.5880  -43.6496 H         1 UNK         0.3000 
    150 H150       -3.6271  -20.5773  -46.1082 H         1 UNK         0.0600 
    151 H151       -4.7317  -20.4808  -43.8838 H         1 UNK         0.0600 
    152 H152       -4.5024  -18.8689  -44.5388 H         1 UNK         0.0600 
    153 H153       -3.4401  -19.4612  -43.2663 H         1 UNK         0.0600 
    154 H154       -2.0904  -18.4288  -45.1408 H         1 UNK         0.3000 
    155 H155        0.7158  -18.7233  -47.3816 H         1 UNK         0.0600 
    156 H156       -1.6531  -16.7977  -47.1167 H         1 UNK         0.0600 
    157 H157       -0.0286  -16.2889  -47.5700 H         1 UNK         0.0600 
    158 H158       -0.9128  -17.4035  -48.5928 H         1 UNK         0.0600 
    159 H159        0.2837  -16.9089  -45.2670 H         1 UNK         0.3000 
    160 H160        1.6468  -18.8797  -42.5994 H         1 UNK         0.0600 
    161 H161        2.5956  -16.3994  -44.1301 H         1 UNK         0.0600 
    162 H162        3.5607  -17.7956  -43.6867 H         1 UNK         0.0600 
    163 H163        2.9405  -16.7323  -42.4324 H         1 UNK         0.0600 
    164 H164        0.3686  -16.2802  -42.8922 H         1 UNK         0.3000 
    165 H165       -2.8822  -17.4048  -41.9473 H         1 UNK         0.0600 
    166 H166       -2.5925  -15.7605  -40.1149 H         1 UNK         0.0600 
    167 H167       -1.7083  -17.2334  -39.7495 H         1 UNK         0.0600 
    168 H168       -0.8397  -15.8088  -40.3084 H         1 UNK         0.0600 
    169 H169       -1.7523  -14.8039  -42.3755 H         1 UNK         0.3000 
    170 H170       -2.0139  -14.7045  -45.8900 H         1 UNK         0.0600 
    171 H171       -4.4055  -14.3191  -45.2649 H         1 UNK         0.0600 
    172 H172       -3.8967  -13.3529  -43.8841 H         1 UNK         0.0600 
    173 H173       -3.5548  -12.8046  -45.5258 H         1 UNK         0.0600 
    174 H174       -1.5097  -12.6564  -43.9754 H         1 UNK         0.3000 
    175 H175        0.9673  -12.8407  -42.6686 H         1 UNK         0.0600 
    176 H176        2.6316  -12.9726  -45.2321 H         1 UNK         0.0600 
    177 H177        3.1551  -12.2327  -43.7199 H         1 UNK         0.0600 
    178 H178        2.8577  -13.9602  -43.7941 H         1 UNK         0.0600 
    179 H179        1.2108  -10.9629  -44.8737 H         1 UNK         0.3000 
    180 H180       -1.5823   -8.9699  -43.9650 H         1 UNK         0.0600 
    181 H181        1.4301   -8.4441  -43.7990 H         1 UNK         0.0600 
    182 H182        0.2515   -8.1750  -42.5260 H         1 UNK         0.0600 
    183 H183        0.1798   -7.2170  -43.9967 H         1 UNK         0.0600 
    184 H184       -1.4179   -9.0387  -46.1383 H         1 UNK         0.3000 
    185 H185       -0.8045   -9.6507  -48.2122 H         1 UNK         0.0600 
    186 H186       -0.2230   -7.2268  -48.0402 H         1 UNK         0.0600 
    187 H187        1.4643   -7.5854  -48.3853 H         1 UNK         0.0600 
    188 H188        0.2296   -7.8599  -49.6148 H         1 UNK         0.0600 
    189 H189        1.9492   -9.8476  -49.1495 H         1 UNK         0.3000 
    190 H190       -1.0151  -22.2904  -47.4730 H         1 UNK         0.3000 
    191 H191       -1.7839  -23.9018  -49.6161 H         1 UNK         0.0600 
    192 H192       -3.4874  -22.1550  -47.7831 H         1 UNK         0.0600 
    193 H193       -3.9649  -22.7401  -49.3648 H         1 UNK         0.0600 
    194 H194       -2.6201  -21.6239  -49.2302 H         1 UNK         0.0600 
    195 H195       -2.5698  -24.2905  -46.1560 H         1 UNK         0.3000 
    196 H196       -4.5074  -26.3332  -46.3957 H         1 UNK         0.0600 
    197 H197       -3.9047  -26.8009  -44.0031 H         1 UNK         0.0600 
    198 H198       -4.1133  -25.0823  -44.3010 H         1 UNK         0.0600 
    199 H199       -2.4928  -25.7602  -44.1561 H         1 UNK         0.0600 
    200 H200       -0.9549  -26.5069  -46.4654 H         1 UNK         0.3000 
    201 H201       -0.8687  -29.4347  -46.4451 H         1 UNK         0.0600 
    202 H202        0.9769  -28.1037  -45.4436 H         1 UNK         0.0600 
    203 H203        1.3147  -27.3573  -47.0033 H         1 UNK         0.0600 
    204 H204        1.5615  -29.0837  -46.7801 H         1 UNK         0.0600 
    205 H205       -0.5971  -26.7837  -48.8310 H         1 UNK         0.3000 
    206 H206       -0.0257  -28.4592  -51.0858 H         1 UNK         0.0600 
    207 H207        0.5916  -26.0298  -50.9033 H         1 UNK         0.0600 
    208 H208       -0.3262  -26.3689  -52.3635 H         1 UNK         0.0600 
    209 H209       -1.1165  -25.5994  -50.9974 H         1 UNK         0.0600 
    210 H210       -3.0050  -27.5870  -49.5523 H         1 UNK         0.3000 
    211 H211       -5.1533  -27.9798  -49.8407 H         1 UNK         0.0600 
    212 H212       -4.5028  -29.8605  -52.1729 H         1 UNK         0.0600 
    213 H213       -6.0319  -29.7347  -51.3189 H         1 UNK         0.0600 
    214 H214       -4.6117  -30.3379  -50.4792 H         1 UNK         0.0600 
    215 H215       -4.3021  -25.6721  -50.5354 H         1 UNK         0.3000 
    216 H216       -5.5693  -24.8823  -53.1334 H         1 UNK         0.0600 
    217 H217       -3.7464  -23.2167  -53.3510 H         1 UNK         0.0600 
    218 H218       -3.0279  -24.8071  -53.1840 H         1 UNK         0.0600 
    219 H219       -3.0552  -23.7042  -51.8102 H         1 UNK         0.0600 
    220 H220       -5.7282  -22.3160  -52.9977 H         1 UNK         0.3000 
    221 H221       -7.3098  -21.5178  -50.6398 H         1 UNK         0.0600 
    222 H222       -6.5443  -20.0291  -53.2163 H         1 UNK         0.0600 
    223 H223       -8.0822  -20.8330  -52.9113 H         1 UNK         0.0600 
    224 H224       -7.6271  -19.4217  -51.9702 H         1 UNK         0.0600 
    225 H225       -6.6667  -19.7397  -49.3276 H         1 UNK         0.3000 
    226 H226       -4.0141  -19.8595  -48.4066 H         1 UNK         0.0600 
    227 H227       -5.8790  -19.4796  -46.8998 H         1 UNK         0.0600 
    228 H228       -4.8158  -18.0884  -46.7999 H         1 UNK         0.0600 
    229 H229       -6.3242  -17.9807  -47.7061 H         1 UNK         0.0600 
    230 H230       -5.1619  -16.5671  -48.6745 H         1 UNK         0.3000 
    231 H231       -2.5860  -15.6116  -49.3264 H         1 UNK         0.0600 
    232 H232       -3.7233  -13.3934  -49.4046 H         1 UNK         0.0600 
    233 H233       -4.2383  -14.3247  -48.0088 H         1 UNK         0.0600 
    234 H234       -5.2952  -14.1851  -49.4157 H         1 UNK         0.0600 
    235 H235       -5.1255  -16.6380  -51.4533 H         1 UNK         0.3000 
    236 H236       -4.1415  -15.2622  -53.8403 H         1 UNK         0.0600 
    237 H237       -6.5513  -15.7944  -53.5771 H         1 UNK         0.0600 
    238 H238       -5.8919  -16.6474  -54.9627 H         1 UNK         0.0600 
    239 H239       -6.1878  -17.5156  -53.4610 H         1 UNK         0.0600 
    240 H240       -3.2687  -18.1522  -52.1007 H         1 UNK         0.3000 
    241 H241       -2.0067  -19.8794  -52.4265 H         1 UNK         0.0600 
    242 H242       -4.5728  -19.6688  -54.3029 H         1 UNK         0.3800 
    243 H243       -4.3404  -21.0806  -55.3054 H         1 UNK         0.3800 
    244 H244       -0.0299  -19.7924  -53.9607 H         1 UNK         0.0800 
    245 H245       -0.6862  -18.3846  -54.7409 H         1 UNK         0.0800 
    246 H246        0.5230  -20.0451  -51.6076 H         1 UNK         0.0800 
    247 H247       -0.4691  -19.0465  -50.5754 H         1 UNK         0.0800 
@<TRIPOS>BOND
     1    1    2 1    
     2    1  127 1    
     3    1  128 1    
     4    1  129 1    
     5    2    3 2    
     6    2    4 am   BACKBONE|DICT|INTERRES
     7    4    5 1    
     8    4  130 1    
     9    5    6 1    
    10    5   65 1    
    11    5  131 1    
    12    6    7 1    
    13    6  132 1    
    14    6  133 1    
    15    7    8 1    
    16    8    9 1    
    17    8  134 1    
    18    8  135 1    
    19    9   10 ar   
    20    9   14 ar   
    21   10   11 ar   
    22   10  136 1    
    23   11   12 ar   
    24   11  126 1    
    25   12   13 ar   
    26   12  137 1    
    27   13   14 ar   
    28   13   15 1    
    29   14  138 1    
    30   15   16 1    
    31   15  139 1    
    32   15  140 1    
    33   16   17 1    
    34   17   18 1    
    35   17  141 1    
    36   17  142 1    
    37   18   19 1    
    38   18   67 1    
    39   18  143 1    
    40   19   20 am   BACKBONE|DICT|INTERRES
    41   19  144 1    
    42   20   21 2    
    43   20   22 1    
    44   22   23 1    
    45   22   24 1    
    46   22  145 1    
    47   23  146 1    
    48   23  147 1    
    49   23  148 1    
    50   24   25 am   BACKBONE|DICT|INTERRES
    51   24  149 1    
    52   25   26 2    
    53   25   27 1    
    54   27   28 1    
    55   27   29 1    
    56   27  150 1    
    57   28  151 1    
    58   28  152 1    
    59   28  153 1    
    60   29   30 am   BACKBONE|DICT|INTERRES
    61   29  154 1    
    62   30   31 2    
    63   30   32 1    
    64   32   33 1    
    65   32   34 1    
    66   32  155 1    
    67   33  156 1    
    68   33  157 1    
    69   33  158 1    
    70   34   35 am   BACKBONE|DICT|INTERRES
    71   34  159 1    
    72   35   36 2    
    73   35   37 1    
    74   37   38 1    
    75   37   39 1    
    76   37  160 1    
    77   38  161 1    
    78   38  162 1    
    79   38  163 1    
    80   39   40 am   BACKBONE|DICT|INTERRES
    81   39  164 1    
    82   40   41 2    
    83   40   42 1    
    84   42   43 1    
    85   42   44 1    
    86   42  165 1    
    87   43  166 1    
    88   43  167 1    
    89   43  168 1    
    90   44   45 am   BACKBONE|DICT|INTERRES
    91   44  169 1    
    92   45   46 2    
    93   45   47 1    
    94   47   48 1    
    95   47   49 1    
    96   47  170 1    
    97   48  171 1    
    98   48  172 1    
    99   48  173 1    
   100   49   50 am   BACKBONE|DICT|INTERRES
   101   49  174 1    
   102   50   51 2    
   103   50   52 1    
   104   52   53 1    
   105   52   54 1    
   106   52  175 1    
   107   53  176 1    
   108   53  177 1    
   109   53  178 1    
   110   54   55 am   BACKBONE|DICT|INTERRES
   111   54  179 1    
   112   55   56 2    
   113   55   57 1    
   114   57   58 1    
   115   57   59 1    
   116   57  180 1    
   117   58  181 1    
   118   58  182 1    
   119   58  183 1    
   120   59   60 am   BACKBONE|DICT|INTERRES
   121   59  184 1    
   122   60   61 2    
   123   60   62 1    
   124   62   63 1    
   125   62   64 1    
   126   62  185 1    
   127   63  186 1    
   128   63  187 1    
   129   63  188 1    
   130   64   65 am   BACKBONE|DICT|INTERRES
   131   64  189 1    
   132   65   66 2    
   133   67   68 2    
   134   67   69 am   BACKBONE|DICT|INTERRES
   135   69   70 1    
   136   69  190 1    
   137   70   71 1    
   138   70   72 1    
   139   70  191 1    
   140   71  192 1    
   141   71  193 1    
   142   71  194 1    
   143   72   73 2    
   144   72   74 am   BACKBONE|DICT|INTERRES
   145   74   75 1    
   146   74  195 1    
   147   75   76 1    
   148   75   77 1    
   149   75  196 1    
   150   76  197 1    
   151   76  198 1    
   152   76  199 1    
   153   77   78 2    
   154   77   79 am   BACKBONE|DICT|INTERRES
   155   79   80 1    
   156   79  200 1    
   157   80   81 1    
   158   80   82 1    
   159   80  201 1    
   160   81  202 1    
   161   81  203 1    
   162   81  204 1    
   163   82   83 2    
   164   82   84 am   BACKBONE|DICT|INTERRES
   165   84   85 1    
   166   84  205 1    
   167   85   86 1    
   168   85   87 1    
   169   85  206 1    
   170   86  207 1    
   171   86  208 1    
   172   86  209 1    
   173   87   88 2    
   174   87   89 am   BACKBONE|DICT|INTERRES
   175   89   90 1    
   176   89  210 1    
   177   90   91 1    
   178   90   92 1    
   179   90  211 1    
   180   91  212 1    
   181   91  213 1    
   182   91  214 1    
   183   92   93 2    
   184   92   94 am   BACKBONE|DICT|INTERRES
   185   94   95 1    
   186   94  215 1    
   187   95   96 1    
   188   95   97 1    
   189   95  216 1    
   190   96  217 1    
   191   96  218 1    
   192   96  219 1    
   193   97   98 2    
   194   97   99 am   BACKBONE|DICT|INTERRES
   195   99  100 1    
   196   99  220 1    
   197  100  101 1    
   198  100  102 1    
   199  100  221 1    
   200  101  222 1    
   201  101  223 1    
   202  101  224 1    
   203  102  103 2    
   204  102  104 am   BACKBONE|DICT|INTERRES
   205  104  105 1    
   206  104  225 1    
   207  105  106 1    
   208  105  107 1    
   209  105  226 1    
   210  106  227 1    
   211  106  228 1    
   212  106  229 1    
   213  107  108 2    
   214  107  109 am   BACKBONE|DICT|INTERRES
   215  109  110 1    
   216  109  230 1    
   217  110  111 1    
   218  110  112 1    
   219  110  231 1    
   220  111  232 1    
   221  111  233 1    
   222  111  234 1    
   223  112  113 2    
   224  112  114 am   BACKBONE|DICT|INTERRES
   225  114  115 1    
   226  114  235 1    
   227  115  116 1    
   228  115  117 1    
   229  115  236 1    
   230  116  237 1    
   231  116  238 1    
   232  116  239 1    
   233  117  118 2    
   234  117  119 am   BACKBONE|DICT|INTERRES
   235  119  120 1    
   236  119  240 1    
   237  120  121 1    
   238  120  124 1    
   239  120  241 1    
   240  121  122 am   BACKBONE|DICT|INTERRES
   241  121  123 2    
   242  122  242 1    
   243  122  243 1    
   244  124  125 1    
   245  124  244 1    
   246  124  245 1    
   247  125  126 1    
   248  126  246 1    
   249  126  247 1    
@<TRIPOS>SUBSTRUCTURE
     1 UNK         1 GROUP             0       ****    0 ROOT    
