@<TRIPOS>MOLECULE
3R540
247   249    1
SMALL
USER_CHARGES


@<TRIPOS>ATOM
      1 CA         -0.3918  -11.5083  -45.6503 C.3       0 UNK        -0.1800 
      2 C           0.9039  -11.5545  -46.4454 C.2       0 UNK         0.5000 
      3 O           1.8818  -10.9072  -46.0715 O.2       0 UNK        -0.5000 
      4 N           0.9193  -12.3282  -47.5386 N.am      1 UNK        -0.5000 
      5 CA          2.0525  -12.4646  -48.4659 C.3       1 UNK         0.1400 
      6 C6          1.6315  -13.1478  -49.7892 C.3       23 UNK        -0.0398 
      7 S7          0.9721  -14.8419  -49.5858 S.3       23 UNK        -0.2404 
      8 C8          2.1175  -15.7724  -50.6509 C.3       23 UNK        -0.0205 
      9 C9          1.7161  -17.2343  -50.7673 C.ar      23 UNK        -0.0193 
     10 C10         0.5449  -17.5845  -51.4451 C.ar      23 UNK        -0.1150 
     11 C11         0.1692  -18.9242  -51.5692 C.ar      23 UNK        -0.0193 
     12 C12         0.9720  -19.9183  -51.0037 C.ar      23 UNK        -0.1150 
     13 C13         2.1591  -19.5850  -50.3455 C.ar      23 UNK        -0.0193 
     14 C14         2.5253  -18.2393  -50.2292 C.ar      23 UNK        -0.1150 
     15 C15         3.0510  -20.6911  -49.7951 C.3       23 UNK        -0.0205 
     16 S16         3.5384  -20.4553  -48.0543 S.3       23 UNK        -0.2404 
     17 C17         1.9447  -20.1642  -47.2186 C.3       23 UNK        -0.0398 
     18 CA          1.2290  -21.4678  -46.7835 C.3       11 UNK         0.1400 
     19 N           0.5553  -21.3138  -45.4924 N.am      11 UNK        -0.5000 
     20 C          -0.0045  -22.3064  -44.7888 C.2       10 UNK         0.5000 
     21 O           0.0399  -23.4893  -45.1252 O.2       10 UNK        -0.5000 
     22 CA         -0.7871  -21.9029  -43.5242 C.3       10 UNK         0.1400 
     23 CB          0.1531  -21.7492  -42.3198 C.3       10 UNK        -0.1800 
     24 N          -1.5609  -20.6729  -43.7109 N.am      10 UNK        -0.5000 
     25 C          -2.5896  -20.5551  -44.5634 C.2       9 UNK         0.5000 
     26 O          -3.0285  -21.4902  -45.2315 O.2       9 UNK        -0.5000 
     27 CA         -3.2000  -19.1532  -44.7418 C.3       9 UNK         0.1400 
     28 CB         -4.1772  -18.8322  -43.6015 C.3       9 UNK        -0.1800 
     29 N          -2.1855  -18.1033  -44.8374 N.am      9 UNK        -0.5000 
     30 C          -1.2719  -18.0142  -45.8149 C.2       8 UNK         0.5000 
     31 O          -1.2221  -18.7818  -46.7750 O.2       8 UNK        -0.5000 
     32 CA         -0.1927  -16.9274  -45.6616 C.3       8 UNK         0.1400 
     33 CB         -0.7070  -15.5611  -46.1354 C.3       8 UNK        -0.1800 
     34 N           0.3006  -16.8188  -44.2878 N.am      8 UNK        -0.5000 
     35 C           0.9496  -17.7961  -43.6378 C.2       7 UNK         0.5000 
     36 O           1.2218  -18.8847  -44.1382 O.2       7 UNK        -0.5000 
     37 CA          1.3120  -17.5360  -42.1680 C.3       7 UNK         0.1400 
     38 CB          2.5717  -16.6647  -42.0524 C.3       7 UNK        -0.1800 
     39 N           0.2035  -16.9200  -41.4417 N.am      7 UNK        -0.5000 
     40 C          -0.9532  -17.5416  -41.1689 C.2       6 UNK         0.5000 
     41 O          -1.1845  -18.7164  -41.4553 O.2       6 UNK        -0.5000 
     42 CA         -2.0501  -16.6891  -40.5067 C.3       6 UNK         0.1400 
     43 CB         -1.8541  -16.6397  -38.9842 C.3       6 UNK        -0.1800 
     44 N          -2.0901  -15.3251  -41.0368 N.am      6 UNK        -0.5000 
     45 C          -2.4360  -15.0120  -42.2937 C.2       5 UNK         0.5000 
     46 O          -2.7929  -15.8386  -43.1318 O.2       5 UNK        -0.5000 
     47 CA         -2.3073  -13.5322  -42.6935 C.3       5 UNK         0.1400 
     48 CB         -3.5606  -12.7453  -42.2841 C.3       5 UNK        -0.1800 
     49 N          -1.1189  -12.8953  -42.1197 N.am      5 UNK        -0.5000 
     50 C           0.1379  -13.2179  -42.4474 C.2       4 UNK         0.5000 
     51 O           0.4313  -14.0919  -43.2685 O.2       4 UNK        -0.5000 
     52 CA          1.2523  -12.4525  -41.7281 C.3       4 UNK         0.1400 
     53 CB          1.6598  -13.1649  -40.4261 C.3       4 UNK        -0.1800 
     54 N           2.3855  -12.3521  -42.6380 N.am      4 UNK        -0.5000 
     55 C           3.3795  -11.4618  -42.5602 C.2       3 UNK         0.5000 
     56 O           3.4940  -10.6581  -41.6333 O.2       3 UNK        -0.5000 
     57 CA          4.3874  -11.4132  -43.7275 C.3       3 UNK         0.1400 
     58 CB          5.8519  -11.3699  -43.2432 C.3       3 UNK        -0.1800 
     59 N           4.1765  -12.4388  -44.7584 N.am      3 UNK        -0.5000 
     60 C           4.4684  -13.7484  -44.7192 C.2       2 UNK         0.5000 
     61 O           4.9749  -14.3055  -43.7456 O.2       2 UNK        -0.5000 
     62 CA          4.1147  -14.5797  -45.9741 C.3       2 UNK         0.1400 
     63 CB          3.6320  -15.9926  -45.6120 C.3       2 UNK        -0.1800 
     64 N           3.0803  -13.9341  -46.7838 N.am      2 UNK        -0.5000 
     65 C           3.2954  -13.1360  -47.8375 C.2       1 UNK         0.5000 
     66 O           4.4131  -12.8903  -48.2916 O.2       1 UNK        -0.5000 
     67 C           0.2583  -21.9753  -47.8713 C.2       11 UNK         0.5000 
     68 O           0.5893  -22.9135  -48.5947 O.2       11 UNK        -0.5000 
     69 N          -0.9433  -21.3852  -47.9353 N.am      12 UNK        -0.5000 
     70 CA         -2.0245  -21.8054  -48.8257 C.3       12 UNK         0.1400 
     71 CB         -3.1525  -20.7668  -48.7876 C.3       12 UNK        -0.1800 
     72 C          -2.5459  -23.2192  -48.5008 C.2       12 UNK         0.5000 
     73 O          -2.7824  -24.0035  -49.4177 O.2       12 UNK        -0.5000 
     74 N          -2.6598  -23.5524  -47.2071 N.am      13 UNK        -0.5000 
     75 CA         -3.0059  -24.8944  -46.7331 C.3       13 UNK         0.1400 
     76 CB         -3.2295  -24.8768  -45.2141 C.3       13 UNK        -0.1800 
     77 C          -1.9582  -25.9530  -47.1296 C.2       13 UNK         0.5000 
     78 O          -2.3367  -27.0430  -47.5585 O.2       13 UNK        -0.5000 
     79 N          -0.6670  -25.6001  -47.0440 N.am      14 UNK        -0.5000 
     80 CA          0.4511  -26.4171  -47.5265 C.3       14 UNK         0.1400 
     81 CB          1.7774  -25.8252  -47.0261 C.3       14 UNK        -0.1800 
     82 C           0.4584  -26.5780  -49.0615 C.2       14 UNK         0.5000 
     83 O           0.8287  -27.6418  -49.5585 O.2       14 UNK        -0.5000 
     84 N           0.0004  -25.5431  -49.7795 N.am      15 UNK        -0.5000 
     85 CA         -0.2367  -25.5396  -51.2267 C.3       15 UNK         0.1400 
     86 CB         -0.1726  -24.0911  -51.7393 C.3       15 UNK        -0.1800 
     87 C          -1.5575  -26.2345  -51.6401 C.2       15 UNK         0.5000 
     88 O          -1.8673  -26.2762  -52.8321 O.2       15 UNK        -0.5000 
     89 N          -2.2975  -26.7774  -50.6620 N.am      16 UNK        -0.5000 
     90 CA         -3.4820  -27.6324  -50.7738 C.3       16 UNK         0.1400 
     91 CB         -3.1642  -28.9106  -51.5790 C.3       16 UNK        -0.1800 
     92 C          -4.7722  -26.9364  -51.2549 C.2       16 UNK         0.5000 
     93 O          -5.7359  -27.6370  -51.5715 O.2       16 UNK        -0.5000 
     94 N          -4.8146  -25.5981  -51.2612 N.am      17 UNK        -0.5000 
     95 CA         -6.0053  -24.8089  -51.5828 C.3       17 UNK         0.1400 
     96 CB         -6.3576  -24.8974  -53.0822 C.3       17 UNK        -0.1800 
     97 C          -5.7765  -23.3496  -51.1797 C.2       17 UNK         0.5000 
     98 O          -4.6544  -22.8570  -51.3192 O.2       17 UNK        -0.5000 
     99 N          -6.8521  -22.6835  -50.7333 N.am      18 UNK        -0.5000 
    100 CA        -6.8977  -21.2757  -50.3212 C.3       18 UNK         0.1400 
    101 CB        -8.3543  -20.8972  -50.0150 C.3       18 UNK        -0.1800 
    102 C         -6.3138  -20.3167  -51.3748 C.2       18 UNK         0.5000 
    103 O         -6.4122  -20.5990  -52.5696 O.2       18 UNK        -0.5000 
    104 N         -5.7239  -19.2053  -50.9149 N.am      19 UNK        -0.5000 
    105 CA        -4.8571  -18.3002  -51.6825 C.3       19 UNK         0.1400 
    106 CB        -4.3486  -17.1892  -50.7509 C.3       19 UNK        -0.1800 
    107 C         -5.4414  -17.7004  -52.9793 C.2       19 UNK         0.5000 
    108 O         -4.6679  -17.2768  -53.8383 O.2       19 UNK        -0.5000 
    109 N         -6.7739  -17.6983  -53.1204 N.am      20 UNK        -0.5000 
    110 CA        -7.4786  -17.3511  -54.3574 C.3       20 UNK         0.1400 
    111 CB        -8.9830  -17.2470  -54.0643 C.3       20 UNK        -0.1800 
    112 C         -7.2188  -18.3531  -55.5039 C.2       20 UNK         0.5000 
    113 O         -7.1917  -17.9473  -56.6664 O.2       20 UNK        -0.5000 
    114 N         -7.0194  -19.6304  -55.1538 N.am      21 UNK        -0.5000 
    115 CA        -6.6136  -20.7059  -56.0579 C.3       21 UNK         0.1400 
    116 CB        -7.4406  -21.9633  -55.7460 C.3       21 UNK        -0.1800 
    117 C         -5.1102  -20.9983  -55.9082 C.2       21 UNK         0.5000 
    118 O         -4.4276  -21.1777  -56.9165 O.2       21 UNK        -0.5000 
    119 N         -4.6312  -21.0021  -54.6565 N.am      22 UNK        -0.5000 
    120 CA        -3.2504  -21.2352  -54.2206 C.3       22 UNK         0.1400 
    121 C         -2.7834  -22.6953  -54.4771 C.2       22 UNK         0.5000 
    122 N         -3.0198  -23.5848  -53.5244 N.am      22 UNK        -0.7600 
    123 O         -2.1991  -23.0213  -55.5074 O.2       22 UNK        -0.5000 
    124 C124       -2.2758  -20.1516  -54.7535 C.3       23 UNK        -0.0398 
    125 S125       -0.6661  -20.1312  -53.8977 S.3       23 UNK        -0.2404 
    126 C126       -1.0879  -19.3000  -52.3351 C.3       23 UNK        -0.0205 
    127 H127       -0.1963  -11.2174  -44.6187 H         1 UNK         0.0600 
    128 H128       -0.8846  -12.4802  -45.6424 H         1 UNK         0.0600 
    129 H129       -1.0733  -10.7773  -46.0848 H         1 UNK         0.0600 
    130 H130        0.0885  -12.8423  -47.7962 H         1 UNK         0.3000 
    131 H131        2.3632  -11.4494  -48.7225 H         1 UNK         0.0600 
    132 H132        0.8583  -12.5498  -50.2734 H         1 UNK         0.0800 
    133 H133        2.4686  -13.1530  -50.4896 H         1 UNK         0.0800 
    134 H134        3.1301  -15.6790  -50.2547 H         1 UNK         0.0800 
    135 H135        2.1293  -15.3293  -51.6478 H         1 UNK         0.0800 
    136 H136       -0.0708  -16.8087  -51.8785 H         1 UNK         0.1150 
    137 H137        0.6832  -20.9555  -51.1048 H         1 UNK         0.1150 
    138 H138        3.4429  -17.9774  -49.7214 H         1 UNK         0.1150 
    139 H139        2.5678  -21.6639  -49.8935 H         1 UNK         0.0800 
    140 H140        3.9544  -20.7418  -50.4039 H         1 UNK         0.0800 
    141 H141        1.2988  -19.5122  -47.8087 H         1 UNK         0.0800 
    142 H142        2.2054  -19.5730  -46.3424 H         1 UNK         0.0800 
    143 H143        1.9823  -22.2448  -46.6358 H         1 UNK         0.0600 
    144 H144        0.5329  -20.3758  -45.1019 H         1 UNK         0.3000 
    145 H145       -1.4904  -22.7072  -43.2997 H         1 UNK         0.0600 
    146 H146       -0.4057  -21.5284  -41.4101 H         1 UNK         0.0600 
    147 H147        0.7133  -22.6682  -42.1432 H         1 UNK         0.0600 
    148 H148        0.8764  -20.9479  -42.4693 H         1 UNK         0.0600 
    149 H149       -1.2826  -19.8685  -43.1587 H         1 UNK         0.3000 
    150 H150       -3.7624  -19.1549  -45.6777 H         1 UNK         0.0600 
    151 H151       -4.9535  -19.5945  -43.5262 H         1 UNK         0.0600 
    152 H152       -4.6747  -17.8764  -43.7671 H         1 UNK         0.0600 
    153 H153       -3.6706  -18.7823  -42.6377 H         1 UNK         0.0600 
    154 H154       -2.1961  -17.3928  -44.1110 H         1 UNK         0.3000 
    155 H155        0.6504  -17.2078  -46.2967 H         1 UNK         0.0600 
    156 H156       -1.5453  -15.2133  -45.5317 H         1 UNK         0.0600 
    157 H157        0.0788  -14.8090  -46.0820 H         1 UNK         0.0600 
    158 H158       -1.0440  -15.6096  -47.1716 H         1 UNK         0.0600 
    159 H159        0.1526  -15.9305  -43.8182 H         1 UNK         0.3000 
    160 H160        1.5270  -18.5003  -41.7024 H         1 UNK         0.0600 
    161 H161        2.4312  -15.6793  -42.4961 H         1 UNK         0.0600 
    162 H162        3.4146  -17.1317  -42.5634 H         1 UNK         0.0600 
    163 H163        2.8620  -16.5271  -41.0110 H         1 UNK         0.0600 
    164 H164        0.2969  -15.9445  -41.2056 H         1 UNK         0.3000 
    165 H165       -3.0119  -17.1635  -40.7131 H         1 UNK         0.0600 
    166 H166       -2.6673  -16.0991  -38.4996 H         1 UNK         0.0600 
    167 H167       -1.8361  -17.6450  -38.5610 H         1 UNK         0.0600 
    168 H168       -0.9171  -16.1521  -38.7122 H         1 UNK         0.0600 
    169 H169       -1.8120  -14.5823  -40.4128 H         1 UNK         0.3000 
    170 H170       -2.2223  -13.4911  -43.7812 H         1 UNK         0.0600 
    171 H171       -4.4587  -13.1919  -42.7130 H         1 UNK         0.0600 
    172 H172       -3.6895  -12.7237  -41.2012 H         1 UNK         0.0600 
    173 H173       -3.5114  -11.7151  -42.6374 H         1 UNK         0.0600 
    174 H174       -1.2814  -12.1670  -41.4390 H         1 UNK         0.3000 
    175 H175        0.8913  -11.4478  -41.4982 H         1 UNK         0.0600 
    176 H176        2.0714  -14.1549  -40.6192 H         1 UNK         0.0600 
    177 H177        2.4126  -12.5945  -39.8823 H         1 UNK         0.0600 
    178 H178        0.8052  -13.2865  -39.7596 H         1 UNK         0.0600 
    179 H179        2.3374  -12.9729  -43.4348 H         1 UNK         0.3000 
    180 H180        4.1931  -10.4658  -44.2323 H         1 UNK         0.0600 
    181 H181        6.1053  -12.2349  -42.6302 H         1 UNK         0.0600 
    182 H182        6.0344  -10.4823  -42.6365 H         1 UNK         0.0600 
    183 H183        6.5460  -11.3351  -44.0829 H         1 UNK         0.0600 
    184 H184        3.7026  -12.0958  -45.5851 H         1 UNK         0.3000 
    185 H185        5.0316  -14.6807  -46.5580 H         1 UNK         0.0600 
    186 H186        4.4014  -16.5526  -45.0793 H         1 UNK         0.0600 
    187 H187        2.7543  -15.9467  -44.9720 H         1 UNK         0.0600 
    188 H188        3.3711  -16.5658  -46.5022 H         1 UNK         0.0600 
    189 H189        2.1267  -14.0620  -46.4793 H         1 UNK         0.3000 
    190 H190       -1.1266  -20.5782  -47.3438 H         1 UNK         0.3000 
    191 H191       -1.6261  -21.8238  -49.8413 H         1 UNK         0.0600 
    192 H192       -3.6127  -20.7025  -47.8016 H         1 UNK         0.0600 
    193 H193       -3.9312  -21.0257  -49.5023 H         1 UNK         0.0600 
    194 H194       -2.7839  -19.7759  -49.0529 H         1 UNK         0.0600 
    195 H195       -2.5153  -22.8370  -46.5000 H         1 UNK         0.3000 
    196 H196       -3.9495  -25.1738  -47.2064 H         1 UNK         0.0600 
    197 H197       -3.5451  -25.8576  -44.8565 H         1 UNK         0.0600 
    198 H198       -4.0066  -24.1640  -44.9379 H         1 UNK         0.0600 
    199 H199       -2.3224  -24.6091  -44.6738 H         1 UNK         0.0600 
    200 H200       -0.4325  -24.7041  -46.6269 H         1 UNK         0.3000 
    201 H201        0.3444  -27.4137  -47.0932 H         1 UNK         0.0600 
    202 H202        1.7943  -25.7608  -45.9379 H         1 UNK         0.0600 
    203 H203        1.9511  -24.8249  -47.4216 H         1 UNK         0.0600 
    204 H204        2.6203  -26.4475  -47.3290 H         1 UNK         0.0600 
    205 H205       -0.2184  -24.6820  -49.2899 H         1 UNK         0.3000 
    206 H206        0.5732  -26.0939  -51.7047 H         1 UNK         0.0600 
    207 H207        0.7512  -23.6009  -51.4316 H         1 UNK         0.0600 
    208 H208       -0.2074  -24.0594  -52.8288 H         1 UNK         0.0600 
    209 H209       -1.0067  -23.4959  -51.3706 H         1 UNK         0.0600 
    210 H210       -1.9853  -26.6214  -49.7120 H         1 UNK         0.3000 
    211 H211       -3.6983  -27.9496  -49.7533 H         1 UNK         0.0600 
    212 H212       -3.0137  -28.6958  -52.6372 H         1 UNK         0.0600 
    213 H213       -3.9774  -29.6336  -51.5070 H         1 UNK         0.0600 
    214 H214       -2.2655  -29.4001  -51.2035 H         1 UNK         0.0600 
    215 H215       -4.0152  -25.0663  -50.9275 H         1 UNK         0.3000 
    216 H216       -6.8400  -25.1995  -50.9970 H         1 UNK         0.0600 
    217 H217       -7.2332  -24.2891  -53.3105 H         1 UNK         0.0600 
    218 H218       -6.5941  -25.9167  -53.3851 H         1 UNK         0.0600 
    219 H219       -5.5430  -24.5445  -53.7136 H         1 UNK         0.0600 
    220 H220       -7.7337  -23.1732  -50.6985 H         1 UNK         0.3000 
    221 H221       -6.3124  -21.1855  -49.4047 H         1 UNK         0.0600 
    222 H222       -8.9890  -20.9996  -50.8964 H         1 UNK         0.0600 
    223 H223       -8.7694  -21.5264  -49.2273 H         1 UNK         0.0600 
    224 H224       -8.4298  -19.8636  -49.6747 H         1 UNK         0.0600 
    225 H225       -5.7498  -19.0324  -49.9206 H         1 UNK         0.3000 
    226 H226       -3.9969  -18.8956  -51.9900 H         1 UNK         0.0600 
    227 H227       -3.8020  -17.6014  -49.9025 H         1 UNK         0.0600 
    228 H228       -3.6668  -16.5176  -51.2747 H         1 UNK         0.0600 
    229 H229       -5.1700  -16.5861  -50.3623 H         1 UNK         0.0600 
    230 H230       -7.3325  -18.0690  -52.3660 H         1 UNK         0.3000 
    231 H231       -7.1247  -16.3717  -54.6860 H         1 UNK         0.0600 
    232 H232       -9.5368  -16.9670  -54.9614 H         1 UNK         0.0600 
    233 H233       -9.1863  -16.4885  -53.3081 H         1 UNK         0.0600 
    234 H234       -9.3904  -18.1945  -53.7092 H         1 UNK         0.0600 
    235 H235       -7.0143  -19.8632  -54.1644 H         1 UNK         0.3000 
    236 H236       -6.8027  -20.4233  -57.0956 H         1 UNK         0.0600 
    237 H237       -8.5031  -21.7847  -55.9113 H         1 UNK         0.0600 
    238 H238       -7.1454  -22.7952  -56.3866 H         1 UNK         0.0600 
    239 H239       -7.3132  -22.2825  -54.7112 H         1 UNK         0.0600 
    240 H240       -5.3000  -20.8892  -53.8973 H         1 UNK         0.3000 
    241 H241       -3.2938  -21.1091  -53.1381 H         1 UNK         0.0600 
    242 H242       -3.5268  -23.3170  -52.6835 H         1 UNK         0.3800 
    243 H243       -2.6963  -24.5385  -53.6289 H         1 UNK         0.3800 
    244 H244       -2.0941  -20.2907  -55.8202 H         1 UNK         0.0800 
    245 H245       -2.7252  -19.1625  -54.6563 H         1 UNK         0.0800 
    246 H246       -1.6835  -18.4105  -52.5461 H         1 UNK         0.0800 
    247 H247       -1.7034  -19.9576  -51.7201 H         1 UNK         0.0800 
@<TRIPOS>BOND
     1    1    2 1    
     2    1  127 1    
     3    1  128 1    
     4    1  129 1    
     5    2    3 2    
     6    2    4 am   BACKBONE|DICT|INTERRES
     7    4    5 1    
     8    4  130 1    
     9    5    6 1    
    10    5   65 1    
    11    5  131 1    
    12    6    7 1    
    13    6  132 1    
    14    6  133 1    
    15    7    8 1    
    16    8    9 1    
    17    8  134 1    
    18    8  135 1    
    19    9   10 ar   
    20    9   14 ar   
    21   10   11 ar   
    22   10  136 1    
    23   11   12 ar   
    24   11  126 1    
    25   12   13 ar   
    26   12  137 1    
    27   13   14 ar   
    28   13   15 1    
    29   14  138 1    
    30   15   16 1    
    31   15  139 1    
    32   15  140 1    
    33   16   17 1    
    34   17   18 1    
    35   17  141 1    
    36   17  142 1    
    37   18   19 1    
    38   18   67 1    
    39   18  143 1    
    40   19   20 am   BACKBONE|DICT|INTERRES
    41   19  144 1    
    42   20   21 2    
    43   20   22 1    
    44   22   23 1    
    45   22   24 1    
    46   22  145 1    
    47   23  146 1    
    48   23  147 1    
    49   23  148 1    
    50   24   25 am   BACKBONE|DICT|INTERRES
    51   24  149 1    
    52   25   26 2    
    53   25   27 1    
    54   27   28 1    
    55   27   29 1    
    56   27  150 1    
    57   28  151 1    
    58   28  152 1    
    59   28  153 1    
    60   29   30 am   BACKBONE|DICT|INTERRES
    61   29  154 1    
    62   30   31 2    
    63   30   32 1    
    64   32   33 1    
    65   32   34 1    
    66   32  155 1    
    67   33  156 1    
    68   33  157 1    
    69   33  158 1    
    70   34   35 am   BACKBONE|DICT|INTERRES
    71   34  159 1    
    72   35   36 2    
    73   35   37 1    
    74   37   38 1    
    75   37   39 1    
    76   37  160 1    
    77   38  161 1    
    78   38  162 1    
    79   38  163 1    
    80   39   40 am   BACKBONE|DICT|INTERRES
    81   39  164 1    
    82   40   41 2    
    83   40   42 1    
    84   42   43 1    
    85   42   44 1    
    86   42  165 1    
    87   43  166 1    
    88   43  167 1    
    89   43  168 1    
    90   44   45 am   BACKBONE|DICT|INTERRES
    91   44  169 1    
    92   45   46 2    
    93   45   47 1    
    94   47   48 1    
    95   47   49 1    
    96   47  170 1    
    97   48  171 1    
    98   48  172 1    
    99   48  173 1    
   100   49   50 am   BACKBONE|DICT|INTERRES
   101   49  174 1    
   102   50   51 2    
   103   50   52 1    
   104   52   53 1    
   105   52   54 1    
   106   52  175 1    
   107   53  176 1    
   108   53  177 1    
   109   53  178 1    
   110   54   55 am   BACKBONE|DICT|INTERRES
   111   54  179 1    
   112   55   56 2    
   113   55   57 1    
   114   57   58 1    
   115   57   59 1    
   116   57  180 1    
   117   58  181 1    
   118   58  182 1    
   119   58  183 1    
   120   59   60 am   BACKBONE|DICT|INTERRES
   121   59  184 1    
   122   60   61 2    
   123   60   62 1    
   124   62   63 1    
   125   62   64 1    
   126   62  185 1    
   127   63  186 1    
   128   63  187 1    
   129   63  188 1    
   130   64   65 am   BACKBONE|DICT|INTERRES
   131   64  189 1    
   132   65   66 2    
   133   67   68 2    
   134   67   69 am   BACKBONE|DICT|INTERRES
   135   69   70 1    
   136   69  190 1    
   137   70   71 1    
   138   70   72 1    
   139   70  191 1    
   140   71  192 1    
   141   71  193 1    
   142   71  194 1    
   143   72   73 2    
   144   72   74 am   BACKBONE|DICT|INTERRES
   145   74   75 1    
   146   74  195 1    
   147   75   76 1    
   148   75   77 1    
   149   75  196 1    
   150   76  197 1    
   151   76  198 1    
   152   76  199 1    
   153   77   78 2    
   154   77   79 am   BACKBONE|DICT|INTERRES
   155   79   80 1    
   156   79  200 1    
   157   80   81 1    
   158   80   82 1    
   159   80  201 1    
   160   81  202 1    
   161   81  203 1    
   162   81  204 1    
   163   82   83 2    
   164   82   84 am   BACKBONE|DICT|INTERRES
   165   84   85 1    
   166   84  205 1    
   167   85   86 1    
   168   85   87 1    
   169   85  206 1    
   170   86  207 1    
   171   86  208 1    
   172   86  209 1    
   173   87   88 2    
   174   87   89 am   BACKBONE|DICT|INTERRES
   175   89   90 1    
   176   89  210 1    
   177   90   91 1    
   178   90   92 1    
   179   90  211 1    
   180   91  212 1    
   181   91  213 1    
   182   91  214 1    
   183   92   93 2    
   184   92   94 am   BACKBONE|DICT|INTERRES
   185   94   95 1    
   186   94  215 1    
   187   95   96 1    
   188   95   97 1    
   189   95  216 1    
   190   96  217 1    
   191   96  218 1    
   192   96  219 1    
   193   97   98 2    
   194   97   99 am   BACKBONE|DICT|INTERRES
   195   99  100 1    
   196   99  220 1    
   197  100  101 1    
   198  100  102 1    
   199  100  221 1    
   200  101  222 1    
   201  101  223 1    
   202  101  224 1    
   203  102  103 2    
   204  102  104 am   BACKBONE|DICT|INTERRES
   205  104  105 1    
   206  104  225 1    
   207  105  106 1    
   208  105  107 1    
   209  105  226 1    
   210  106  227 1    
   211  106  228 1    
   212  106  229 1    
   213  107  108 2    
   214  107  109 am   BACKBONE|DICT|INTERRES
   215  109  110 1    
   216  109  230 1    
   217  110  111 1    
   218  110  112 1    
   219  110  231 1    
   220  111  232 1    
   221  111  233 1    
   222  111  234 1    
   223  112  113 2    
   224  112  114 am   BACKBONE|DICT|INTERRES
   225  114  115 1    
   226  114  235 1    
   227  115  116 1    
   228  115  117 1    
   229  115  236 1    
   230  116  237 1    
   231  116  238 1    
   232  116  239 1    
   233  117  118 2    
   234  117  119 am   BACKBONE|DICT|INTERRES
   235  119  120 1    
   236  119  240 1    
   237  120  121 1    
   238  120  124 1    
   239  120  241 1    
   240  121  122 am   BACKBONE|DICT|INTERRES
   241  121  123 2    
   242  122  242 1    
   243  122  243 1    
   244  124  125 1    
   245  124  244 1    
   246  124  245 1    
   247  125  126 1    
   248  126  246 1    
   249  126  247 1    
@<TRIPOS>SUBSTRUCTURE
     1 UNK         1 GROUP             0       ****    0 ROOT    
