@<TRIPOS>MOLECULE
3R540
247   249    1
SMALL
USER_CHARGES


@<TRIPOS>ATOM
      1 CA          1.2961  -12.9231  -49.8275 C.3       0 UNK        -0.1800 
      2 C           0.7336  -13.0022  -48.4160 C.2       0 UNK         0.5000 
      3 O           1.4102  -13.4871  -47.5093 O.2       0 UNK        -0.5000 
      4 N          -0.4963  -12.5084  -48.2178 N.am      1 UNK        -0.5000 
      5 CA         -1.2257  -12.5477  -46.9409 C.3       1 UNK         0.1400 
      6 C6         -2.7319  -12.2126  -47.0941 C.3       23 UNK        -0.0398 
      7 S7         -3.5841  -13.1029  -48.4418 S.3       23 UNK        -0.2404 
      8 C8         -3.5934  -14.8258  -47.8502 C.3       23 UNK        -0.0205 
      9 C9         -2.8893  -15.7286  -48.8500 C.ar      23 UNK        -0.0193 
     10 C10        -3.5905  -16.2483  -49.9420 C.ar      23 UNK        -0.1150 
     11 C11        -2.9388  -17.0400  -50.8920 C.ar      23 UNK        -0.0193 
     12 C12        -1.5798  -17.3262  -50.7359 C.ar      23 UNK        -0.1150 
     13 C13        -0.8698  -16.8123  -49.6481 C.ar      23 UNK        -0.0193 
     14 C14        -1.5304  -16.0187  -48.7060 C.ar      23 UNK        -0.1150 
     15 C15         0.6211  -17.0669  -49.5113 C.3       23 UNK        -0.0205 
     16 S16         0.9944  -18.2035  -48.1480 S.3       23 UNK        -0.2404 
     17 C17         0.7792  -19.8475  -48.9020 C.3       23 UNK        -0.0398 
     18 CA         -0.1316  -20.8199  -48.1102 C.3       11 UNK         0.1400 
     19 N           0.1857  -20.9113  -46.6780 N.am      11 UNK        -0.5000 
     20 C          -0.0256  -22.0173  -45.9482 C.2       10 UNK         0.5000 
     21 O          -0.4542  -23.0706  -46.4195 O.2       10 UNK        -0.5000 
     22 CA          0.2698  -21.9480  -44.4377 C.3       10 UNK         0.1400 
     23 CB          1.7631  -22.1712  -44.1530 C.3       10 UNK        -0.1800 
     24 N          -0.1724  -20.7039  -43.8101 N.am      10 UNK        -0.5000 
     25 C          -1.4496  -20.3072  -43.7253 C.2       9 UNK         0.5000 
     26 O          -2.3954  -20.9367  -44.1942 O.2       9 UNK        -0.5000 
     27 CA         -1.7148  -18.9601  -43.0349 C.3       9 UNK         0.1400 
     28 CB         -1.7565  -19.1161  -41.5073 C.3       9 UNK        -0.1800 
     29 N          -0.7198  -17.9582  -43.4059 N.am      9 UNK        -0.5000 
     30 C          -0.6263  -17.4209  -44.6295 C.2       8 UNK         0.5000 
     31 O          -1.3966  -17.6814  -45.5518 O.2       8 UNK        -0.5000 
     32 CA          0.5315  -16.4373  -44.8590 C.3       8 UNK         0.1400 
     33 CB          0.1218  -15.0431  -44.3661 C.3       8 UNK        -0.1800 
     34 N           1.7835  -16.8434  -44.2133 N.am      8 UNK        -0.5000 
     35 C           2.4302  -17.9979  -44.4349 C.2       7 UNK         0.5000 
     36 O           2.0462  -18.8669  -45.2158 O.2       7 UNK        -0.5000 
     37 CA          3.6851  -18.2646  -43.5868 C.3       7 UNK         0.1400 
     38 CB          4.8820  -17.4420  -44.0839 C.3       7 UNK        -0.1800 
     39 N           3.4861  -18.0199  -42.1586 N.am      7 UNK        -0.5000 
     40 C           2.5683  -18.6086  -41.3828 C.2       6 UNK         0.5000 
     41 O           1.7330  -19.4060  -41.8113 O.2       6 UNK        -0.5000 
     42 CA          2.5561  -18.2558  -39.8806 C.3       6 UNK         0.1400 
     43 CB          3.2811  -19.3390  -39.0605 C.3       6 UNK        -0.1800 
     44 N           3.0452  -16.9135  -39.5310 N.am      6 UNK        -0.5000 
     45 C           4.2749  -16.3895  -39.6296 C.2       5 UNK         0.5000 
     46 O           5.2352  -16.9877  -40.1169 O.2       5 UNK        -0.5000 
     47 CA          4.4326  -14.9327  -39.1377 C.3       5 UNK         0.1400 
     48 CB          5.8946  -14.4520  -39.1678 C.3       5 UNK        -0.1800 
     49 N           3.6211  -14.0031  -39.9248 N.am      5 UNK        -0.5000 
     50 C           2.2898  -13.8735  -39.8627 C.2       4 UNK         0.5000 
     51 O           1.5902  -14.4833  -39.0517 O.2       4 UNK        -0.5000 
     52 CA          1.6125  -12.9314  -40.8780 C.3       4 UNK         0.1400 
     53 CB          1.1312  -11.6489  -40.1824 C.3       4 UNK        -0.1800 
     54 N           2.4218  -12.5530  -42.0408 N.am      4 UNK        -0.5000 
     55 C           2.9276  -13.3725  -42.9708 C.2       3 UNK         0.5000 
     56 O           2.9066  -14.6007  -42.8754 O.2       3 UNK        -0.5000 
     57 CA          3.5182  -12.6927  -44.2275 C.3       3 UNK         0.1400 
     58 CB          4.0684  -13.7058  -45.2465 C.3       3 UNK        -0.1800 
     59 N           2.5353  -11.8399  -44.9046 N.am      3 UNK        -0.5000 
     60 C           2.1478  -10.6205  -44.4996 C.2       2 UNK         0.5000 
     61 O           2.5999  -10.0719  -43.4931 O.2       2 UNK        -0.5000 
     62 CA          1.0792   -9.8845  -45.3341 C.3       2 UNK         0.1400 
     63 CB          1.7281   -8.7731  -46.1733 C.3       2 UNK        -0.1800 
     64 N           0.3164  -10.7589  -46.2251 N.am      2 UNK        -0.5000 
     65 C          -0.5917  -11.6661  -45.8382 C.2       1 UNK         0.5000 
     66 O          -0.9299  -11.8271  -44.6656 O.2       1 UNK        -0.5000 
     67 C          -1.6332  -20.5917  -48.3817 C.2       11 UNK         0.5000 
     68 O          -2.1154  -21.0301  -49.4254 O.2       11 UNK        -0.5000 
     69 N          -2.3594  -19.9568  -47.4500 N.am      12 UNK        -0.5000 
     70 CA         -3.8117  -19.7959  -47.5388 C.3       12 UNK         0.1400 
     71 CB         -4.2775  -18.7033  -46.5662 C.3       12 UNK        -0.1800 
     72 C          -4.5697  -21.1129  -47.2800 C.2       12 UNK         0.5000 
     73 O          -5.5555  -21.3852  -47.9677 O.2       12 UNK        -0.5000 
     74 N          -4.1034  -21.9042  -46.3002 N.am      13 UNK        -0.5000 
     75 CA         -4.6710  -23.1897  -45.8832 C.3       13 UNK         0.1400 
     76 CB         -3.8423  -23.7711  -44.7270 C.3       13 UNK        -0.1800 
     77 C          -4.7624  -24.1935  -47.0451 C.2       13 UNK         0.5000 
     78 O          -3.7318  -24.5977  -47.5886 O.2       13 UNK        -0.5000 
     79 N          -6.0028  -24.5218  -47.4389 N.am      14 UNK        -0.5000 
     80 CA         -6.3791  -25.3633  -48.5845 C.3       14 UNK         0.1400 
     81 CB         -6.0018  -26.8349  -48.3134 C.3       14 UNK        -0.1800 
     82 C          -5.8183  -24.8585  -49.9336 C.2       14 UNK         0.5000 
     83 O          -5.6358  -25.6551  -50.8562 O.2       14 UNK        -0.5000 
     84 N          -5.4965  -23.5570  -50.0062 N.am      15 UNK        -0.5000 
     85 CA         -4.7561  -22.8928  -51.0798 C.3       15 UNK         0.1400 
     86 CB         -5.6458  -22.7465  -52.3307 C.3       15 UNK        -0.1800 
     87 C          -3.3973  -23.5640  -51.3769 C.2       15 UNK         0.5000 
     88 O          -3.0292  -23.7020  -52.5438 O.2       15 UNK        -0.5000 
     89 N          -2.7036  -24.0160  -50.3199 N.am      16 UNK        -0.5000 
     90 CA         -1.4486  -24.7746  -50.3475 C.3       16 UNK         0.1400 
     91 CB         -0.3050  -23.9267  -50.9456 C.3       16 UNK        -0.1800 
     92 C          -1.6170  -26.1351  -51.0562 C.2       16 UNK         0.5000 
     93 O          -0.7629  -26.5284  -51.8503 O.2       16 UNK        -0.5000 
     94 N          -2.7501  -26.8031  -50.7893 N.am      17 UNK        -0.5000 
     95 CA         -3.2523  -27.9985  -51.4784 C.3       17 UNK         0.1400 
     96 CB         -2.3419  -29.2179  -51.2228 C.3       17 UNK        -0.1800 
     97 C          -3.5039  -27.7182  -52.9760 C.2       17 UNK         0.5000 
     98 O          -3.0524  -28.4692  -53.8418 O.2       17 UNK        -0.5000 
     99 N          -4.1971  -26.6000  -53.2331 N.am      18 UNK        -0.5000 
    100 CA        -4.5538  -26.0152  -54.5311 C.3       18 UNK         0.1400 
    101 CB        -5.4396  -26.9799  -55.3454 C.3       18 UNK        -0.1800 
    102 C         -3.3729  -25.4709  -55.3668 C.2       18 UNK         0.5000 
    103 O         -3.6066  -24.9985  -56.4802 O.2       18 UNK        -0.5000 
    104 N         -2.1411  -25.5063  -54.8391 N.am      19 UNK        -0.5000 
    105 CA        -0.9356  -25.0394  -55.5267 C.3       19 UNK         0.1400 
    106 CB         0.3073  -25.6159  -54.8337 C.3       19 UNK        -0.1800 
    107 C         -0.8341  -23.5050  -55.6213 C.2       19 UNK         0.5000 
    108 O         -0.2820  -23.0025  -56.6011 O.2       19 UNK        -0.5000 
    109 N         -1.3596  -22.7865  -54.6187 N.am      20 UNK        -0.5000 
    110 CA        -1.3768  -21.3212  -54.5808 C.3       20 UNK         0.1400 
    111 CB        -1.3507  -20.8427  -53.1208 C.3       20 UNK        -0.1800 
    112 C         -2.5846  -20.7293  -55.3321 C.2       20 UNK         0.5000 
    113 O         -2.5357  -19.5588  -55.7113 O.2       20 UNK        -0.5000 
    114 N         -3.6259  -21.5506  -55.5480 N.am      21 UNK        -0.5000 
    115 CA        -4.8479  -21.2660  -56.3108 C.3       21 UNK         0.1400 
    116 CB        -4.5252  -21.1868  -57.8171 C.3       21 UNK        -0.1800 
    117 C         -5.6231  -20.0339  -55.7925 C.2       21 UNK         0.5000 
    118 O         -6.0211  -19.1701  -56.5766 O.2       21 UNK        -0.5000 
    119 N         -5.8068  -19.9750  -54.4676 N.am      22 UNK        -0.5000 
    120 CA        -6.4419  -18.8606  -53.7415 C.3       22 UNK         0.1400 
    121 C         -7.9681  -18.6771  -53.9947 C.2       22 UNK         0.5000 
    122 N         -8.6688  -19.6387  -54.5833 N.am      22 UNK        -0.7600 
    123 O         -8.5264  -17.6392  -53.6497 O.2       22 UNK        -0.5000 
    124 C124       -6.1602  -18.9182  -52.2149 C.3       23 UNK        -0.0398 
    125 S125       -4.4073  -19.1933  -51.7906 S.3       23 UNK        -0.2404 
    126 C126       -3.6928  -17.5542  -52.1059 C.3       23 UNK        -0.0205 
    127 H127        1.5613  -13.9174  -50.1849 H         1 UNK         0.0600 
    128 H128        2.1944  -12.3060  -49.8380 H         1 UNK         0.0600 
    129 H129        0.5779  -12.4925  -50.5257 H         1 UNK         0.0600 
    130 H130       -1.0135  -12.1322  -49.0001 H         1 UNK         0.3000 
    131 H131       -1.1578  -13.5746  -46.5838 H         1 UNK         0.0600 
    132 H132       -2.8610  -11.1458  -47.2855 H         1 UNK         0.0800 
    133 H133       -3.2636  -12.4164  -46.1626 H         1 UNK         0.0800 
    134 H134       -3.1237  -14.9084  -46.8692 H         1 UNK         0.0800 
    135 H135       -4.6261  -15.1520  -47.7190 H         1 UNK         0.0800 
    136 H136       -4.6395  -16.0177  -50.0641 H         1 UNK         0.1150 
    137 H137       -1.0724  -17.9337  -51.4713 H         1 UNK         0.1150 
    138 H138       -0.9790  -15.6183  -47.8675 H         1 UNK         0.1150 
    139 H139        1.0489  -17.4431  -50.4417 H         1 UNK         0.0800 
    140 H140        1.1219  -16.1200  -49.3086 H         1 UNK         0.0800 
    141 H141        1.7744  -20.2865  -48.9813 H         1 UNK         0.0800 
    142 H142        0.4278  -19.7446  -49.9305 H         1 UNK         0.0800 
    143 H143        0.0782  -21.8025  -48.5359 H         1 UNK         0.0600 
    144 H144        0.5804  -20.0853  -46.2387 H         1 UNK         0.3000 
    145 H145       -0.2828  -22.7610  -43.9620 H         1 UNK         0.0600 
    146 H146        1.9647  -22.1733  -43.0815 H         1 UNK         0.0600 
    147 H147        2.0947  -23.1315  -44.5494 H         1 UNK         0.0600 
    148 H148        2.3831  -21.3992  -44.6077 H         1 UNK         0.0600 
    149 H149        0.5459  -20.1248  -43.3886 H         1 UNK         0.3000 
    150 H150       -2.6938  -18.6038  -43.3624 H         1 UNK         0.0600 
    151 H151       -2.5312  -19.8248  -41.2122 H         1 UNK         0.0600 
    152 H152       -1.9815  -18.1675  -41.0197 H         1 UNK         0.0600 
    153 H153       -0.8111  -19.4830  -41.1080 H         1 UNK         0.0600 
    154 H154       -0.0148  -17.7318  -42.7201 H         1 UNK         0.3000 
    155 H155        0.7096  -16.3756  -45.9330 H         1 UNK         0.0600 
    156 H156       -0.8917  -14.7932  -44.6797 H         1 UNK         0.0600 
    157 H157        0.7835  -14.2784  -44.7698 H         1 UNK         0.0600 
    158 H158        0.1448  -14.9754  -43.2782 H         1 UNK         0.0600 
    159 H159        2.2000  -16.1691  -43.5745 H         1 UNK         0.3000 
    160 H160        3.9339  -19.3215  -43.7021 H         1 UNK         0.0600 
    161 H161        5.8046  -17.7586  -43.5974 H         1 UNK         0.0600 
    162 H162        4.7469  -16.3809  -43.8795 H         1 UNK         0.0600 
    163 H163        5.0224  -17.5587  -45.1593 H         1 UNK         0.0600 
    164 H164        4.1572  -17.4139  -41.6995 H         1 UNK         0.3000 
    165 H165        1.5075  -18.2675  -39.5791 H         1 UNK         0.0600 
    166 H166        4.3386  -19.4051  -39.3178 H         1 UNK         0.0600 
    167 H167        3.2066  -19.1406  -37.9914 H         1 UNK         0.0600 
    168 H168        2.8418  -20.3212  -39.2397 H         1 UNK         0.0600 
    169 H169        2.3291  -16.2779  -39.1897 H         1 UNK         0.3000 
    170 H170        4.0940  -14.9016  -38.1000 H         1 UNK         0.0600 
    171 H171        6.5332  -15.1040  -38.5705 H         1 UNK         0.0600 
    172 H172        6.2943  -14.4388  -40.1827 H         1 UNK         0.0600 
    173 H173        5.9870  -13.4460  -38.7581 H         1 UNK         0.0600 
    174 H174        4.1028  -13.4919  -40.6492 H         1 UNK         0.3000 
    175 H175        0.7357  -13.4596  -41.2573 H         1 UNK         0.0600 
    176 H176        1.9685  -11.0562  -39.8120 H         1 UNK         0.0600 
    177 H177        0.5529  -11.0242  -40.8638 H         1 UNK         0.0600 
    178 H178        0.4886  -11.8791  -39.3315 H         1 UNK         0.0600 
    179 H179        2.4860  -11.5580  -42.2340 H         1 UNK         0.3000 
    180 H180        4.3519  -12.0694  -43.8979 H         1 UNK         0.0600 
    181 H181        3.3036  -14.4145  -45.5683 H         1 UNK         0.0600 
    182 H182        4.8936  -14.2755  -44.8203 H         1 UNK         0.0600 
    183 H183        4.4512  -13.2041  -46.1353 H         1 UNK         0.0600 
    184 H184        2.0984  -12.2362  -45.7280 H         1 UNK         0.3000 
    185 H185        0.3820   -9.4210  -44.6329 H         1 UNK         0.0600 
    186 H186        2.2811   -8.0770  -45.5411 H         1 UNK         0.0600 
    187 H187        2.4280   -9.1784  -46.9053 H         1 UNK         0.0600 
    188 H188        0.9769   -8.1939  -46.7106 H         1 UNK         0.0600 
    189 H189        0.5318  -10.6996  -47.2097 H         1 UNK         0.3000 
    190 H190       -1.8994  -19.5581  -46.6408 H         1 UNK         0.3000 
    191 H191       -4.0573  -19.4640  -48.5505 H         1 UNK         0.0600 
    192 H192       -4.0273  -18.9490  -45.5338 H         1 UNK         0.0600 
    193 H193       -3.8161  -17.7453  -46.8044 H         1 UNK         0.0600 
    194 H194       -5.3579  -18.5650  -46.6211 H         1 UNK         0.0600 
    195 H195       -3.3115  -21.5777  -45.7534 H         1 UNK         0.3000 
    196 H196       -5.6771  -22.9946  -45.5072 H         1 UNK         0.0600 
    197 H197       -3.8932  -23.1327  -43.8452 H         1 UNK         0.0600 
    198 H198       -2.7926  -23.8819  -45.0018 H         1 UNK         0.0600 
    199 H199       -4.2119  -24.7546  -44.4343 H         1 UNK         0.0600 
    200 H200       -6.7796  -24.1012  -46.9473 H         1 UNK         0.3000 
    201 H201       -7.4651  -25.3066  -48.6683 H         1 UNK         0.0600 
    202 H202       -6.3912  -27.4915  -49.0925 H         1 UNK         0.0600 
    203 H203       -6.4167  -27.1793  -47.3662 H         1 UNK         0.0600 
    204 H204       -4.9213  -26.9769  -48.2764 H         1 UNK         0.0600 
    205 H205       -5.6709  -22.9761  -49.1913 H         1 UNK         0.3000 
    206 H206       -4.5180  -21.8942  -50.7143 H         1 UNK         0.0600 
    207 H207       -6.5259  -22.1412  -52.1158 H         1 UNK         0.0600 
    208 H208       -5.9926  -23.7113  -52.6973 H         1 UNK         0.0600 
    209 H209       -5.1036  -22.2638  -53.1413 H         1 UNK         0.0600 
    210 H210       -3.1070  -23.8971  -49.3959 H         1 UNK         0.3000 
    211 H211       -1.1979  -24.9890  -49.3076 H         1 UNK         0.0600 
    212 H212       -0.2574  -22.9419  -50.4854 H         1 UNK         0.0600 
    213 H213        0.6601  -24.4096  -50.7898 H         1 UNK         0.0600 
    214 H214       -0.4253  -23.7800  -52.0184 H         1 UNK         0.0600 
    215 H215       -3.4048  -26.3661  -50.1556 H         1 UNK         0.3000 
    216 H216       -4.2267  -28.2194  -51.0399 H         1 UNK         0.0600 
    217 H217       -2.7858  -30.1254  -51.6335 H         1 UNK         0.0600 
    218 H218       -1.3603  -29.1004  -51.6824 H         1 UNK         0.0600 
    219 H219       -2.1952  -29.3826  -50.1555 H         1 UNK         0.0600 
    220 H220       -4.5368  -26.0808  -52.4279 H         1 UNK         0.3000 
    221 H221       -5.1634  -25.1431  -54.2973 H         1 UNK         0.0600 
    222 H222       -4.8838  -27.8543  -55.6842 H         1 UNK         0.0600 
    223 H223       -6.2886  -27.3276  -54.7568 H         1 UNK         0.0600 
    224 H224       -5.8421  -26.4887  -56.2321 H         1 UNK         0.0600 
    225 H225       -2.0231  -25.8721  -53.9039 H         1 UNK         0.3000 
    226 H226       -0.9585  -25.4311  -56.5459 H         1 UNK         0.0600 
    227 H227        0.2502  -26.7018  -54.7545 H         1 UNK         0.0600 
    228 H228        1.2113  -25.3764  -55.3949 H         1 UNK         0.0600 
    229 H229        0.4320  -25.2117  -53.8293 H         1 UNK         0.0600 
    230 H230       -1.8365  -23.2653  -53.8559 H         1 UNK         0.3000 
    231 H231       -0.4746  -20.9414  -55.0649 H         1 UNK         0.0600 
    232 H232       -1.2983  -19.7549  -53.0708 H         1 UNK         0.0600 
    233 H233       -0.4843  -21.2345  -52.5883 H         1 UNK         0.0600 
    234 H234       -2.2437  -21.1467  -52.5768 H         1 UNK         0.0600 
    235 H235       -3.5369  -22.4948  -55.2008 H         1 UNK         0.3000 
    236 H236       -5.5066  -22.1231  -56.1634 H         1 UNK         0.0600 
    237 H237       -4.0174  -22.0897  -58.1570 H         1 UNK         0.0600 
    238 H238       -5.4357  -21.0853  -58.4087 H         1 UNK         0.0600 
    239 H239       -3.8855  -20.3348  -58.0496 H         1 UNK         0.0600 
    240 H240       -5.4131  -20.7034  -53.8928 H         1 UNK         0.3000 
    241 H241       -5.9747  -17.9490  -54.1185 H         1 UNK         0.0600 
    242 H242       -8.2234  -20.4926  -54.8773 H         1 UNK         0.3800 
    243 H243       -9.6549  -19.5062  -54.7449 H         1 UNK         0.3800 
    244 H244       -6.4954  -18.0017  -51.7260 H         1 UNK         0.0800 
    245 H245       -6.7343  -19.7251  -51.7570 H         1 UNK         0.0800 
    246 H246       -4.4683  -16.8407  -52.3873 H         1 UNK         0.0800 
    247 H247       -3.0228  -17.6237  -52.9644 H         1 UNK         0.0800 
@<TRIPOS>BOND
     1    1    2 1    
     2    1  127 1    
     3    1  128 1    
     4    1  129 1    
     5    2    3 2    
     6    2    4 am   BACKBONE|DICT|INTERRES
     7    4    5 1    
     8    4  130 1    
     9    5    6 1    
    10    5   65 1    
    11    5  131 1    
    12    6    7 1    
    13    6  132 1    
    14    6  133 1    
    15    7    8 1    
    16    8    9 1    
    17    8  134 1    
    18    8  135 1    
    19    9   10 ar   
    20    9   14 ar   
    21   10   11 ar   
    22   10  136 1    
    23   11   12 ar   
    24   11  126 1    
    25   12   13 ar   
    26   12  137 1    
    27   13   14 ar   
    28   13   15 1    
    29   14  138 1    
    30   15   16 1    
    31   15  139 1    
    32   15  140 1    
    33   16   17 1    
    34   17   18 1    
    35   17  141 1    
    36   17  142 1    
    37   18   19 1    
    38   18   67 1    
    39   18  143 1    
    40   19   20 am   BACKBONE|DICT|INTERRES
    41   19  144 1    
    42   20   21 2    
    43   20   22 1    
    44   22   23 1    
    45   22   24 1    
    46   22  145 1    
    47   23  146 1    
    48   23  147 1    
    49   23  148 1    
    50   24   25 am   BACKBONE|DICT|INTERRES
    51   24  149 1    
    52   25   26 2    
    53   25   27 1    
    54   27   28 1    
    55   27   29 1    
    56   27  150 1    
    57   28  151 1    
    58   28  152 1    
    59   28  153 1    
    60   29   30 am   BACKBONE|DICT|INTERRES
    61   29  154 1    
    62   30   31 2    
    63   30   32 1    
    64   32   33 1    
    65   32   34 1    
    66   32  155 1    
    67   33  156 1    
    68   33  157 1    
    69   33  158 1    
    70   34   35 am   BACKBONE|DICT|INTERRES
    71   34  159 1    
    72   35   36 2    
    73   35   37 1    
    74   37   38 1    
    75   37   39 1    
    76   37  160 1    
    77   38  161 1    
    78   38  162 1    
    79   38  163 1    
    80   39   40 am   BACKBONE|DICT|INTERRES
    81   39  164 1    
    82   40   41 2    
    83   40   42 1    
    84   42   43 1    
    85   42   44 1    
    86   42  165 1    
    87   43  166 1    
    88   43  167 1    
    89   43  168 1    
    90   44   45 am   BACKBONE|DICT|INTERRES
    91   44  169 1    
    92   45   46 2    
    93   45   47 1    
    94   47   48 1    
    95   47   49 1    
    96   47  170 1    
    97   48  171 1    
    98   48  172 1    
    99   48  173 1    
   100   49   50 am   BACKBONE|DICT|INTERRES
   101   49  174 1    
   102   50   51 2    
   103   50   52 1    
   104   52   53 1    
   105   52   54 1    
   106   52  175 1    
   107   53  176 1    
   108   53  177 1    
   109   53  178 1    
   110   54   55 am   BACKBONE|DICT|INTERRES
   111   54  179 1    
   112   55   56 2    
   113   55   57 1    
   114   57   58 1    
   115   57   59 1    
   116   57  180 1    
   117   58  181 1    
   118   58  182 1    
   119   58  183 1    
   120   59   60 am   BACKBONE|DICT|INTERRES
   121   59  184 1    
   122   60   61 2    
   123   60   62 1    
   124   62   63 1    
   125   62   64 1    
   126   62  185 1    
   127   63  186 1    
   128   63  187 1    
   129   63  188 1    
   130   64   65 am   BACKBONE|DICT|INTERRES
   131   64  189 1    
   132   65   66 2    
   133   67   68 2    
   134   67   69 am   BACKBONE|DICT|INTERRES
   135   69   70 1    
   136   69  190 1    
   137   70   71 1    
   138   70   72 1    
   139   70  191 1    
   140   71  192 1    
   141   71  193 1    
   142   71  194 1    
   143   72   73 2    
   144   72   74 am   BACKBONE|DICT|INTERRES
   145   74   75 1    
   146   74  195 1    
   147   75   76 1    
   148   75   77 1    
   149   75  196 1    
   150   76  197 1    
   151   76  198 1    
   152   76  199 1    
   153   77   78 2    
   154   77   79 am   BACKBONE|DICT|INTERRES
   155   79   80 1    
   156   79  200 1    
   157   80   81 1    
   158   80   82 1    
   159   80  201 1    
   160   81  202 1    
   161   81  203 1    
   162   81  204 1    
   163   82   83 2    
   164   82   84 am   BACKBONE|DICT|INTERRES
   165   84   85 1    
   166   84  205 1    
   167   85   86 1    
   168   85   87 1    
   169   85  206 1    
   170   86  207 1    
   171   86  208 1    
   172   86  209 1    
   173   87   88 2    
   174   87   89 am   BACKBONE|DICT|INTERRES
   175   89   90 1    
   176   89  210 1    
   177   90   91 1    
   178   90   92 1    
   179   90  211 1    
   180   91  212 1    
   181   91  213 1    
   182   91  214 1    
   183   92   93 2    
   184   92   94 am   BACKBONE|DICT|INTERRES
   185   94   95 1    
   186   94  215 1    
   187   95   96 1    
   188   95   97 1    
   189   95  216 1    
   190   96  217 1    
   191   96  218 1    
   192   96  219 1    
   193   97   98 2    
   194   97   99 am   BACKBONE|DICT|INTERRES
   195   99  100 1    
   196   99  220 1    
   197  100  101 1    
   198  100  102 1    
   199  100  221 1    
   200  101  222 1    
   201  101  223 1    
   202  101  224 1    
   203  102  103 2    
   204  102  104 am   BACKBONE|DICT|INTERRES
   205  104  105 1    
   206  104  225 1    
   207  105  106 1    
   208  105  107 1    
   209  105  226 1    
   210  106  227 1    
   211  106  228 1    
   212  106  229 1    
   213  107  108 2    
   214  107  109 am   BACKBONE|DICT|INTERRES
   215  109  110 1    
   216  109  230 1    
   217  110  111 1    
   218  110  112 1    
   219  110  231 1    
   220  111  232 1    
   221  111  233 1    
   222  111  234 1    
   223  112  113 2    
   224  112  114 am   BACKBONE|DICT|INTERRES
   225  114  115 1    
   226  114  235 1    
   227  115  116 1    
   228  115  117 1    
   229  115  236 1    
   230  116  237 1    
   231  116  238 1    
   232  116  239 1    
   233  117  118 2    
   234  117  119 am   BACKBONE|DICT|INTERRES
   235  119  120 1    
   236  119  240 1    
   237  120  121 1    
   238  120  124 1    
   239  120  241 1    
   240  121  122 am   BACKBONE|DICT|INTERRES
   241  121  123 2    
   242  122  242 1    
   243  122  243 1    
   244  124  125 1    
   245  124  244 1    
   246  124  245 1    
   247  125  126 1    
   248  126  246 1    
   249  126  247 1    
@<TRIPOS>SUBSTRUCTURE
     1 UNK         1 GROUP             0       ****    0 ROOT    
