@<TRIPOS>MOLECULE
3R540
247   249    1
SMALL
USER_CHARGES


@<TRIPOS>ATOM
      1 CA         -0.3514   -8.9011  -46.0485 C.3       0 UNK        -0.1800 
      2 C          -1.0130   -9.4370  -47.3182 C.2       0 UNK         0.5000 
      3 O          -2.1090   -8.9919  -47.6504 O.2       0 UNK        -0.5000 
      4 N          -0.4159  -10.3810  -48.0627 N.am      1 UNK        -0.5000 
      5 CA          0.8695  -11.0559  -47.8287 C.3       1 UNK         0.1400 
      6 C6          1.3686  -11.7777  -49.1100 C.3       23 UNK        -0.0398 
      7 S7          0.5828  -13.3843  -49.4898 S.3       23 UNK        -0.2404 
      8 C8         -0.9165  -12.8971  -50.3984 C.3       23 UNK        -0.0205 
      9 C9         -1.7374  -14.1288  -50.7394 C.ar      23 UNK        -0.0193 
     10 C10        -1.7588  -14.6322  -52.0421 C.ar      23 UNK        -0.1150 
     11 C11        -2.4512  -15.8110  -52.3342 C.ar      23 UNK        -0.0193 
     12 C12        -3.1230  -16.4897  -51.3105 C.ar      23 UNK        -0.1150 
     13 C13        -3.1161  -15.9882  -50.0045 C.ar      23 UNK        -0.0193 
     14 C14        -2.4389  -14.7962  -49.7325 C.ar      23 UNK        -0.1150 
     15 C15        -3.7938  -16.7452  -48.8708 C.3       23 UNK        -0.0205 
     16 S16        -2.5472  -17.3781  -47.7069 S.3       23 UNK        -0.2404 
     17 C17        -3.5488  -18.2407  -46.4497 C.3       23 UNK        -0.0398 
     18 CA         -3.3930  -19.7762  -46.5469 C.3       11 UNK         0.1400 
     19 N          -2.0067  -20.2264  -46.3752 N.am      11 UNK        -0.5000 
     20 C          -1.5758  -21.4701  -46.6259 C.2       10 UNK         0.5000 
     21 O          -2.3084  -22.3783  -47.0184 O.2       10 UNK        -0.5000 
     22 CA         -0.0913  -21.7658  -46.3573 C.3       10 UNK         0.1400 
     23 CB          0.7982  -21.1796  -47.4638 C.3       10 UNK        -0.1800 
     24 N           0.3412  -21.2780  -45.0481 N.am      10 UNK        -0.5000 
     25 C          -0.1101  -21.7644  -43.8826 C.2       9 UNK         0.5000 
     26 O          -0.9038  -22.7008  -43.7947 O.2       9 UNK        -0.5000 
     27 CA          0.3780  -21.0728  -42.5976 C.3       9 UNK         0.1400 
     28 CB          1.7649  -21.5954  -42.1948 C.3       9 UNK        -0.1800 
     29 N           0.4167  -19.6151  -42.7069 N.am      9 UNK        -0.5000 
     30 C          -0.6503  -18.8352  -42.9350 C.2       8 UNK         0.5000 
     31 O          -1.7981  -19.2576  -43.0680 O.2       8 UNK        -0.5000 
     32 CA         -0.3788  -17.3301  -43.0982 C.3       8 UNK         0.1400 
     33 CB         -0.1038  -16.6884  -41.7298 C.3       8 UNK        -0.1800 
     34 N           0.7308  -17.0510  -44.0118 N.am      8 UNK        -0.5000 
     35 C           0.8081  -17.4801  -45.2807 C.2       7 UNK         0.5000 
     36 O          -0.0584  -18.1576  -45.8286 O.2       7 UNK        -0.5000 
     37 CA          2.1045  -17.1649  -46.0421 C.3       7 UNK         0.1400 
     38 CB          2.1398  -15.7043  -46.5155 C.3       7 UNK        -0.1800 
     39 N           3.2822  -17.4552  -45.2275 N.am      7 UNK        -0.5000 
     40 C           3.6692  -18.6901  -44.8773 C.2       6 UNK         0.5000 
     41 O           3.1070  -19.7197  -45.2525 O.2       6 UNK        -0.5000 
     42 CA          4.8633  -18.7822  -43.9105 C.3       6 UNK         0.1400 
     43 CB          6.1917  -18.6642  -44.6727 C.3       6 UNK        -0.1800 
     44 N           4.8123  -17.7633  -42.8598 N.am      6 UNK        -0.5000 
     45 C           3.8847  -17.7263  -41.8931 C.2       5 UNK         0.5000 
     46 O           2.9854  -18.5583  -41.7763 O.2       5 UNK        -0.5000 
     47 CA          3.9516  -16.5415  -40.9123 C.3       5 UNK         0.1400 
     48 CB          4.9282  -16.8454  -39.7664 C.3       5 UNK        -0.1800 
     49 N           4.3179  -15.2671  -41.5385 N.am      5 UNK        -0.5000 
     50 C           3.6054  -14.6550  -42.4930 C.2       4 UNK         0.5000 
     51 O           2.6135  -15.1497  -43.0325 O.2       4 UNK        -0.5000 
     52 CA          4.0926  -13.2678  -42.9410 C.3       4 UNK         0.1400 
     53 CB          4.8363  -13.3650  -44.2816 C.3       4 UNK        -0.1800 
     54 N           2.9550  -12.3633  -43.0875 N.am      4 UNK        -0.5000 
     55 C           2.2978  -11.7992  -42.0613 C.2       3 UNK         0.5000 
     56 O           2.6719  -11.8727  -40.8901 O.2       3 UNK        -0.5000 
     57 CA          0.9970  -11.0384  -42.3915 C.3       3 UNK         0.1400 
     58 CB          1.2819   -9.5440  -42.6060 C.3       3 UNK        -0.1800 
     59 N           0.3527  -11.5755  -43.5872 N.am      3 UNK        -0.5000 
     60 C          -0.3176  -12.7327  -43.6415 C.2       2 UNK         0.5000 
     61 O          -0.6851  -13.3402  -42.6371 O.2       2 UNK        -0.5000 
     62 CA         -0.6114  -13.3215  -45.0419 C.3       2 UNK         0.1400 
     63 CB         -2.0574  -13.8326  -45.1574 C.3       2 UNK        -0.1800 
     64 N          -0.3398  -12.4233  -46.1719 N.am      2 UNK        -0.5000 
     65 C           0.8572  -11.9798  -46.5868 C.2       1 UNK         0.5000 
     66 O           1.9113  -12.2254  -46.0000 O.2       1 UNK        -0.5000 
     67 C          -4.3571  -20.5038  -45.5874 C.2       11 UNK         0.5000 
     68 O          -5.4340  -20.9152  -46.0213 O.2       11 UNK        -0.5000 
     69 N          -3.9336  -20.7135  -44.3307 N.am      12 UNK        -0.5000 
     70 CA         -4.6574  -21.4921  -43.3197 C.3       12 UNK         0.1400 
     71 CB         -3.9564  -21.3507  -41.9606 C.3       12 UNK        -0.1800 
     72 C          -4.8154  -22.9802  -43.6886 C.2       12 UNK         0.5000 
     73 O          -5.8154  -23.5933  -43.3154 O.2       12 UNK        -0.5000 
     74 N          -3.8617  -23.5195  -44.4588 N.am      13 UNK        -0.5000 
     75 CA         -3.8852  -24.8637  -45.0375 C.3       13 UNK         0.1400 
     76 CB         -2.4382  -25.3714  -45.1749 C.3       13 UNK        -0.1800 
     77 C          -4.6480  -24.9168  -46.3806 C.2       13 UNK         0.5000 
     78 O          -4.3309  -25.7567  -47.2234 O.2       13 UNK        -0.5000 
     79 N          -5.6280  -24.0196  -46.5698 N.am      14 UNK        -0.5000 
     80 CA         -6.4868  -23.8686  -47.7490 C.3       14 UNK         0.1400 
     81 CB         -7.4135  -25.0922  -47.9099 C.3       14 UNK        -0.1800 
     82 C          -5.6803  -23.5512  -49.0229 C.2       14 UNK         0.5000 
     83 O          -5.8881  -24.1797  -50.0612 O.2       14 UNK        -0.5000 
     84 N          -4.7432  -22.6006  -48.8970 N.am      15 UNK        -0.5000 
     85 CA         -3.7677  -22.1882  -49.9128 C.3       15 UNK         0.1400 
     86 CB         -4.4654  -21.4794  -51.0892 C.3       15 UNK        -0.1800 
     87 C          -2.8753  -23.3678  -50.3479 C.2       15 UNK         0.5000 
     88 O          -2.7581  -23.6577  -51.5398 O.2       15 UNK        -0.5000 
     89 N          -2.3007  -24.0448  -49.3432 N.am      16 UNK        -0.5000 
     90 CA         -1.4727  -25.2507  -49.4313 C.3       16 UNK         0.1400 
     91 CB         -0.1054  -24.9107  -50.0598 C.3       16 UNK        -0.1800 
     92 C          -2.1982  -26.4035  -50.1561 C.2       16 UNK         0.5000 
     93 O          -1.6775  -26.9457  -51.1305 O.2       16 UNK        -0.5000 
     94 N          -3.4180  -26.7194  -49.6968 N.am      17 UNK        -0.5000 
     95 CA         -4.3597  -27.6797  -50.2874 C.3       17 UNK         0.1400 
     96 CB         -3.8552  -29.1243  -50.0930 C.3       17 UNK        -0.1800 
     97 C          -4.6925  -27.3443  -51.7586 C.2       17 UNK         0.5000 
     98 O          -4.7017  -28.2266  -52.6186 O.2       17 UNK        -0.5000 
     99 N          -4.9184  -26.0483  -52.0085 N.am      18 UNK        -0.5000 
    100 CA        -5.1712  -25.3854  -53.2884 C.3       18 UNK         0.1400 
    101 CB        -6.4704  -25.9063  -53.9352 C.3       18 UNK        -0.1800 
    102 C         -3.9858  -25.3819  -54.2794 C.2       18 UNK         0.5000 
    103 O         -4.1594  -24.9163  -55.4068 O.2       18 UNK        -0.5000 
    104 N         -2.7989  -25.8557  -53.8711 N.am      19 UNK        -0.5000 
    105 CA        -1.5978  -25.8763  -54.7115 C.3       19 UNK         0.1400 
    106 CB        -0.5736  -26.8612  -54.1292 C.3       19 UNK        -0.1800 
    107 C         -0.9590  -24.4858  -54.8883 C.2       19 UNK         0.5000 
    108 O         -0.2643  -24.2671  -55.8815 O.2       19 UNK        -0.5000 
    109 N         -1.2046  -23.5759  -53.9375 N.am      20 UNK        -0.5000 
    110 CA        -0.6946  -22.2065  -53.9179 C.3       20 UNK         0.1400 
    111 CB         0.1443  -22.0053  -52.6423 C.3       20 UNK        -0.1800 
    112 C         -1.8434  -21.1859  -54.0225 C.2       20 UNK         0.5000 
    113 O         -1.6964  -20.0561  -53.5548 O.2       20 UNK        -0.5000 
    114 N         -2.9684  -21.5773  -54.6409 N.am      21 UNK        -0.5000 
    115 CA        -4.1854  -20.7742  -54.8232 C.3       21 UNK         0.1400 
    116 CB        -5.3688  -21.7184  -55.0972 C.3       21 UNK        -0.1800 
    117 C         -4.0529  -19.6606  -55.8886 C.2       21 UNK         0.5000 
    118 O         -4.9244  -19.5131  -56.7470 O.2       21 UNK        -0.5000 
    119 N         -2.9628  -18.8915  -55.8017 N.am      22 UNK        -0.5000 
    120 CA        -2.6438  -17.6914  -56.5945 C.3       22 UNK         0.1400 
    121 C         -2.3690  -17.9508  -58.1088 C.2       22 UNK         0.5000 
    122 N         -2.1423  -19.1854  -58.5401 N.am      22 UNK        -0.7600 
    123 O         -2.3238  -17.0163  -58.9045 O.2       22 UNK        -0.5000 
    124 C124       -3.6573  -16.5296  -56.3653 C.3       23 UNK        -0.0398 
    125 S125       -3.9859  -16.0274  -54.6302 S.3       23 UNK        -0.2404 
    126 C126       -2.4310  -16.3736  -53.7460 C.3       23 UNK        -0.0205 
    127 H127        0.7344   -8.9710  -46.0629 H         1 UNK         0.0600 
    128 H128       -0.7261   -9.4396  -45.1788 H         1 UNK         0.0600 
    129 H129       -0.6018   -7.8483  -45.9176 H         1 UNK         0.0600 
    130 H130       -0.8961  -10.6782  -48.8985 H         1 UNK         0.3000 
    131 H131        1.6042  -10.2756  -47.6246 H         1 UNK         0.0600 
    132 H132        1.2794  -11.1205  -49.9763 H         1 UNK         0.0800 
    133 H133        2.4380  -11.9709  -49.0095 H         1 UNK         0.0800 
    134 H134       -1.5235  -12.2242  -49.7934 H         1 UNK         0.0800 
    135 H135       -0.6383  -12.3510  -51.3012 H         1 UNK         0.0800 
    136 H136       -1.2156  -14.1200  -52.8240 H         1 UNK         0.1150 
    137 H137       -3.6369  -17.4149  -51.5316 H         1 UNK         0.1150 
    138 H138       -2.4115  -14.4168  -48.7205 H         1 UNK         0.1150 
    139 H139       -4.3861  -17.5764  -49.2565 H         1 UNK         0.0800 
    140 H140       -4.4811  -16.0788  -48.3476 H         1 UNK         0.0800 
    141 H141       -4.5942  -17.9479  -46.5629 H         1 UNK         0.0800 
    142 H142       -3.2341  -17.8884  -45.4657 H         1 UNK         0.0800 
    143 H143       -3.6930  -20.0599  -47.5571 H         1 UNK         0.0600 
    144 H144       -1.3339  -19.5189  -46.0851 H         1 UNK         0.3000 
    145 H145        0.0354  -22.8505  -46.3680 H         1 UNK         0.0600 
    146 H146        1.8437  -21.4473  -47.3105 H         1 UNK         0.0600 
    147 H147        0.5039  -21.5607  -48.4427 H         1 UNK         0.0600 
    148 H148        0.7355  -20.0921  -47.5030 H         1 UNK         0.0600 
    149 H149        0.9993  -20.5081  -45.0396 H         1 UNK         0.3000 
    150 H150       -0.3246  -21.3248  -41.8007 H         1 UNK         0.0600 
    151 H151        1.7633  -22.6823  -42.1043 H         1 UNK         0.0600 
    152 H152        2.0736  -21.1895  -41.2313 H         1 UNK         0.0600 
    153 H153        2.5248  -21.3262  -42.9294 H         1 UNK         0.0600 
    154 H154        1.3244  -19.1765  -42.5778 H         1 UNK         0.3000 
    155 H155       -1.2723  -16.8680  -43.5226 H         1 UNK         0.0600 
    156 H156       -0.9752  -16.7728  -41.0797 H         1 UNK         0.0600 
    157 H157        0.1315  -15.6301  -41.8243 H         1 UNK         0.0600 
    158 H158        0.7322  -17.1647  -41.2189 H         1 UNK         0.0600 
    159 H159        1.4859  -16.4767  -43.6431 H         1 UNK         0.3000 
    160 H160        2.1335  -17.8048  -46.9268 H         1 UNK         0.0600 
    161 H161        2.1830  -15.0084  -45.6787 H         1 UNK         0.0600 
    162 H162        1.2515  -15.4611  -47.1002 H         1 UNK         0.0600 
    163 H163        3.0063  -15.5155  -47.1490 H         1 UNK         0.0600 
    164 H164        3.7648  -16.6647  -44.8276 H         1 UNK         0.3000 
    165 H165        4.8295  -19.7643  -43.4337 H         1 UNK         0.0600 
    166 H166        7.0424  -18.8067  -44.0061 H         1 UNK         0.0600 
    167 H167        6.2614  -19.4227  -45.4536 H         1 UNK         0.0600 
    168 H168        6.2988  -17.6898  -45.1509 H         1 UNK         0.0600 
    169 H169        5.5153  -17.0396  -42.8839 H         1 UNK         0.3000 
    170 H170        2.9558  -16.4189  -40.4819 H         1 UNK         0.0600 
    171 H171        4.6673  -17.7805  -39.2687 H         1 UNK         0.0600 
    172 H172        5.9542  -16.9393  -40.1246 H         1 UNK         0.0600 
    173 H173        4.9063  -16.0603  -39.0104 H         1 UNK         0.0600 
    174 H174        5.1274  -14.7988  -41.1574 H         1 UNK         0.3000 
    175 H175        4.7761  -12.8625  -42.1919 H         1 UNK         0.0600 
    176 H176        4.1938  -13.7504  -45.0740 H         1 UNK         0.0600 
    177 H177        5.2039  -12.3888  -44.5982 H         1 UNK         0.0600 
    178 H178        5.6986  -14.0284  -44.2045 H         1 UNK         0.0600 
    179 H179        2.5632  -12.2943  -44.0199 H         1 UNK         0.3000 
    180 H180        0.3179  -11.1430  -41.5427 H         1 UNK         0.0600 
    181 H181        1.9488   -9.3774  -43.4529 H         1 UNK         0.0600 
    182 H182        1.7538   -9.1070  -41.7250 H         1 UNK         0.0600 
    183 H183        0.3613   -8.9896  -42.7890 H         1 UNK         0.0600 
    184 H184        0.6356  -11.1706  -44.4666 H         1 UNK         0.3000 
    185 H185        0.0462  -14.1851  -45.1443 H         1 UNK         0.0600 
    186 H186       -2.2844  -14.5596  -44.3766 H         1 UNK         0.0600 
    187 H187       -2.7783  -13.0190  -45.0705 H         1 UNK         0.0600 
    188 H188       -2.2235  -14.3316  -46.1126 H         1 UNK         0.0600 
    189 H189       -1.1471  -12.1389  -46.7074 H         1 UNK         0.3000 
    190 H190       -3.0483  -20.3094  -44.0333 H         1 UNK         0.3000 
    191 H191       -5.6600  -21.0689  -43.2306 H         1 UNK         0.0600 
    192 H192       -2.9307  -21.7193  -41.9986 H         1 UNK         0.0600 
    193 H193       -3.9273  -20.3097  -41.6386 H         1 UNK         0.0600 
    194 H194       -4.4805  -21.9143  -41.1878 H         1 UNK         0.0600 
    195 H195       -3.0679  -22.9451  -44.7136 H         1 UNK         0.3000 
    196 H196       -4.4064  -25.5360  -44.3535 H         1 UNK         0.0600 
    197 H197       -2.4119  -26.4037  -45.5256 H         1 UNK         0.0600 
    198 H198       -1.9201  -25.3446  -44.2161 H         1 UNK         0.0600 
    199 H199       -1.8645  -24.7695  -45.8795 H         1 UNK         0.0600 
    200 H200       -5.7843  -23.3425  -45.8355 H         1 UNK         0.3000 
    201 H201       -7.1174  -22.9984  -47.5617 H         1 UNK         0.0600 
    202 H202       -8.1321  -24.9336  -48.7148 H         1 UNK         0.0600 
    203 H203       -7.9830  -25.2774  -46.9992 H         1 UNK         0.0600 
    204 H204       -6.8552  -25.9985  -48.1462 H         1 UNK         0.0600 
    205 H205       -4.6159  -22.1982  -47.9781 H         1 UNK         0.3000 
    206 H206       -3.1071  -21.4593  -49.4431 H         1 UNK         0.0600 
    207 H207       -5.1080  -20.6715  -50.7396 H         1 UNK         0.0600 
    208 H208       -3.7255  -21.0376  -51.7543 H         1 UNK         0.0600 
    209 H209       -5.0749  -22.1639  -51.6795 H         1 UNK         0.0600 
    210 H210       -2.4597  -23.6891  -48.4043 H         1 UNK         0.3000 
    211 H211       -1.2980  -25.5851  -48.4077 H         1 UNK         0.0600 
    212 H212        0.3854  -24.0992  -49.5226 H         1 UNK         0.0600 
    213 H213        0.5621  -25.7725  -50.0294 H         1 UNK         0.0600 
    214 H214       -0.2031  -24.6114  -51.1036 H         1 UNK         0.0600 
    215 H215       -3.7586  -26.2351  -48.8666 H         1 UNK         0.3000 
    216 H216       -5.2919  -27.5756  -49.7303 H         1 UNK         0.0600 
    217 H217       -4.6017  -29.8464  -50.4256 H         1 UNK         0.0600 
    218 H218       -2.9417  -29.3146  -50.6573 H         1 UNK         0.0600 
    219 H219       -3.6499  -29.3308  -49.0427 H         1 UNK         0.0600 
    220 H220       -4.9259  -25.4145  -51.2135 H         1 UNK         0.3000 
    221 H221       -5.3355  -24.3407  -53.0261 H         1 UNK         0.0600 
    222 H222       -6.3669  -26.9345  -54.2825 H         1 UNK         0.0600 
    223 H223       -7.3025  -25.8697  -53.2321 H         1 UNK         0.0600 
    224 H224       -6.7497  -25.2986  -54.7967 H         1 UNK         0.0600 
    225 H225       -2.6986  -26.1963  -52.9217 H         1 UNK         0.3000 
    226 H226       -1.8821  -26.2389  -55.7017 H         1 UNK         0.0600 
    227 H227       -1.0206  -27.8380  -53.9433 H         1 UNK         0.0600 
    228 H228        0.2580  -27.0082  -54.8193 H         1 UNK         0.0600 
    229 H229       -0.1540  -26.4969  -53.1911 H         1 UNK         0.0600 
    230 H230       -1.8089  -23.8243  -53.1557 H         1 UNK         0.3000 
    231 H231       -0.0449  -22.0269  -54.7762 H         1 UNK         0.0600 
    232 H232        0.6172  -21.0226  -52.6329 H         1 UNK         0.0600 
    233 H233        0.9406  -22.7465  -52.5737 H         1 UNK         0.0600 
    234 H234       -0.4649  -22.0840  -51.7418 H         1 UNK         0.0600 
    235 H235       -2.9966  -22.5157  -55.0145 H         1 UNK         0.3000 
    236 H236       -4.3956  -20.2602  -53.8837 H         1 UNK         0.0600 
    237 H237       -5.5079  -22.4193  -54.2765 H         1 UNK         0.0600 
    238 H238       -6.3025  -21.1644  -55.2018 H         1 UNK         0.0600 
    239 H239       -5.2208  -22.2941  -56.0116 H         1 UNK         0.0600 
    240 H240       -2.3129  -19.1149  -55.0532 H         1 UNK         0.3000 
    241 H241       -1.6769  -17.3554  -56.2217 H         1 UNK         0.0600 
    242 H242       -1.9544  -19.3442  -59.5177 H         1 UNK         0.3800 
    243 H243       -2.1774  -19.9638  -57.9019 H         1 UNK         0.3800 
    244 H244       -3.3126  -15.6337  -56.8841 H         1 UNK         0.0800 
    245 H245       -4.6161  -16.7798  -56.8216 H         1 UNK         0.0800 
    246 H246       -1.5937  -15.9532  -54.3049 H         1 UNK         0.0800 
    247 H247       -2.2621  -17.4474  -53.6868 H         1 UNK         0.0800 
@<TRIPOS>BOND
     1    1    2 1    
     2    1  127 1    
     3    1  128 1    
     4    1  129 1    
     5    2    3 2    
     6    2    4 am   BACKBONE|DICT|INTERRES
     7    4    5 1    
     8    4  130 1    
     9    5    6 1    
    10    5   65 1    
    11    5  131 1    
    12    6    7 1    
    13    6  132 1    
    14    6  133 1    
    15    7    8 1    
    16    8    9 1    
    17    8  134 1    
    18    8  135 1    
    19    9   10 ar   
    20    9   14 ar   
    21   10   11 ar   
    22   10  136 1    
    23   11   12 ar   
    24   11  126 1    
    25   12   13 ar   
    26   12  137 1    
    27   13   14 ar   
    28   13   15 1    
    29   14  138 1    
    30   15   16 1    
    31   15  139 1    
    32   15  140 1    
    33   16   17 1    
    34   17   18 1    
    35   17  141 1    
    36   17  142 1    
    37   18   19 1    
    38   18   67 1    
    39   18  143 1    
    40   19   20 am   BACKBONE|DICT|INTERRES
    41   19  144 1    
    42   20   21 2    
    43   20   22 1    
    44   22   23 1    
    45   22   24 1    
    46   22  145 1    
    47   23  146 1    
    48   23  147 1    
    49   23  148 1    
    50   24   25 am   BACKBONE|DICT|INTERRES
    51   24  149 1    
    52   25   26 2    
    53   25   27 1    
    54   27   28 1    
    55   27   29 1    
    56   27  150 1    
    57   28  151 1    
    58   28  152 1    
    59   28  153 1    
    60   29   30 am   BACKBONE|DICT|INTERRES
    61   29  154 1    
    62   30   31 2    
    63   30   32 1    
    64   32   33 1    
    65   32   34 1    
    66   32  155 1    
    67   33  156 1    
    68   33  157 1    
    69   33  158 1    
    70   34   35 am   BACKBONE|DICT|INTERRES
    71   34  159 1    
    72   35   36 2    
    73   35   37 1    
    74   37   38 1    
    75   37   39 1    
    76   37  160 1    
    77   38  161 1    
    78   38  162 1    
    79   38  163 1    
    80   39   40 am   BACKBONE|DICT|INTERRES
    81   39  164 1    
    82   40   41 2    
    83   40   42 1    
    84   42   43 1    
    85   42   44 1    
    86   42  165 1    
    87   43  166 1    
    88   43  167 1    
    89   43  168 1    
    90   44   45 am   BACKBONE|DICT|INTERRES
    91   44  169 1    
    92   45   46 2    
    93   45   47 1    
    94   47   48 1    
    95   47   49 1    
    96   47  170 1    
    97   48  171 1    
    98   48  172 1    
    99   48  173 1    
   100   49   50 am   BACKBONE|DICT|INTERRES
   101   49  174 1    
   102   50   51 2    
   103   50   52 1    
   104   52   53 1    
   105   52   54 1    
   106   52  175 1    
   107   53  176 1    
   108   53  177 1    
   109   53  178 1    
   110   54   55 am   BACKBONE|DICT|INTERRES
   111   54  179 1    
   112   55   56 2    
   113   55   57 1    
   114   57   58 1    
   115   57   59 1    
   116   57  180 1    
   117   58  181 1    
   118   58  182 1    
   119   58  183 1    
   120   59   60 am   BACKBONE|DICT|INTERRES
   121   59  184 1    
   122   60   61 2    
   123   60   62 1    
   124   62   63 1    
   125   62   64 1    
   126   62  185 1    
   127   63  186 1    
   128   63  187 1    
   129   63  188 1    
   130   64   65 am   BACKBONE|DICT|INTERRES
   131   64  189 1    
   132   65   66 2    
   133   67   68 2    
   134   67   69 am   BACKBONE|DICT|INTERRES
   135   69   70 1    
   136   69  190 1    
   137   70   71 1    
   138   70   72 1    
   139   70  191 1    
   140   71  192 1    
   141   71  193 1    
   142   71  194 1    
   143   72   73 2    
   144   72   74 am   BACKBONE|DICT|INTERRES
   145   74   75 1    
   146   74  195 1    
   147   75   76 1    
   148   75   77 1    
   149   75  196 1    
   150   76  197 1    
   151   76  198 1    
   152   76  199 1    
   153   77   78 2    
   154   77   79 am   BACKBONE|DICT|INTERRES
   155   79   80 1    
   156   79  200 1    
   157   80   81 1    
   158   80   82 1    
   159   80  201 1    
   160   81  202 1    
   161   81  203 1    
   162   81  204 1    
   163   82   83 2    
   164   82   84 am   BACKBONE|DICT|INTERRES
   165   84   85 1    
   166   84  205 1    
   167   85   86 1    
   168   85   87 1    
   169   85  206 1    
   170   86  207 1    
   171   86  208 1    
   172   86  209 1    
   173   87   88 2    
   174   87   89 am   BACKBONE|DICT|INTERRES
   175   89   90 1    
   176   89  210 1    
   177   90   91 1    
   178   90   92 1    
   179   90  211 1    
   180   91  212 1    
   181   91  213 1    
   182   91  214 1    
   183   92   93 2    
   184   92   94 am   BACKBONE|DICT|INTERRES
   185   94   95 1    
   186   94  215 1    
   187   95   96 1    
   188   95   97 1    
   189   95  216 1    
   190   96  217 1    
   191   96  218 1    
   192   96  219 1    
   193   97   98 2    
   194   97   99 am   BACKBONE|DICT|INTERRES
   195   99  100 1    
   196   99  220 1    
   197  100  101 1    
   198  100  102 1    
   199  100  221 1    
   200  101  222 1    
   201  101  223 1    
   202  101  224 1    
   203  102  103 2    
   204  102  104 am   BACKBONE|DICT|INTERRES
   205  104  105 1    
   206  104  225 1    
   207  105  106 1    
   208  105  107 1    
   209  105  226 1    
   210  106  227 1    
   211  106  228 1    
   212  106  229 1    
   213  107  108 2    
   214  107  109 am   BACKBONE|DICT|INTERRES
   215  109  110 1    
   216  109  230 1    
   217  110  111 1    
   218  110  112 1    
   219  110  231 1    
   220  111  232 1    
   221  111  233 1    
   222  111  234 1    
   223  112  113 2    
   224  112  114 am   BACKBONE|DICT|INTERRES
   225  114  115 1    
   226  114  235 1    
   227  115  116 1    
   228  115  117 1    
   229  115  236 1    
   230  116  237 1    
   231  116  238 1    
   232  116  239 1    
   233  117  118 2    
   234  117  119 am   BACKBONE|DICT|INTERRES
   235  119  120 1    
   236  119  240 1    
   237  120  121 1    
   238  120  124 1    
   239  120  241 1    
   240  121  122 am   BACKBONE|DICT|INTERRES
   241  121  123 2    
   242  122  242 1    
   243  122  243 1    
   244  124  125 1    
   245  124  244 1    
   246  124  245 1    
   247  125  126 1    
   248  126  246 1    
   249  126  247 1    
@<TRIPOS>SUBSTRUCTURE
     1 UNK         1 GROUP             0       ****    0 ROOT    
