@<TRIPOS>MOLECULE
3R540
247   249    1
SMALL
USER_CHARGES


@<TRIPOS>ATOM
      1 CA          3.3572   -7.3625  -45.4371 C.3       0 UNK        -0.1800 
      2 C           3.0536   -8.8343  -45.2022 C.2       0 UNK         0.5000 
      3 O           3.9716   -9.6194  -44.9679 O.2       0 UNK        -0.5000 
      4 N           1.7691   -9.2134  -45.2384 N.am      1 UNK        -0.5000 
      5 CA          1.2856  -10.5936  -45.0748 C.3       1 UNK         0.1400 
      6 C6         -0.2124  -10.7154  -45.4569 C.3       23 UNK        -0.0398 
      7 S7         -0.6001  -12.3319  -46.2028 S.3       23 UNK        -0.2404 
      8 C8         -1.9787  -11.8944  -47.3038 C.3       23 UNK        -0.0205 
      9 C9         -2.4678  -13.1211  -48.0538 C.ar      23 UNK        -0.0193 
     10 C10        -2.0103  -13.3859  -49.3484 C.ar      23 UNK        -0.1150 
     11 C11        -2.4169  -14.5400  -50.0252 C.ar      23 UNK        -0.0193 
     12 C12        -3.3009  -15.4170  -49.3897 C.ar      23 UNK        -0.1150 
     13 C13        -3.7508  -15.1811  -48.0880 C.ar      23 UNK        -0.0193 
     14 C14        -3.3449  -14.0156  -47.4336 C.ar      23 UNK        -0.1150 
     15 C15        -4.5619  -16.2332  -47.3358 C.3       23 UNK        -0.0205 
     16 S16        -5.7540  -17.1466  -48.3700 S.3       23 UNK        -0.2404 
     17 C17        -6.0287  -18.6446  -47.3645 C.3       23 UNK        -0.0398 
     18 CA         -5.3780  -19.9041  -47.9944 C.3       11 UNK         0.1400 
     19 N          -3.9141  -19.8863  -47.8995 N.am      11 UNK        -0.5000 
     20 C          -3.1058  -20.6750  -48.6192 C.2       10 UNK         0.5000 
     21 O          -3.5116  -21.4012  -49.5255 O.2       10 UNK        -0.5000 
     22 CA         -1.6052  -20.6999  -48.2627 C.3       10 UNK         0.1400 
     23 CB         -0.7769  -20.0545  -49.3859 C.3       10 UNK        -0.1800 
     24 N          -1.2313  -20.1048  -46.9708 N.am      10 UNK        -0.5000 
     25 C          -1.6599  -20.5051  -45.7638 C.2       9 UNK         0.5000 
     26 O          -2.5530  -21.3365  -45.6025 O.2       9 UNK        -0.5000 
     27 CA         -1.0020  -19.8671  -44.5253 C.3       9 UNK         0.1400 
     28 CB          0.3191  -20.5731  -44.1857 C.3       9 UNK        -0.1800 
     29 N          -0.7500  -18.4389  -44.6840 N.am      9 UNK        -0.5000 
     30 C          -1.7005  -17.4981  -44.7459 C.2       8 UNK         0.5000 
     31 O          -2.9022  -17.7286  -44.6065 O.2       8 UNK        -0.5000 
     32 CA         -1.2269  -16.0634  -45.0494 C.3       8 UNK         0.1400 
     33 CB         -0.8279  -15.3374  -43.7554 C.3       8 UNK        -0.1800 
     34 N          -0.1194  -16.0126  -46.0086 N.am      8 UNK        -0.5000 
     35 C          -0.1725  -16.4928  -47.2610 C.2       7 UNK         0.5000 
     36 O          -1.1586  -17.0448  -47.7416 O.2       7 UNK        -0.5000 
     37 CA          1.1240  -16.4243  -48.0820 C.3       7 UNK         0.1400 
     38 CB          1.3661  -15.0086  -48.6278 C.3       7 UNK        -0.1800 
     39 N           2.2697  -16.8602  -47.2837 N.am      7 UNK        -0.5000 
     40 C           2.4894  -18.1367  -46.9306 C.2       6 UNK         0.5000 
     41 O           1.7854  -19.0760  -47.2998 O.2       6 UNK        -0.5000 
     42 CA          3.6641  -18.4134  -45.9712 C.3       6 UNK         0.1400 
     43 CB          4.9625  -18.6417  -46.7588 C.3       6 UNK        -0.1800 
     44 N           3.8730  -17.3408  -44.9990 N.am      6 UNK        -0.5000 
     45 C           2.9802  -16.9660  -44.0725 C.2       5 UNK         0.5000 
     46 O           1.9217  -17.5606  -43.8735 O.2       5 UNK        -0.5000 
     47 CA          3.2955  -15.6920  -43.2644 C.3       5 UNK         0.1400 
     48 CB          3.8294  -16.0521  -41.8707 C.3       5 UNK        -0.1800 
     49 N           4.2379  -14.7749  -43.9117 N.am      5 UNK        -0.5000 
     50 C           4.0611  -14.1677  -45.0929 C.2       4 UNK         0.5000 
     51 O           3.1104  -14.4042  -45.8400 O.2       4 UNK        -0.5000 
     52 CA          5.1328  -13.1327  -45.4937 C.3       4 UNK         0.1400 
     53 CB          4.8266  -12.4528  -46.8402 C.3       4 UNK        -0.1800 
     54 N           5.2880  -12.1012  -44.4676 N.am      4 UNK        -0.5000 
     55 C           5.9853  -12.2254  -43.3302 C.2       3 UNK         0.5000 
     56 O           6.6209  -13.2365  -43.0283 O.2       3 UNK        -0.5000 
     57 CA          5.9056  -11.0497  -42.3447 C.3       3 UNK         0.1400 
     58 CB          6.7493   -9.8600  -42.8298 C.3       3 UNK        -0.1800 
     59 N           4.5164  -10.6302  -42.1663 N.am      3 UNK        -0.5000 
     60 C           3.6680  -11.1764  -41.2830 C.2       2 UNK         0.5000 
     61 O           3.9942  -12.0338  -40.4614 O.2       2 UNK        -0.5000 
     62 CA          2.2049  -10.6901  -41.3247 C.3       2 UNK         0.1400 
     63 CB          2.0077   -9.4934  -40.3819 C.3       2 UNK        -0.1800 
     64 N           1.7704  -10.3156  -42.6711 N.am      2 UNK        -0.5000 
     65 C           1.5701  -11.1853  -43.6723 C.2       1 UNK         0.5000 
     66 O           1.6327  -12.4048  -43.5242 O.2       1 UNK        -0.5000 
     67 C          -6.0024  -21.1914  -47.4013 C.2       11 UNK         0.5000 
     68 O          -7.1579  -21.4741  -47.7208 O.2       11 UNK        -0.5000 
     69 N          -5.2715  -21.9426  -46.5595 N.am      12 UNK        -0.5000 
     70 CA         -5.7911  -23.1366  -45.8848 C.3       12 UNK         0.1400 
     71 CB         -6.3698  -22.7433  -44.5155 C.3       12 UNK        -0.1800 
     72 C          -4.7567  -24.2634  -45.7329 C.2       12 UNK         0.5000 
     73 O          -5.1139  -25.4283  -45.9198 O.2       12 UNK        -0.5000 
     74 N          -3.5040  -23.9254  -45.4009 N.am      13 UNK        -0.5000 
     75 CA         -2.4260  -24.8820  -45.1381 C.3       13 UNK         0.1400 
     76 CB         -1.1984  -24.1319  -44.6038 C.3       13 UNK        -0.1800 
     77 C          -2.0467  -25.6948  -46.3858 C.2       13 UNK         0.5000 
     78 O          -2.0707  -25.1547  -47.4935 O.2       13 UNK        -0.5000 
     79 N          -1.7059  -26.9744  -46.1752 N.am      14 UNK        -0.5000 
     80 CA         -1.3545  -27.9674  -47.1991 C.3       14 UNK         0.1400 
     81 CB          0.0058  -27.6241  -47.8427 C.3       14 UNK        -0.1800 
     82 C          -2.4789  -28.1659  -48.2380 C.2       14 UNK         0.5000 
     83 O          -2.2080  -28.2164  -49.4384 O.2       14 UNK        -0.5000 
     84 N          -3.7278  -28.2279  -47.7480 N.am      15 UNK        -0.5000 
     85 CA         -4.9752  -28.2818  -48.5208 C.3       15 UNK         0.1400 
     86 CB         -5.0990  -29.6247  -49.2718 C.3       15 UNK        -0.1800 
     87 C          -5.1222  -27.0563  -49.4454 C.2       15 UNK         0.5000 
     88 O          -5.3427  -27.2066  -50.6479 O.2       15 UNK        -0.5000 
     89 N          -4.9385  -25.8653  -48.8570 N.am      16 UNK        -0.5000 
     90 CA         -4.8809  -24.5540  -49.5102 C.3       16 UNK         0.1400 
     91 CB         -6.2789  -24.1382  -50.0105 C.3       16 UNK        -0.1800 
     92 C          -3.8018  -24.5091  -50.6099 C.2       16 UNK         0.5000 
     93 O          -4.1065  -24.2137  -51.7658 O.2       16 UNK        -0.5000 
     94 N          -2.5657  -24.8593  -50.2271 N.am      17 UNK        -0.5000 
     95 CA         -1.3694  -24.9486  -51.0683 C.3       17 UNK         0.1400 
     96 CB         -0.8929  -23.5331  -51.4553 C.3       17 UNK        -0.1800 
     97 C          -1.5696  -25.8768  -52.2852 C.2       17 UNK         0.5000 
     98 O          -1.3209  -25.4705  -53.4203 O.2       17 UNK        -0.5000 
     99 N          -2.0646  -27.0954  -52.0234 N.am      18 UNK        -0.5000 
    100 CA        -2.4617  -28.1159  -53.0000 C.3       18 UNK         0.1400 
    101 CB        -1.2248  -28.6951  -53.7174 C.3       18 UNK        -0.1800 
    102 C         -3.5496  -27.6071  -53.9714 C.2       18 UNK         0.5000 
    103 O         -3.4415  -27.7905  -55.1852 O.2       18 UNK        -0.5000 
    104 N         -4.5688  -26.9521  -53.3991 N.am      19 UNK        -0.5000 
    105 CA        -5.7241  -26.3225  -54.0436 C.3       19 UNK         0.1400 
    106 CB        -6.5918  -27.3742  -54.7656 C.3       19 UNK        -0.1800 
    107 C         -5.3920  -25.1092  -54.9413 C.2       19 UNK         0.5000 
    108 O         -6.2564  -24.6775  -55.7066 O.2       19 UNK        -0.5000 
    109 N         -4.1778  -24.5510  -54.8277 N.am      20 UNK        -0.5000 
    110 CA        -3.7787  -23.3167  -55.5093 C.3       20 UNK         0.1400 
    111 CB        -2.2472  -23.2173  -55.5485 C.3       20 UNK        -0.1800 
    112 C         -4.3752  -22.0616  -54.8458 C.2       20 UNK         0.5000 
    113 O         -4.5879  -21.0609  -55.5318 O.2       20 UNK        -0.5000 
    114 N         -4.6177  -22.1328  -53.5277 N.am      21 UNK        -0.5000 
    115 CA        -5.2442  -21.1249  -52.6668 C.3       21 UNK         0.1400 
    116 CB        -6.7596  -21.0680  -52.9447 C.3       21 UNK        -0.1800 
    117 C         -4.5679  -19.7396  -52.7253 C.2       21 UNK         0.5000 
    118 O         -5.2551  -18.7196  -52.6509 O.2       21 UNK        -0.5000 
    119 N         -3.2348  -19.7319  -52.8797 N.am      22 UNK        -0.5000 
    120 CA        -2.3989  -18.5328  -53.0737 C.3       22 UNK         0.1400 
    121 C         -2.5705  -17.8487  -54.4702 C.2       22 UNK         0.5000 
    122 N         -3.2297  -18.4661  -55.4446 N.am      22 UNK        -0.7600 
    123 O         -2.0736  -16.7498  -54.6977 O.2       22 UNK        -0.5000 
    124 C124       -2.5353  -17.5487  -51.8785 C.3       23 UNK        -0.0398 
    125 S125       -1.0885  -16.4740  -51.5738 S.3       23 UNK        -0.2404 
    126 C126       -1.8880  -14.8347  -51.4284 C.3       23 UNK        -0.0205 
    127 H127        2.4502   -6.7840  -45.6136 H         1 UNK         0.0600 
    128 H128        4.0080   -7.2494  -46.3040 H         1 UNK         0.0600 
    129 H129        3.8668   -6.9425  -44.5700 H         1 UNK         0.0600 
    130 H130        1.0597   -8.5173  -45.4201 H         1 UNK         0.3000 
    131 H131        1.8651  -11.1929  -45.7800 H         1 UNK         0.0600 
    132 H132       -0.8683  -10.5397  -44.6022 H         1 UNK         0.0800 
    133 H133       -0.4715   -9.9511  -46.1909 H         1 UNK         0.0800 
    134 H134       -2.7937  -11.4663  -46.7181 H         1 UNK         0.0800 
    135 H135       -1.6583  -11.1235  -48.0064 H         1 UNK         0.0800 
    136 H136       -1.3191  -12.7013  -49.8196 H         1 UNK         0.1150 
    137 H137       -3.6047  -16.3235  -49.8811 H         1 UNK         0.1150 
    138 H138       -3.6679  -13.8270  -46.4195 H         1 UNK         0.1150 
    139 H139       -3.8501  -16.9443  -46.9191 H         1 UNK         0.0800 
    140 H140       -5.0928  -15.7854  -46.4945 H         1 UNK         0.0800 
    141 H141       -7.1113  -18.7648  -47.2890 H         1 UNK         0.0800 
    142 H142       -5.6737  -18.4916  -46.3438 H         1 UNK         0.0800 
    143 H143       -5.6375  -19.9122  -49.0558 H         1 UNK         0.0600 
    144 H144       -3.5044  -19.3090  -47.1793 H         1 UNK         0.3000 
    145 H145       -1.3275  -21.7548  -48.2123 H         1 UNK         0.0600 
    146 H146        0.2894  -20.2202  -49.2355 H         1 UNK         0.0600 
    147 H147       -1.0329  -20.4742  -50.3595 H         1 UNK         0.0600 
    148 H148       -0.9448  -18.9801  -49.4445 H         1 UNK         0.0600 
    149 H149       -0.5152  -19.3899  -47.0100 H         1 UNK         0.3000 
    150 H150       -1.6831  -19.9986  -43.6819 H         1 UNK         0.0600 
    151 H151        0.1616  -21.6341  -43.9957 H         1 UNK         0.0600 
    152 H152        0.7725  -20.1495  -43.2893 H         1 UNK         0.0600 
    153 H153        1.0425  -20.4874  -44.9971 H         1 UNK         0.0600 
    154 H154        0.2213  -18.1461  -44.7240 H         1 UNK         0.3000 
    155 H155       -2.0655  -15.5266  -45.4921 H         1 UNK         0.0600 
    156 H156       -1.6739  -15.2764  -43.0700 H         1 UNK         0.0600 
    157 H157       -0.4977  -14.3181  -43.9538 H         1 UNK         0.0600 
    158 H158       -0.0231  -15.8529  -43.2325 H         1 UNK         0.0600 
    159 H159        0.7383  -15.5802  -45.6955 H         1 UNK         0.3000 
    160 H160        1.0213  -17.0987  -48.9353 H         1 UNK         0.0600 
    161 H161        1.3912  -14.2622  -47.8336 H         1 UNK         0.0600 
    162 H162        0.5707  -14.7229  -49.3160 H         1 UNK         0.0600 
    163 H163        2.3064  -14.9498  -49.1756 H         1 UNK         0.0600 
    164 H164        2.8393  -16.1253  -46.8779 H         1 UNK         0.3000 
    165 H165        3.4323  -19.3263  -45.4185 H         1 UNK         0.0600 
    166 H166        5.7836  -18.9151  -46.0960 H         1 UNK         0.0600 
    167 H167        4.8438  -19.4523  -47.4791 H         1 UNK         0.0600 
    168 H168        5.2594  -17.7505  -47.3133 H         1 UNK         0.0600 
    169 H169        4.7179  -16.7972  -45.0919 H         1 UNK         0.3000 
    170 H170        2.3556  -15.1511  -43.1395 H         1 UNK         0.0600 
    171 H171        3.1369  -16.7103  -41.3440 H         1 UNK         0.0600 
    172 H172        4.7910  -16.5636  -41.9289 H         1 UNK         0.0600 
    173 H173        3.9590  -15.1602  -41.2568 H         1 UNK         0.0600 
    174 H174        5.0562  -14.5107  -43.3741 H         1 UNK         0.3000 
    175 H175        6.0770  -13.6702  -45.6020 H         1 UNK         0.0600 
    176 H176        3.8881  -11.8995  -46.8085 H         1 UNK         0.0600 
    177 H177        5.6160  -11.7538  -47.1166 H         1 UNK         0.0600 
    178 H178        4.7479  -13.1878  -47.6422 H         1 UNK         0.0600 
    179 H179        4.7839  -11.2324  -44.6316 H         1 UNK         0.3000 
    180 H180        6.3144  -11.3802  -41.3874 H         1 UNK         0.0600 
    181 H181        6.4015   -9.4746  -43.7886 H         1 UNK         0.0600 
    182 H182        7.7937  -10.1492  -42.9528 H         1 UNK         0.0600 
    183 H183        6.7215   -9.0407  -42.1113 H         1 UNK         0.0600 
    184 H184        4.1550   -9.9792  -42.8514 H         1 UNK         0.3000 
    185 H185        1.5723  -11.5087  -40.9746 H         1 UNK         0.0600 
    186 H186        2.3013   -9.7476  -39.3625 H         1 UNK         0.0600 
    187 H187        2.6042   -8.6340  -40.6906 H         1 UNK         0.0600 
    188 H188        0.9628   -9.1840  -40.3502 H         1 UNK         0.0600 
    189 H189        1.6930   -9.3288  -42.8693 H         1 UNK         0.3000 
    190 H190       -4.3194  -21.6645  -46.3401 H         1 UNK         0.3000 
    191 H191       -6.6015  -23.5644  -46.4792 H         1 UNK         0.0600 
    192 H192       -7.1989  -22.0440  -44.6243 H         1 UNK         0.0600 
    193 H193       -6.7500  -23.6165  -43.9838 H         1 UNK         0.0600 
    194 H194       -5.6160  -22.2732  -43.8826 H         1 UNK         0.0600 
    195 H195       -3.2446  -22.9438  -45.3375 H         1 UNK         0.3000 
    196 H196       -2.7764  -25.5672  -44.3634 H         1 UNK         0.0600 
    197 H197       -0.4120  -24.8278  -44.3091 H         1 UNK         0.0600 
    198 H198       -1.4502  -23.5346  -43.7274 H         1 UNK         0.0600 
    199 H199       -0.7785  -23.4668  -45.3593 H         1 UNK         0.0600 
    200 H200       -1.7147  -27.3208  -45.2256 H         1 UNK         0.3000 
    201 H201       -1.2439  -28.9229  -46.6844 H         1 UNK         0.0600 
    202 H202        0.7837  -27.5214  -47.0863 H         1 UNK         0.0600 
    203 H203       -0.0348  -26.6932  -48.4082 H         1 UNK         0.0600 
    204 H204        0.3237  -28.4097  -48.5290 H         1 UNK         0.0600 
    205 H205       -3.8417  -28.1445  -46.7474 H         1 UNK         0.3000 
    206 H206       -5.7935  -28.2270  -47.8013 H         1 UNK         0.0600 
    207 H207       -5.0070  -30.4683  -48.5880 H         1 UNK         0.0600 
    208 H208       -6.0701  -29.7078  -49.7612 H         1 UNK         0.0600 
    209 H209       -4.3362  -29.7338  -50.0433 H         1 UNK         0.0600 
    210 H210       -4.7622  -25.8594  -47.8579 H         1 UNK         0.3000 
    211 H211       -4.5731  -23.8369  -48.7490 H         1 UNK         0.0600 
    212 H212       -6.6354  -24.7862  -50.8116 H         1 UNK         0.0600 
    213 H213       -6.2667  -23.1181  -50.3933 H         1 UNK         0.0600 
    214 H214       -7.0098  -24.1683  -49.2025 H         1 UNK         0.0600 
    215 H215       -2.4199  -25.0762  -49.2414 H         1 UNK         0.3000 
    216 H216       -0.5911  -25.4059  -50.4566 H         1 UNK         0.0600 
    217 H217        0.0287  -23.5730  -52.0369 H         1 UNK         0.0600 
    218 H218       -0.6901  -22.9357  -50.5670 H         1 UNK         0.0600 
    219 H219       -1.6364  -23.0029  -52.0508 H         1 UNK         0.0600 
    220 H220       -2.2195  -27.3534  -51.0497 H         1 UNK         0.3000 
    221 H221       -2.9184  -28.9234  -52.4257 H         1 UNK         0.0600 
    222 H222       -0.7343  -27.9517  -54.3463 H         1 UNK         0.0600 
    223 H223       -0.4918  -29.0645  -53.0003 H         1 UNK         0.0600 
    224 H224       -1.5026  -29.5329  -54.3579 H         1 UNK         0.0600 
    225 H225       -4.5751  -26.8817  -52.3841 H         1 UNK         0.3000 
    226 H226       -6.3204  -25.9190  -53.2240 H         1 UNK         0.0600 
    227 H227       -6.8321  -28.2071  -54.1047 H         1 UNK         0.0600 
    228 H228       -7.5373  -26.9431  -55.0964 H         1 UNK         0.0600 
    229 H229       -6.0919  -27.7767  -55.6469 H         1 UNK         0.0600 
    230 H230       -3.5203  -24.9446  -54.1657 H         1 UNK         0.3000 
    231 H231       -4.1394  -23.3549  -56.5393 H         1 UNK         0.0600 
    232 H232       -1.8250  -23.1073  -54.5495 H         1 UNK         0.0600 
    233 H233       -1.9283  -22.3540  -56.1338 H         1 UNK         0.0600 
    234 H234       -1.8043  -24.1029  -56.0047 H         1 UNK         0.0600 
    235 H235       -4.3789  -22.9991  -53.0448 H         1 UNK         0.3000 
    236 H236       -5.1108  -21.4756  -51.6441 H         1 UNK         0.0600 
    237 H237       -7.2111  -22.0567  -52.8603 H         1 UNK         0.0600 
    238 H238       -7.2670  -20.4196  -52.2296 H         1 UNK         0.0600 
    239 H239       -6.9704  -20.6869  -53.9444 H         1 UNK         0.0600 
    240 H240       -2.7600  -20.6202  -52.9448 H         1 UNK         0.3000 
    241 H241       -1.3755  -18.9089  -53.0703 H         1 UNK         0.0600 
    242 H242       -3.3172  -18.0101  -56.3385 H         1 UNK         0.3800 
    243 H243       -3.6694  -19.3710  -55.3052 H         1 UNK         0.3800 
    244 H244       -3.4315  -16.9416  -52.0098 H         1 UNK         0.0800 
    245 H245       -2.6906  -18.1144  -50.9586 H         1 UNK         0.0800 
    246 H246       -1.1496  -14.0838  -51.7126 H         1 UNK         0.0800 
    247 H247       -2.6988  -14.7440  -52.1522 H         1 UNK         0.0800 
@<TRIPOS>BOND
     1    1    2 1    
     2    1  127 1    
     3    1  128 1    
     4    1  129 1    
     5    2    3 2    
     6    2    4 am   BACKBONE|DICT|INTERRES
     7    4    5 1    
     8    4  130 1    
     9    5    6 1    
    10    5   65 1    
    11    5  131 1    
    12    6    7 1    
    13    6  132 1    
    14    6  133 1    
    15    7    8 1    
    16    8    9 1    
    17    8  134 1    
    18    8  135 1    
    19    9   10 ar   
    20    9   14 ar   
    21   10   11 ar   
    22   10  136 1    
    23   11   12 ar   
    24   11  126 1    
    25   12   13 ar   
    26   12  137 1    
    27   13   14 ar   
    28   13   15 1    
    29   14  138 1    
    30   15   16 1    
    31   15  139 1    
    32   15  140 1    
    33   16   17 1    
    34   17   18 1    
    35   17  141 1    
    36   17  142 1    
    37   18   19 1    
    38   18   67 1    
    39   18  143 1    
    40   19   20 am   BACKBONE|DICT|INTERRES
    41   19  144 1    
    42   20   21 2    
    43   20   22 1    
    44   22   23 1    
    45   22   24 1    
    46   22  145 1    
    47   23  146 1    
    48   23  147 1    
    49   23  148 1    
    50   24   25 am   BACKBONE|DICT|INTERRES
    51   24  149 1    
    52   25   26 2    
    53   25   27 1    
    54   27   28 1    
    55   27   29 1    
    56   27  150 1    
    57   28  151 1    
    58   28  152 1    
    59   28  153 1    
    60   29   30 am   BACKBONE|DICT|INTERRES
    61   29  154 1    
    62   30   31 2    
    63   30   32 1    
    64   32   33 1    
    65   32   34 1    
    66   32  155 1    
    67   33  156 1    
    68   33  157 1    
    69   33  158 1    
    70   34   35 am   BACKBONE|DICT|INTERRES
    71   34  159 1    
    72   35   36 2    
    73   35   37 1    
    74   37   38 1    
    75   37   39 1    
    76   37  160 1    
    77   38  161 1    
    78   38  162 1    
    79   38  163 1    
    80   39   40 am   BACKBONE|DICT|INTERRES
    81   39  164 1    
    82   40   41 2    
    83   40   42 1    
    84   42   43 1    
    85   42   44 1    
    86   42  165 1    
    87   43  166 1    
    88   43  167 1    
    89   43  168 1    
    90   44   45 am   BACKBONE|DICT|INTERRES
    91   44  169 1    
    92   45   46 2    
    93   45   47 1    
    94   47   48 1    
    95   47   49 1    
    96   47  170 1    
    97   48  171 1    
    98   48  172 1    
    99   48  173 1    
   100   49   50 am   BACKBONE|DICT|INTERRES
   101   49  174 1    
   102   50   51 2    
   103   50   52 1    
   104   52   53 1    
   105   52   54 1    
   106   52  175 1    
   107   53  176 1    
   108   53  177 1    
   109   53  178 1    
   110   54   55 am   BACKBONE|DICT|INTERRES
   111   54  179 1    
   112   55   56 2    
   113   55   57 1    
   114   57   58 1    
   115   57   59 1    
   116   57  180 1    
   117   58  181 1    
   118   58  182 1    
   119   58  183 1    
   120   59   60 am   BACKBONE|DICT|INTERRES
   121   59  184 1    
   122   60   61 2    
   123   60   62 1    
   124   62   63 1    
   125   62   64 1    
   126   62  185 1    
   127   63  186 1    
   128   63  187 1    
   129   63  188 1    
   130   64   65 am   BACKBONE|DICT|INTERRES
   131   64  189 1    
   132   65   66 2    
   133   67   68 2    
   134   67   69 am   BACKBONE|DICT|INTERRES
   135   69   70 1    
   136   69  190 1    
   137   70   71 1    
   138   70   72 1    
   139   70  191 1    
   140   71  192 1    
   141   71  193 1    
   142   71  194 1    
   143   72   73 2    
   144   72   74 am   BACKBONE|DICT|INTERRES
   145   74   75 1    
   146   74  195 1    
   147   75   76 1    
   148   75   77 1    
   149   75  196 1    
   150   76  197 1    
   151   76  198 1    
   152   76  199 1    
   153   77   78 2    
   154   77   79 am   BACKBONE|DICT|INTERRES
   155   79   80 1    
   156   79  200 1    
   157   80   81 1    
   158   80   82 1    
   159   80  201 1    
   160   81  202 1    
   161   81  203 1    
   162   81  204 1    
   163   82   83 2    
   164   82   84 am   BACKBONE|DICT|INTERRES
   165   84   85 1    
   166   84  205 1    
   167   85   86 1    
   168   85   87 1    
   169   85  206 1    
   170   86  207 1    
   171   86  208 1    
   172   86  209 1    
   173   87   88 2    
   174   87   89 am   BACKBONE|DICT|INTERRES
   175   89   90 1    
   176   89  210 1    
   177   90   91 1    
   178   90   92 1    
   179   90  211 1    
   180   91  212 1    
   181   91  213 1    
   182   91  214 1    
   183   92   93 2    
   184   92   94 am   BACKBONE|DICT|INTERRES
   185   94   95 1    
   186   94  215 1    
   187   95   96 1    
   188   95   97 1    
   189   95  216 1    
   190   96  217 1    
   191   96  218 1    
   192   96  219 1    
   193   97   98 2    
   194   97   99 am   BACKBONE|DICT|INTERRES
   195   99  100 1    
   196   99  220 1    
   197  100  101 1    
   198  100  102 1    
   199  100  221 1    
   200  101  222 1    
   201  101  223 1    
   202  101  224 1    
   203  102  103 2    
   204  102  104 am   BACKBONE|DICT|INTERRES
   205  104  105 1    
   206  104  225 1    
   207  105  106 1    
   208  105  107 1    
   209  105  226 1    
   210  106  227 1    
   211  106  228 1    
   212  106  229 1    
   213  107  108 2    
   214  107  109 am   BACKBONE|DICT|INTERRES
   215  109  110 1    
   216  109  230 1    
   217  110  111 1    
   218  110  112 1    
   219  110  231 1    
   220  111  232 1    
   221  111  233 1    
   222  111  234 1    
   223  112  113 2    
   224  112  114 am   BACKBONE|DICT|INTERRES
   225  114  115 1    
   226  114  235 1    
   227  115  116 1    
   228  115  117 1    
   229  115  236 1    
   230  116  237 1    
   231  116  238 1    
   232  116  239 1    
   233  117  118 2    
   234  117  119 am   BACKBONE|DICT|INTERRES
   235  119  120 1    
   236  119  240 1    
   237  120  121 1    
   238  120  124 1    
   239  120  241 1    
   240  121  122 am   BACKBONE|DICT|INTERRES
   241  121  123 2    
   242  122  242 1    
   243  122  243 1    
   244  124  125 1    
   245  124  244 1    
   246  124  245 1    
   247  125  126 1    
   248  126  246 1    
   249  126  247 1    
@<TRIPOS>SUBSTRUCTURE
     1 UNK         1 GROUP             0       ****    0 ROOT    
