@<TRIPOS>MOLECULE
3R540
247   249    1
SMALL
USER_CHARGES


@<TRIPOS>ATOM
      1 CA         -1.9701   -8.7465  -44.6781 C.3       0 UNK        -0.1800 
      2 C          -1.6986  -10.1509  -45.1969 C.2       0 UNK         0.5000 
      3 O          -1.6296  -10.3546  -46.4093 O.2       0 UNK        -0.5000 
      4 N          -1.5230  -11.1200  -44.2863 N.am      1 UNK        -0.5000 
      5 CA         -1.2851  -12.5377  -44.5973 C.3       1 UNK         0.1400 
      6 C6         -1.4179  -13.4341  -43.3388 C.3       23 UNK        -0.0398 
      7 S7         -1.9397  -15.1332  -43.7549 S.3       23 UNK        -0.2404 
      8 C8         -3.7476  -14.9639  -43.6671 C.3       23 UNK        -0.0205 
      9 C9         -4.4392  -16.0032  -44.5339 C.ar      23 UNK        -0.0193 
     10 C10        -4.8059  -15.6875  -45.8447 C.ar      23 UNK        -0.1150 
     11 C11        -5.4731  -16.6239  -46.6377 C.ar      23 UNK        -0.0193 
     12 C12        -5.7417  -17.8942  -46.1222 C.ar      23 UNK        -0.1150 
     13 C13        -5.3696  -18.2332  -44.8176 C.ar      23 UNK        -0.0193 
     14 C14        -4.7330  -17.2701  -44.0220 C.ar      23 UNK        -0.1150 
     15 C15        -5.7175  -19.6317  -44.3056 C.3       23 UNK        -0.0205 
     16 S16        -4.7261  -20.2469  -42.8992 S.3       23 UNK        -0.2404 
     17 C17        -3.0286  -20.2422  -43.5720 C.3       23 UNK        -0.0398 
     18 CA         -2.7325  -21.3325  -44.6283 C.3       11 UNK         0.1400 
     19 N          -1.4111  -21.1234  -45.2272 N.am      11 UNK        -0.5000 
     20 C          -0.8673  -21.8468  -46.2132 C.2       10 UNK         0.5000 
     21 O          -1.4383  -22.7820  -46.7683 O.2       10 UNK        -0.5000 
     22 CA          0.5694  -21.5006  -46.6209 C.3       10 UNK         0.1400 
     23 CB          0.5909  -20.2660  -47.5321 C.3       10 UNK        -0.1800 
     24 N           1.4069  -21.2911  -45.4410 N.am      10 UNK        -0.5000 
     25 C           1.8679  -22.2897  -44.6721 C.2       9 UNK         0.5000 
     26 O           1.7287  -23.4808  -44.9486 O.2       9 UNK        -0.5000 
     27 CA          2.5696  -21.9033  -43.3566 C.3       9 UNK         0.1400 
     28 CB          4.0913  -21.8335  -43.5421 C.3       9 UNK        -0.1800 
     29 N           2.0885  -20.6355  -42.8077 N.am      9 UNK        -0.5000 
     30 C           0.8864  -20.4753  -42.2366 C.2       8 UNK         0.5000 
     31 O           0.0681  -21.3855  -42.1015 O.2       8 UNK        -0.5000 
     32 CA          0.5134  -19.0456  -41.7981 C.3       8 UNK         0.1400 
     33 CB          1.0450  -18.7561  -40.3871 C.3       8 UNK        -0.1800 
     34 N           0.9935  -18.0121  -42.7192 N.am      8 UNK        -0.5000 
     35 C           0.6610  -17.9316  -44.0148 C.2       7 UNK         0.5000 
     36 O          -0.0936  -18.7334  -44.5638 O.2       7 UNK        -0.5000 
     37 CA          1.2834  -16.8003  -44.8518 C.3       7 UNK         0.1400 
     38 CB          1.9831  -15.7047  -44.0145 C.3       7 UNK        -0.1800 
     39 N           2.1873  -17.3241  -45.8789 N.am      7 UNK        -0.5000 
     40 C           3.3306  -18.0006  -45.6915 C.2       6 UNK         0.5000 
     41 O           3.7297  -18.3561  -44.5813 O.2       6 UNK        -0.5000 
     42 CA          4.1797  -18.3455  -46.9371 C.3       6 UNK         0.1400 
     43 CB          4.5780  -19.8308  -46.9623 C.3       6 UNK        -0.1800 
     44 N           3.5307  -18.0141  -48.2072 N.am      6 UNK        -0.5000 
     45 C           3.5352  -16.8121  -48.7980 C.2       5 UNK         0.5000 
     46 O           4.1087  -15.8259  -48.3352 O.2       5 UNK        -0.5000 
     47 CA          2.7550  -16.6822  -50.1257 C.3       5 UNK         0.1400 
     48 CB          2.4672  -18.0368  -50.8151 C.3       5 UNK        -0.1800 
     49 N           1.5106  -15.9227  -49.9649 N.am      5 UNK        -0.5000 
     50 C           0.5157  -16.1716  -49.1015 C.2       4 UNK         0.5000 
     51 O           0.5358  -17.0963  -48.2899 O.2       4 UNK        -0.5000 
     52 CA         -0.6927  -15.2187  -49.1569 C.3       4 UNK         0.1400 
     53 CB         -1.7859  -15.5885  -48.1363 C.3       4 UNK        -0.1800 
     54 N          -0.2765  -13.8340  -48.9362 N.am      4 UNK        -0.5000 
     55 C           0.1332  -12.9871  -49.8914 C.2       3 UNK         0.5000 
     56 O           0.2323  -13.3091  -51.0760 O.2       3 UNK        -0.5000 
     57 CA          0.5061  -11.5503  -49.4699 C.3       3 UNK         0.1400 
     58 CB         -0.6667  -10.5951  -49.7370 C.3       3 UNK        -0.1800 
     59 N           0.8930  -11.4465  -48.0631 N.am      3 UNK        -0.5000 
     60 C           2.0677  -11.8664  -47.5694 C.2       2 UNK         0.5000 
     61 O           2.9885  -12.2797  -48.2742 O.2       2 UNK        -0.5000 
     62 CA          2.2466  -11.8420  -46.0343 C.3       2 UNK         0.1400 
     63 CB          3.0765  -10.6210  -45.6097 C.3       2 UNK        -0.1800 
     64 N           0.9901  -11.8443  -45.2775 N.am      2 UNK        -0.5000 
     65 C           0.0407  -12.7887  -45.3529 C.2       1 UNK         0.5000 
     66 O           0.1595  -13.7970  -46.0444 O.2       1 UNK        -0.5000 
     67 C          -2.8954  -22.7650  -44.0740 C.2       11 UNK         0.5000 
     68 O          -3.8911  -23.4254  -44.3751 O.2       11 UNK        -0.5000 
     69 N          -1.8682  -23.2521  -43.3624 N.am      12 UNK        -0.5000 
     70 CA         -1.7603  -24.6266  -42.8629 C.3       12 UNK         0.1400 
     71 CB         -0.5205  -24.7244  -41.9608 C.3       12 UNK        -0.1800 
     72 C          -1.7036  -25.7051  -43.9682 C.2       12 UNK         0.5000 
     73 O          -1.9902  -26.8694  -43.6882 O.2       12 UNK        -0.5000 
     74 N          -1.3509  -25.3029  -45.1949 N.am      13 UNK        -0.5000 
     75 CA         -1.2681  -26.1368  -46.3919 C.3       13 UNK         0.1400 
     76 CB          0.1262  -25.9468  -47.0150 C.3       13 UNK        -0.1800 
     77 C          -2.4017  -25.8148  -47.3898 C.2       13 UNK         0.5000 
     78 O          -2.2433  -26.0659  -48.5853 O.2       13 UNK        -0.5000 
     79 N          -3.5189  -25.2579  -46.8935 N.am      14 UNK        -0.5000 
     80 CA         -4.7403  -24.9115  -47.6318 C.3       14 UNK         0.1400 
     81 CB         -5.4516  -26.1867  -48.1317 C.3       14 UNK        -0.1800 
     82 C          -4.4912  -23.8792  -48.7518 C.2       14 UNK         0.5000 
     83 O          -4.8723  -24.1006  -49.9019 O.2       14 UNK        -0.5000 
     84 N          -3.8293  -22.7762  -48.3768 N.am      15 UNK        -0.5000 
     85 CA         -3.3523  -21.6858  -49.2350 C.3       15 UNK         0.1400 
     86 CB         -4.5181  -20.9626  -49.9360 C.3       15 UNK        -0.1800 
     87 C          -2.2390  -22.1600  -50.1924 C.2       15 UNK         0.5000 
     88 O          -2.2392  -21.8210  -51.3813 O.2       15 UNK        -0.5000 
     89 N          -1.3061  -22.9362  -49.6180 N.am      16 UNK        -0.5000 
     90 CA         -0.1318  -23.5538  -50.2377 C.3       16 UNK         0.1400 
     91 CB          0.9357  -22.4851  -50.5398 C.3       16 UNK        -0.1800 
     92 C          -0.5027  -24.4217  -51.4539 C.2       16 UNK         0.5000 
     93 O           0.0803  -24.2661  -52.5298 O.2       16 UNK        -0.5000 
     94 N          -1.5124  -25.2822  -51.2586 N.am      17 UNK        -0.5000 
     95 CA         -2.2079  -26.1368  -52.2264 C.3       17 UNK         0.1400 
     96 CB         -1.2651  -27.2061  -52.8114 C.3       17 UNK        -0.1800 
     97 C          -2.9341  -25.3472  -53.3334 C.2       17 UNK         0.5000 
     98 O          -4.1544  -25.4527  -53.4609 O.2       17 UNK        -0.5000 
     99 N          -2.1682  -24.5716  -54.1046 N.am      18 UNK        -0.5000 
    100 CA        -2.6267  -23.6874  -55.1697 C.3       18 UNK         0.1400 
    101 CB        -2.9037  -24.5084  -56.4443 C.3       18 UNK        -0.1800 
    102 C         -1.6396  -22.5333  -55.4425 C.2       18 UNK         0.5000 
    103 O         -1.8704  -21.7751  -56.3852 O.2       18 UNK        -0.5000 
    104 N         -0.5533  -22.4050  -54.6605 N.am      19 UNK        -0.5000 
    105 CA         0.4620  -21.3687  -54.8705 C.3       19 UNK         0.1400 
    106 CB         1.7815  -21.7716  -54.1986 C.3       19 UNK        -0.1800 
    107 C         -0.0010  -19.9743  -54.4097 C.2       19 UNK         0.5000 
    108 O          0.3430  -18.9905  -55.0664 O.2       19 UNK        -0.5000 
    109 N         -0.7903  -19.9088  -53.3262 N.am      20 UNK        -0.5000 
    110 CA        -1.5051  -18.6943  -52.9262 C.3       20 UNK         0.1400 
    111 CB        -1.4533  -18.5038  -51.4007 C.3       20 UNK        -0.1800 
    112 C         -2.9527  -18.7552  -53.4371 C.2       20 UNK         0.5000 
    113 O         -3.4196  -17.7875  -54.0374 O.2       20 UNK        -0.5000 
    114 N         -3.6230  -19.8982  -53.2065 N.am      21 UNK        -0.5000 
    115 CA        -4.9825  -20.2444  -53.6562 C.3       21 UNK         0.1400 
    116 CB        -5.0272  -20.3738  -55.1930 C.3       21 UNK        -0.1800 
    117 C         -6.1023  -19.3108  -53.1386 C.2       21 UNK         0.5000 
    118 O         -7.1981  -19.3034  -53.7020 O.2       21 UNK        -0.5000 
    119 N         -5.8181  -18.5375  -52.0849 N.am      22 UNK        -0.5000 
    120 CA        -6.7087  -17.5137  -51.5202 C.3       22 UNK         0.1400 
    121 C         -7.8905  -18.0484  -50.6563 C.2       22 UNK         0.5000 
    122 N         -7.9651  -19.3381  -50.3513 N.am      22 UNK        -0.7600 
    123 O         -8.7642  -17.2780  -50.2678 O.2       22 UNK        -0.5000 
    124 C124       -5.8942  -16.4068  -50.8035 C.3       23 UNK        -0.0398 
    125 S125       -4.9563  -16.9915  -49.3468 S.3       23 UNK        -0.2404 
    126 C126       -5.9613  -16.2470  -48.0265 C.3       23 UNK        -0.0205 
    127 H127       -2.9321   -8.3909  -45.0471 H         1 UNK         0.0600 
    128 H128       -1.9897   -8.7129  -43.5886 H         1 UNK         0.0600 
    129 H129       -1.1963   -8.0623  -45.0263 H         1 UNK         0.0600 
    130 H130       -1.5766  -10.8856  -43.3049 H         1 UNK         0.3000 
    131 H131       -2.0812  -12.8188  -45.2910 H         1 UNK         0.0600 
    132 H132       -0.4824  -13.4725  -42.7780 H         1 UNK         0.0800 
    133 H133       -2.1544  -13.0198  -42.6488 H         1 UNK         0.0800 
    134 H134       -4.0703  -15.0595  -42.6293 H         1 UNK         0.0800 
    135 H135       -4.0438  -13.9646  -43.9901 H         1 UNK         0.0800 
    136 H136       -4.5913  -14.7043  -46.2393 H         1 UNK         0.1150 
    137 H137       -6.2588  -18.6159  -46.7395 H         1 UNK         0.1150 
    138 H138       -4.4575  -17.4981  -43.0027 H         1 UNK         0.1150 
    139 H139       -6.7651  -19.6273  -44.0023 H         1 UNK         0.0800 
    140 H140       -5.6427  -20.3526  -45.1208 H         1 UNK         0.0800 
    141 H141       -2.3443  -20.3425  -42.7295 H         1 UNK         0.0800 
    142 H142       -2.8248  -19.2581  -43.9949 H         1 UNK         0.0800 
    143 H143       -3.4529  -21.2187  -45.4401 H         1 UNK         0.0600 
    144 H144       -0.8827  -20.3261  -44.8769 H         1 UNK         0.3000 
    145 H145        0.9673  -22.3436  -47.1896 H         1 UNK         0.0600 
    146 H146        1.5909  -20.0742  -47.9143 H         1 UNK         0.0600 
    147 H147       -0.0620  -20.4009  -48.3952 H         1 UNK         0.0600 
    148 H148        0.2510  -19.3710  -47.0143 H         1 UNK         0.0600 
    149 H149        1.4995  -20.3411  -45.1099 H         1 UNK         0.3000 
    150 H150        2.3574  -22.6928  -42.6322 H         1 UNK         0.0600 
    151 H151        4.4780  -22.7574  -43.9742 H         1 UNK         0.0600 
    152 H152        4.5965  -21.6844  -42.5878 H         1 UNK         0.0600 
    153 H153        4.3772  -21.0155  -44.2009 H         1 UNK         0.0600 
    154 H154        2.6868  -19.8280  -42.9266 H         1 UNK         0.3000 
    155 H155       -0.5758  -18.9810  -41.7704 H         1 UNK         0.0600 
    156 H156        0.6865  -19.5005  -39.6749 H         1 UNK         0.0600 
    157 H157        0.7105  -17.7812  -40.0319 H         1 UNK         0.0600 
    158 H158        2.1352  -18.7698  -40.3561 H         1 UNK         0.0600 
    159 H159        1.6379  -17.3314  -42.3447 H         1 UNK         0.3000 
    160 H160        0.4558  -16.3351  -45.3879 H         1 UNK         0.0600 
    161 H161        2.8342  -16.0861  -43.4501 H         1 UNK         0.0600 
    162 H162        1.2893  -15.2499  -43.3070 H         1 UNK         0.0600 
    163 H163        2.3515  -14.9066  -44.6581 H         1 UNK         0.0600 
    164 H164        1.8722  -17.1699  -46.8322 H         1 UNK         0.3000 
    165 H165        5.0991  -17.7619  -46.8583 H         1 UNK         0.0600 
    166 H166        5.1335  -20.0761  -47.8677 H         1 UNK         0.0600 
    167 H167        5.2267  -20.0713  -46.1203 H         1 UNK         0.0600 
    168 H168        3.7118  -20.4895  -46.9121 H         1 UNK         0.0600 
    169 H169        3.0012  -18.7520  -48.6465 H         1 UNK         0.3000 
    170 H170        3.3884  -16.1002  -50.7967 H         1 UNK         0.0600 
    171 H171        1.8027  -18.6708  -50.2275 H         1 UNK         0.0600 
    172 H172        1.9989  -17.8860  -51.7881 H         1 UNK         0.0600 
    173 H173        3.3893  -18.5930  -50.9886 H         1 UNK         0.0600 
    174 H174        1.4098  -15.1104  -50.5613 H         1 UNK         0.3000 
    175 H175       -1.1329  -15.3128  -50.1516 H         1 UNK         0.0600 
    176 H176       -1.4227  -15.5459  -47.1097 H         1 UNK         0.0600 
    177 H177       -2.6450  -14.9225  -48.2160 H         1 UNK         0.0600 
    178 H178       -2.1461  -16.6038  -48.3049 H         1 UNK         0.0600 
    179 H179       -0.2237  -13.5471  -47.9641 H         1 UNK         0.3000 
    180 H180        1.3488  -11.2322  -50.0873 H         1 UNK         0.0600 
    181 H181       -1.5486  -10.8698  -49.1569 H         1 UNK         0.0600 
    182 H182       -0.9496  -10.6084  -50.7904 H         1 UNK         0.0600 
    183 H183       -0.4055   -9.5676  -49.4833 H         1 UNK         0.0600 
    184 H184        0.1823  -11.1109  -47.4232 H         1 UNK         0.3000 
    185 H185        2.7983  -12.7435  -45.7614 H         1 UNK         0.0600 
    186 H186        2.5597   -9.6870  -45.8336 H         1 UNK         0.0600 
    187 H187        3.2900  -10.6404  -44.5408 H         1 UNK         0.0600 
    188 H188        4.0350  -10.5990  -46.1301 H         1 UNK         0.0600 
    189 H189        0.8082  -11.0338  -44.7040 H         1 UNK         0.3000 
    190 H190       -1.1004  -22.6296  -43.1274 H         1 UNK         0.3000 
    191 H191       -2.6445  -24.8297  -42.2557 H         1 UNK         0.0600 
    192 H192        0.3938  -24.5041  -42.5132 H         1 UNK         0.0600 
    193 H193       -0.5835  -24.0262  -41.1258 H         1 UNK         0.0600 
    194 H194       -0.4181  -25.7254  -41.5398 H         1 UNK         0.0600 
    195 H195       -1.1720  -24.3181  -45.3472 H         1 UNK         0.3000 
    196 H196       -1.3774  -27.1907  -46.1298 H         1 UNK         0.0600 
    197 H197        0.9076  -26.2530  -46.3194 H         1 UNK         0.0600 
    198 H198        0.3091  -24.9041  -47.2727 H         1 UNK         0.0600 
    199 H199        0.2481  -26.5437  -47.9196 H         1 UNK         0.0600 
    200 H200       -3.5302  -25.0256  -45.9078 H         1 UNK         0.3000 
    201 H201       -5.4039  -24.4275  -46.9137 H         1 UNK         0.0600 
    202 H202       -6.4147  -25.9443  -48.5823 H         1 UNK         0.0600 
    203 H203       -5.6428  -26.8784  -47.3113 H         1 UNK         0.0600 
    204 H204       -4.8633  -26.7131  -48.8840 H         1 UNK         0.0600 
    205 H205       -3.4731  -22.7572  -47.4294 H         1 UNK         0.3000 
    206 H206       -2.8845  -20.9610  -48.5670 H         1 UNK         0.0600 
    207 H207       -5.2957  -20.6865  -49.2237 H         1 UNK         0.0600 
    208 H208       -4.9729  -21.5759  -50.7138 H         1 UNK         0.0600 
    209 H209       -4.1692  -20.0417  -50.3992 H         1 UNK         0.0600 
    210 H210       -1.4282  -23.1334  -48.6289 H         1 UNK         0.3000 
    211 H211        0.2923  -24.2396  -49.5051 H         1 UNK         0.0600 
    212 H212        1.3063  -22.0314  -49.6231 H         1 UNK         0.0600 
    213 H213        1.7996  -22.9209  -51.0425 H         1 UNK         0.0600 
    214 H214        0.5418  -21.6869  -51.1681 H         1 UNK         0.0600 
    215 H215       -1.8943  -25.3370  -50.3169 H         1 UNK         0.3000 
    216 H216       -2.9781  -26.6577  -51.6550 H         1 UNK         0.0600 
    217 H217       -1.8066  -27.8759  -53.4804 H         1 UNK         0.0600 
    218 H218       -0.4463  -26.7683  -53.3826 H         1 UNK         0.0600 
    219 H219       -0.8302  -27.8181  -52.0212 H         1 UNK         0.0600 
    220 H220       -1.1797  -24.5408  -53.8753 H         1 UNK         0.3000 
    221 H221       -3.5594  -23.2218  -54.8463 H         1 UNK         0.0600 
    222 H222       -2.0000  -25.0016  -56.8039 H         1 UNK         0.0600 
    223 H223       -3.6567  -25.2766  -56.2682 H         1 UNK         0.0600 
    224 H224       -3.2771  -23.8751  -57.2499 H         1 UNK         0.0600 
    225 H225       -0.3946  -23.0350  -53.8808 H         1 UNK         0.3000 
    226 H226        0.6601  -21.3049  -55.9429 H         1 UNK         0.0600 
    227 H227        2.1172  -22.7508  -54.5405 H         1 UNK         0.0600 
    228 H228        2.5702  -21.0558  -54.4332 H         1 UNK         0.0600 
    229 H229        1.6904  -21.8083  -53.1169 H         1 UNK         0.0600 
    230 H230       -1.0427  -20.7642  -52.8460 H         1 UNK         0.3000 
    231 H231       -1.0361  -17.8137  -53.3704 H         1 UNK         0.0600 
    232 H232       -1.9566  -17.5815  -51.1084 H         1 UNK         0.0600 
    233 H233       -0.4254  -18.4374  -51.0494 H         1 UNK         0.0600 
    234 H234       -1.9327  -19.3154  -50.8600 H         1 UNK         0.0600 
    235 H235       -3.1534  -20.6185  -52.6652 H         1 UNK         0.3000 
    236 H236       -5.1944  -21.2291  -53.2374 H         1 UNK         0.0600 
    237 H237       -4.2515  -21.0406  -55.5602 H         1 UNK         0.0600 
    238 H238       -5.9814  -20.7823  -55.5275 H         1 UNK         0.0600 
    239 H239       -4.8952  -19.4092  -55.6838 H         1 UNK         0.0600 
    240 H240       -4.9010  -18.5997  -51.6709 H         1 UNK         0.3000 
    241 H241       -7.1923  -17.0256  -52.3687 H         1 UNK         0.0600 
    242 H242       -8.7390  -19.6731  -49.7999 H         1 UNK         0.3800 
    243 H243       -7.2633  -19.9808  -50.6777 H         1 UNK         0.3800 
    244 H244       -5.1778  -15.9760  -51.5044 H         1 UNK         0.0800 
    245 H245       -6.5478  -15.5798  -50.5210 H         1 UNK         0.0800 
    246 H246       -6.9986  -16.5665  -48.1350 H         1 UNK         0.0800 
    247 H247       -5.9605  -15.1625  -48.1463 H         1 UNK         0.0800 
@<TRIPOS>BOND
     1    1    2 1    
     2    1  127 1    
     3    1  128 1    
     4    1  129 1    
     5    2    3 2    
     6    2    4 am   BACKBONE|DICT|INTERRES
     7    4    5 1    
     8    4  130 1    
     9    5    6 1    
    10    5   65 1    
    11    5  131 1    
    12    6    7 1    
    13    6  132 1    
    14    6  133 1    
    15    7    8 1    
    16    8    9 1    
    17    8  134 1    
    18    8  135 1    
    19    9   10 ar   
    20    9   14 ar   
    21   10   11 ar   
    22   10  136 1    
    23   11   12 ar   
    24   11  126 1    
    25   12   13 ar   
    26   12  137 1    
    27   13   14 ar   
    28   13   15 1    
    29   14  138 1    
    30   15   16 1    
    31   15  139 1    
    32   15  140 1    
    33   16   17 1    
    34   17   18 1    
    35   17  141 1    
    36   17  142 1    
    37   18   19 1    
    38   18   67 1    
    39   18  143 1    
    40   19   20 am   BACKBONE|DICT|INTERRES
    41   19  144 1    
    42   20   21 2    
    43   20   22 1    
    44   22   23 1    
    45   22   24 1    
    46   22  145 1    
    47   23  146 1    
    48   23  147 1    
    49   23  148 1    
    50   24   25 am   BACKBONE|DICT|INTERRES
    51   24  149 1    
    52   25   26 2    
    53   25   27 1    
    54   27   28 1    
    55   27   29 1    
    56   27  150 1    
    57   28  151 1    
    58   28  152 1    
    59   28  153 1    
    60   29   30 am   BACKBONE|DICT|INTERRES
    61   29  154 1    
    62   30   31 2    
    63   30   32 1    
    64   32   33 1    
    65   32   34 1    
    66   32  155 1    
    67   33  156 1    
    68   33  157 1    
    69   33  158 1    
    70   34   35 am   BACKBONE|DICT|INTERRES
    71   34  159 1    
    72   35   36 2    
    73   35   37 1    
    74   37   38 1    
    75   37   39 1    
    76   37  160 1    
    77   38  161 1    
    78   38  162 1    
    79   38  163 1    
    80   39   40 am   BACKBONE|DICT|INTERRES
    81   39  164 1    
    82   40   41 2    
    83   40   42 1    
    84   42   43 1    
    85   42   44 1    
    86   42  165 1    
    87   43  166 1    
    88   43  167 1    
    89   43  168 1    
    90   44   45 am   BACKBONE|DICT|INTERRES
    91   44  169 1    
    92   45   46 2    
    93   45   47 1    
    94   47   48 1    
    95   47   49 1    
    96   47  170 1    
    97   48  171 1    
    98   48  172 1    
    99   48  173 1    
   100   49   50 am   BACKBONE|DICT|INTERRES
   101   49  174 1    
   102   50   51 2    
   103   50   52 1    
   104   52   53 1    
   105   52   54 1    
   106   52  175 1    
   107   53  176 1    
   108   53  177 1    
   109   53  178 1    
   110   54   55 am   BACKBONE|DICT|INTERRES
   111   54  179 1    
   112   55   56 2    
   113   55   57 1    
   114   57   58 1    
   115   57   59 1    
   116   57  180 1    
   117   58  181 1    
   118   58  182 1    
   119   58  183 1    
   120   59   60 am   BACKBONE|DICT|INTERRES
   121   59  184 1    
   122   60   61 2    
   123   60   62 1    
   124   62   63 1    
   125   62   64 1    
   126   62  185 1    
   127   63  186 1    
   128   63  187 1    
   129   63  188 1    
   130   64   65 am   BACKBONE|DICT|INTERRES
   131   64  189 1    
   132   65   66 2    
   133   67   68 2    
   134   67   69 am   BACKBONE|DICT|INTERRES
   135   69   70 1    
   136   69  190 1    
   137   70   71 1    
   138   70   72 1    
   139   70  191 1    
   140   71  192 1    
   141   71  193 1    
   142   71  194 1    
   143   72   73 2    
   144   72   74 am   BACKBONE|DICT|INTERRES
   145   74   75 1    
   146   74  195 1    
   147   75   76 1    
   148   75   77 1    
   149   75  196 1    
   150   76  197 1    
   151   76  198 1    
   152   76  199 1    
   153   77   78 2    
   154   77   79 am   BACKBONE|DICT|INTERRES
   155   79   80 1    
   156   79  200 1    
   157   80   81 1    
   158   80   82 1    
   159   80  201 1    
   160   81  202 1    
   161   81  203 1    
   162   81  204 1    
   163   82   83 2    
   164   82   84 am   BACKBONE|DICT|INTERRES
   165   84   85 1    
   166   84  205 1    
   167   85   86 1    
   168   85   87 1    
   169   85  206 1    
   170   86  207 1    
   171   86  208 1    
   172   86  209 1    
   173   87   88 2    
   174   87   89 am   BACKBONE|DICT|INTERRES
   175   89   90 1    
   176   89  210 1    
   177   90   91 1    
   178   90   92 1    
   179   90  211 1    
   180   91  212 1    
   181   91  213 1    
   182   91  214 1    
   183   92   93 2    
   184   92   94 am   BACKBONE|DICT|INTERRES
   185   94   95 1    
   186   94  215 1    
   187   95   96 1    
   188   95   97 1    
   189   95  216 1    
   190   96  217 1    
   191   96  218 1    
   192   96  219 1    
   193   97   98 2    
   194   97   99 am   BACKBONE|DICT|INTERRES
   195   99  100 1    
   196   99  220 1    
   197  100  101 1    
   198  100  102 1    
   199  100  221 1    
   200  101  222 1    
   201  101  223 1    
   202  101  224 1    
   203  102  103 2    
   204  102  104 am   BACKBONE|DICT|INTERRES
   205  104  105 1    
   206  104  225 1    
   207  105  106 1    
   208  105  107 1    
   209  105  226 1    
   210  106  227 1    
   211  106  228 1    
   212  106  229 1    
   213  107  108 2    
   214  107  109 am   BACKBONE|DICT|INTERRES
   215  109  110 1    
   216  109  230 1    
   217  110  111 1    
   218  110  112 1    
   219  110  231 1    
   220  111  232 1    
   221  111  233 1    
   222  111  234 1    
   223  112  113 2    
   224  112  114 am   BACKBONE|DICT|INTERRES
   225  114  115 1    
   226  114  235 1    
   227  115  116 1    
   228  115  117 1    
   229  115  236 1    
   230  116  237 1    
   231  116  238 1    
   232  116  239 1    
   233  117  118 2    
   234  117  119 am   BACKBONE|DICT|INTERRES
   235  119  120 1    
   236  119  240 1    
   237  120  121 1    
   238  120  124 1    
   239  120  241 1    
   240  121  122 am   BACKBONE|DICT|INTERRES
   241  121  123 2    
   242  122  242 1    
   243  122  243 1    
   244  124  125 1    
   245  124  244 1    
   246  124  245 1    
   247  125  126 1    
   248  126  246 1    
   249  126  247 1    
@<TRIPOS>SUBSTRUCTURE
     1 UNK         1 GROUP             0       ****    0 ROOT    
