@<TRIPOS>MOLECULE
3R540
247   249    1
SMALL
USER_CHARGES


@<TRIPOS>ATOM
      1 CA         -0.8484  -14.3515  -48.7598 C.3       0 UNK        -0.1800 
      2 C           0.5346  -13.7977  -49.0679 C.2       0 UNK         0.5000 
      3 O           0.7006  -13.0857  -50.0568 O.2       0 UNK        -0.5000 
      4 N           1.5264  -14.1132  -48.2221 N.am      1 UNK        -0.5000 
      5 CA          2.9289  -13.6930  -48.3820 C.3       1 UNK         0.1400 
      6 C6          3.9142  -14.5188  -47.5086 C.3       23 UNK        -0.0398 
      7 S7          3.5853  -16.3145  -47.4974 S.3       23 UNK        -0.2404 
      8 C8          4.2118  -16.8027  -49.1331 C.3       23 UNK        -0.0205 
      9 C9          3.2438  -17.7560  -49.8120 C.ar      23 UNK        -0.0193 
     10 C10         2.0703  -17.2650  -50.3897 C.ar      23 UNK        -0.1150 
     11 C11         1.1576  -18.1299  -51.0000 C.ar      23 UNK        -0.0193 
     12 C12         1.4451  -19.4988  -51.0455 C.ar      23 UNK        -0.1150 
     13 C13         2.6227  -20.0032  -50.4821 C.ar      23 UNK        -0.0193 
     14 C14         3.5141  -19.1252  -49.8596 C.ar      23 UNK        -0.1150 
     15 C15         2.9578  -21.4880  -50.5631 C.3       23 UNK        -0.0205 
     16 S16         1.5970  -22.5698  -50.0250 S.3       23 UNK        -0.2404 
     17 C17         1.3563  -22.0359  -48.3004 C.3       23 UNK        -0.0398 
     18 CA          0.5003  -23.0370  -47.4888 C.3       11 UNK         0.1400 
     19 N           0.6692  -22.8288  -46.0508 N.am      11 UNK        -0.5000 
     20 C           0.2625  -23.6661  -45.0899 C.2       10 UNK         0.5000 
     21 O          -0.3167  -24.7257  -45.3249 O.2       10 UNK        -0.5000 
     22 CA          0.4710  -23.2293  -43.6257 C.3       10 UNK         0.1400 
     23 CB          1.0066  -24.3758  -42.7455 C.3       10 UNK        -0.1800 
     24 N           1.2654  -22.0067  -43.4610 N.am      10 UNK        -0.5000 
     25 C           2.5748  -21.8153  -43.6848 C.2       9 UNK         0.5000 
     26 O           3.3373  -22.6930  -44.0884 O.2       9 UNK        -0.5000 
     27 CA          3.1251  -20.3909  -43.4483 C.3       9 UNK         0.1400 
     28 CB          3.5167  -19.7450  -44.7876 C.3       9 UNK        -0.1800 
     29 N           2.1791  -19.5057  -42.7633 N.am      9 UNK        -0.5000 
     30 C           1.8377  -19.5830  -41.4694 C.2       8 UNK         0.5000 
     31 O           2.3598  -20.3575  -40.6676 O.2       8 UNK        -0.5000 
     32 CA          0.6708  -18.6849  -41.0160 C.3       8 UNK         0.1400 
     33 CB          1.1699  -17.2863  -40.6213 C.3       8 UNK        -0.1800 
     34 N          -0.3674  -18.5676  -42.0453 N.am      8 UNK        -0.5000 
     35 C          -1.1887  -19.5623  -42.4134 C.2       7 UNK         0.5000 
     36 O          -1.1846  -20.6774  -41.8941 O.2       7 UNK        -0.5000 
     37 CA         -2.1343  -19.2877  -43.5951 C.3       7 UNK         0.1400 
     38 CB         -3.4234  -18.6023  -43.1209 C.3       7 UNK        -0.1800 
     39 N          -1.4932  -18.4699  -44.6250 N.am      7 UNK        -0.5000 
     40 C          -0.5852  -18.9371  -45.4960 C.2       6 UNK         0.5000 
     41 O          -0.2920  -20.1283  -45.5947 O.2       6 UNK        -0.5000 
     42 CA          0.1248  -17.9144  -46.4046 C.3       6 UNK         0.1400 
     43 CB         -0.5667  -17.8510  -47.7707 C.3       6 UNK        -0.1800 
     44 N           0.1683  -16.5700  -45.8288 N.am      6 UNK        -0.5000 
     45 C           0.8199  -16.2403  -44.7055 C.2       5 UNK         0.5000 
     46 O           1.5439  -17.0219  -44.0917 O.2       5 UNK        -0.5000 
     47 CA          0.5721  -14.8299  -44.1333 C.3       5 UNK         0.1400 
     48 CB          1.8207  -13.9484  -44.2766 C.3       5 UNK        -0.1800 
     49 N          -0.5716  -14.1192  -44.7153 N.am      5 UNK        -0.5000 
     50 C          -1.8591  -14.4853  -44.6448 C.2       4 UNK         0.5000 
     51 O          -2.2258  -15.5577  -44.1619 O.2       4 UNK        -0.5000 
     52 CA         -2.8971  -13.5269  -45.2730 C.3       4 UNK         0.1400 
     53 CB         -4.1451  -13.3684  -44.3815 C.3       4 UNK        -0.1800 
     54 N          -2.3614  -12.2138  -45.6785 N.am      4 UNK        -0.5000 
     55 C          -1.8778  -11.2451  -44.8853 C.2       3 UNK         0.5000 
     56 O          -1.7611  -11.3464  -43.6638 O.2       3 UNK        -0.5000 
     57 CA         -1.3529   -9.9919  -45.5988 C.3       3 UNK         0.1400 
     58 CB         -1.4718   -8.7215  -44.7352 C.3       3 UNK        -0.1800 
     59 N           0.0454  -10.2268  -45.9497 N.am      3 UNK        -0.5000 
     60 C           0.6795   -9.6815  -46.9955 C.2       2 UNK         0.5000 
     61 O           0.1472   -8.9184  -47.8018 O.2       2 UNK        -0.5000 
     62 CA          2.1417  -10.1011  -47.1956 C.3       2 UNK         0.1400 
     63 CB          3.0267   -9.7373  -45.9880 C.3       2 UNK        -0.1800 
     64 N           2.1849  -11.5358  -47.4568 N.am      2 UNK        -0.5000 
     65 C           3.1404  -12.1796  -48.1393 C.2       1 UNK         0.5000 
     66 O           4.1556  -11.6335  -48.5729 O.2       1 UNK        -0.5000 
     67 C          -0.9885  -22.9808  -47.8894 C.2       11 UNK         0.5000 
     68 O          -1.4537  -23.8294  -48.6525 O.2       11 UNK        -0.5000 
     69 N          -1.7226  -22.0093  -47.3287 N.am      12 UNK        -0.5000 
     70 CA         -3.1674  -21.8757  -47.5197 C.3       12 UNK         0.1400 
     71 CB         -3.6082  -20.4514  -47.1542 C.3       12 UNK        -0.1800 
     72 C          -3.9624  -22.9224  -46.7179 C.2       12 UNK         0.5000 
     73 O          -5.0225  -23.3492  -47.1729 O.2       12 UNK        -0.5000 
     74 N          -3.4275  -23.3368  -45.5596 N.am      13 UNK        -0.5000 
     75 CA         -4.0208  -24.3523  -44.6854 C.3       13 UNK         0.1400 
     76 CB         -3.3377  -24.3132  -43.3096 C.3       13 UNK        -0.1800 
     77 C          -3.9456  -25.7636  -45.2965 C.2       13 UNK         0.5000 
     78 O          -4.9264  -26.5056  -45.2410 O.2       13 UNK        -0.5000 
     79 N          -2.7956  -26.0919  -45.9018 N.am      14 UNK        -0.5000 
     80 CA         -2.5613  -27.3354  -46.6402 C.3       14 UNK         0.1400 
     81 CB         -1.0443  -27.5465  -46.7724 C.3       14 UNK        -0.1800 
     82 C          -3.2189  -27.3497  -48.0354 C.2       14 UNK         0.5000 
     83 O          -3.2734  -28.4083  -48.6615 O.2       14 UNK        -0.5000 
     84 N          -3.6666  -26.1753  -48.5056 N.am      15 UNK        -0.5000 
     85 CA         -4.2168  -25.8809  -49.8339 C.3       15 UNK         0.1400 
     86 CB         -5.4965  -26.6948  -50.1137 C.3       15 UNK        -0.1800 
     87 C          -3.1762  -25.9928  -50.9688 C.2       15 UNK         0.5000 
     88 O          -3.5490  -26.0372  -52.1420 O.2       15 UNK        -0.5000 
     89 N          -1.8850  -25.9656  -50.6099 N.am      16 UNK        -0.5000 
     90 CA         -0.7408  -25.9214  -51.5226 C.3       16 UNK         0.1400 
     91 CB          0.5432  -26.1741  -50.7185 C.3       16 UNK        -0.1800 
     92 C          -0.6571  -24.5933  -52.3010 C.2       16 UNK         0.5000 
     93 O          -0.0930  -24.5606  -53.3947 O.2       16 UNK        -0.5000 
     94 N          -1.2718  -23.5402  -51.7436 N.am      17 UNK        -0.5000 
     95 CA         -1.4933  -22.2383  -52.3726 C.3       17 UNK         0.1400 
     96 CB         -2.0202  -21.2743  -51.2968 C.3       17 UNK        -0.1800 
     97 C          -2.4637  -22.2854  -53.5751 C.2       17 UNK         0.5000 
     98 O          -2.5142  -21.3226  -54.3393 O.2       17 UNK        -0.5000 
     99 N          -3.2304  -23.3824  -53.7067 N.am      18 UNK        -0.5000 
    100 CA        -4.2193  -23.6973  -54.7501 C.3       18 UNK         0.1400 
    101 CB        -3.5720  -23.6982  -56.1499 C.3       18 UNK        -0.1800 
    102 C         -5.5037  -22.8406  -54.7103 C.2       18 UNK         0.5000 
    103 O         -6.4129  -23.0733  -55.5085 O.2       18 UNK        -0.5000 
    104 N         -5.5765  -21.8969  -53.7699 N.am      19 UNK        -0.5000 
    105 CA        -6.6807  -20.9914  -53.4934 C.3       19 UNK         0.1400 
    106 CB        -6.7859  -19.9213  -54.5951 C.3       19 UNK        -0.1800 
    107 C         -6.4065  -20.3526  -52.1258 C.2       19 UNK         0.5000 
    108 O         -5.2554  -20.3521  -51.6744 O.2       19 UNK        -0.5000 
    109 N         -7.4588  -19.8155  -51.4953 N.am      20 UNK        -0.5000 
    110 CA        -7.4180  -19.1391  -50.1968 C.3       20 UNK         0.1400 
    111 CB        -8.8410  -18.7060  -49.8087 C.3       20 UNK        -0.1800 
    112 C         -6.4514  -17.9408  -50.2156 C.2       20 UNK         0.5000 
    113 O         -6.7542  -16.9217  -50.8395 O.2       20 UNK        -0.5000 
    114 N         -5.2755  -18.1304  -49.6006 N.am      21 UNK        -0.5000 
    115 CA        -4.1306  -17.2135  -49.5818 C.3       21 UNK         0.1400 
    116 CB        -4.4240  -16.0033  -48.6715 C.3       21 UNK        -0.1800 
    117 C         -3.6442  -16.8174  -50.9939 C.2       21 UNK         0.5000 
    118 O         -3.2740  -15.6647  -51.2168 O.2       21 UNK        -0.5000 
    119 N         -3.6729  -17.7887  -51.9188 N.am      22 UNK        -0.5000 
    120 CA        -3.3964  -17.6366  -53.3597 C.3       22 UNK         0.1400 
    121 C         -4.4880  -16.8373  -54.1410 C.2       22 UNK         0.5000 
    122 N         -5.6365  -16.5068  -53.5604 N.am      22 UNK        -0.7600 
    123 O         -4.3113  -16.5395  -55.3191 O.2       22 UNK        -0.5000 
    124 C124       -1.9584  -17.1254  -53.6802 C.3       23 UNK        -0.0398 
    125 S125       -0.6241  -18.2621  -53.1684 S.3       23 UNK        -0.2404 
    126 C126       -0.1513  -17.5713  -51.5498 C.3       23 UNK        -0.0205 
    127 H127       -0.9090  -14.7606  -47.7533 H         1 UNK         0.0600 
    128 H128       -1.5971  -13.5645  -48.8495 H         1 UNK         0.0600 
    129 H129       -1.0993  -15.1395  -49.4696 H         1 UNK         0.0600 
    130 H130        1.3618  -14.7626  -47.4680 H         1 UNK         0.3000 
    131 H131        3.1932  -13.8720  -49.4261 H         1 UNK         0.0600 
    132 H132        3.8900  -14.1841  -46.4713 H         1 UNK         0.0800 
    133 H133        4.9405  -14.3558  -47.8429 H         1 UNK         0.0800 
    134 H134        5.1942  -17.2626  -49.0156 H         1 UNK         0.0800 
    135 H135        4.3583  -15.9305  -49.7708 H         1 UNK         0.0800 
    136 H136        1.8602  -16.2063  -50.3415 H         1 UNK         0.1150 
    137 H137        0.7497  -20.1768  -51.5173 H         1 UNK         0.1150 
    138 H138        4.4240  -19.5054  -49.4168 H         1 UNK         0.1150 
    139 H139        3.2081  -21.7312  -51.5963 H         1 UNK         0.0800 
    140 H140        3.8431  -21.7206  -49.9693 H         1 UNK         0.0800 
    141 H141        2.3446  -21.9449  -47.8468 H         1 UNK         0.0800 
    142 H142        0.9229  -21.0339  -48.2848 H         1 UNK         0.0800 
    143 H143        0.8577  -24.0463  -47.7048 H         1 UNK         0.0600 
    144 H144        1.0304  -21.9296  -45.7630 H         1 UNK         0.3000 
    145 H145       -0.5217  -22.9755  -43.2538 H         1 UNK         0.0600 
    146 H146        1.1273  -24.0547  -41.7109 H         1 UNK         0.0600 
    147 H147        0.3175  -25.2212  -42.7431 H         1 UNK         0.0600 
    148 H148        1.9696  -24.7450  -43.0988 H         1 UNK         0.0600 
    149 H149        0.7390  -21.2076  -43.1352 H         1 UNK         0.3000 
    150 H150        4.0218  -20.4804  -42.8319 H         1 UNK         0.0600 
    151 H151        4.2907  -20.3249  -45.2916 H         1 UNK         0.0600 
    152 H152        3.9076  -18.7373  -44.6445 H         1 UNK         0.0600 
    153 H153        2.6653  -19.6800  -45.4646 H         1 UNK         0.0600 
    154 H154        1.7676  -18.7645  -43.3239 H         1 UNK         0.3000 
    155 H155        0.2216  -19.1442  -40.1328 H         1 UNK         0.0600 
    156 H156        0.3504  -16.6593  -40.2697 H         1 UNK         0.0600 
    157 H157        1.6514  -16.7742  -41.4542 H         1 UNK         0.0600 
    158 H158        1.8996  -17.3497  -39.8132 H         1 UNK         0.0600 
    159 H159       -0.4137  -17.6927  -42.5451 H         1 UNK         0.3000 
    160 H160       -2.4055  -20.2532  -44.0264 H         1 UNK         0.0600 
    161 H161       -3.2210  -17.6356  -42.6584 H         1 UNK         0.0600 
    162 H162       -3.9431  -19.2164  -42.3845 H         1 UNK         0.0600 
    163 H163       -4.1100  -18.4384  -43.9516 H         1 UNK         0.0600 
    164 H164       -1.7027  -17.4770  -44.6050 H         1 UNK         0.3000 
    165 H165        1.1505  -18.2550  -46.5562 H         1 UNK         0.0600 
    166 H166       -1.5839  -17.4723  -47.6800 H         1 UNK         0.0600 
    167 H167       -0.0223  -17.1967  -48.4494 H         1 UNK         0.0600 
    168 H168       -0.6137  -18.8356  -48.2385 H         1 UNK         0.0600 
    169 H169       -0.4655  -15.8908  -46.2167 H         1 UNK         0.3000 
    170 H170        0.3715  -14.9602  -43.0679 H         1 UNK         0.0600 
    171 H171        2.7161  -14.4656  -43.9284 H         1 UNK         0.0600 
    172 H172        1.9866  -13.6566  -45.3117 H         1 UNK         0.0600 
    173 H173        1.7257  -13.0369  -43.6861 H         1 UNK         0.0600 
    174 H174       -0.3819  -13.2121  -45.1091 H         1 UNK         0.3000 
    175 H175       -3.2202  -14.0124  -46.1950 H         1 UNK         0.0600 
    176 H176       -4.8830  -12.7160  -44.8484 H         1 UNK         0.0600 
    177 H177       -4.6288  -14.3308  -44.2097 H         1 UNK         0.0600 
    178 H178       -3.8977  -12.9515  -43.4050 H         1 UNK         0.0600 
    179 H179       -2.3883  -12.0320  -46.6725 H         1 UNK         0.3000 
    180 H180       -1.9460   -9.8477  -46.5047 H         1 UNK         0.0600 
    181 H181       -1.1638   -7.8366  -45.2922 H         1 UNK         0.0600 
    182 H182       -2.5023   -8.5619  -44.4158 H         1 UNK         0.0600 
    183 H183       -0.8536   -8.7822  -43.8386 H         1 UNK         0.0600 
    184 H184        0.5631  -10.8112  -45.3089 H         1 UNK         0.3000 
    185 H185        2.5157   -9.5679  -48.0725 H         1 UNK         0.0600 
    186 H186        4.0784   -9.9286  -46.2014 H         1 UNK         0.0600 
    187 H187        2.9344   -8.6790  -45.7409 H         1 UNK         0.0600 
    188 H188        2.7610  -10.3095  -45.0986 H         1 UNK         0.0600 
    189 H189        1.3559  -12.0540  -47.2091 H         1 UNK         0.3000 
    190 H190       -1.2671  -21.3537  -46.6998 H         1 UNK         0.3000 
    191 H191       -3.3934  -22.0334  -48.5759 H         1 UNK         0.0600 
    192 H192       -4.6699  -20.3085  -47.3576 H         1 UNK         0.0600 
    193 H193       -3.0591  -19.7104  -47.7332 H         1 UNK         0.0600 
    194 H194       -3.4497  -20.2370  -46.0987 H         1 UNK         0.0600 
    195 H195       -2.5388  -22.9540  -45.2786 H         1 UNK         0.3000 
    196 H196       -5.0749  -24.1027  -44.5457 H         1 UNK         0.0600 
    197 H197       -3.8390  -24.9843  -42.6112 H         1 UNK         0.0600 
    198 H198       -3.3686  -23.3127  -42.8774 H         1 UNK         0.0600 
    199 H199       -2.2953  -24.6260  -43.3649 H         1 UNK         0.0600 
    200 H200       -2.0040  -25.4569  -45.8368 H         1 UNK         0.3000 
    201 H201       -2.9772  -28.1678  -46.0689 H         1 UNK         0.0600 
    202 H202       -0.5656  -27.5886  -45.7939 H         1 UNK         0.0600 
    203 H203       -0.5749  -26.7409  -47.3392 H         1 UNK         0.0600 
    204 H204       -0.8195  -28.4832  -47.2841 H         1 UNK         0.0600 
    205 H205       -3.5567  -25.3730  -47.9013 H         1 UNK         0.3000 
    206 H206       -4.5037  -24.8288  -49.8026 H         1 UNK         0.0600 
    207 H207       -6.2102  -26.6002  -49.2952 H         1 UNK         0.0600 
    208 H208       -5.9932  -26.3416  -51.0181 H         1 UNK         0.0600 
    209 H209       -5.2834  -27.7545  -50.2546 H         1 UNK         0.0600 
    210 H210       -1.6790  -25.8190  -49.6305 H         1 UNK         0.3000 
    211 H211       -0.8554  -26.7247  -52.2531 H         1 UNK         0.0600 
    212 H212        0.6705  -25.4387  -49.9241 H         1 UNK         0.0600 
    213 H213        1.4245  -26.1235  -51.3591 H         1 UNK         0.0600 
    214 H214        0.5305  -27.1623  -50.2584 H         1 UNK         0.0600 
    215 H215       -1.6320  -23.6569  -50.8041 H         1 UNK         0.3000 
    216 H216       -0.5340  -21.8668  -52.7377 H         1 UNK         0.0600 
    217 H217       -2.2017  -20.2832  -51.7105 H         1 UNK         0.0600 
    218 H218       -1.3070  -21.1591  -50.4805 H         1 UNK         0.0600 
    219 H219       -2.9614  -21.6258  -50.8747 H         1 UNK         0.0600 
    220 H220       -3.1163  -24.1152  -53.0164 H         1 UNK         0.3000 
    221 H221       -4.5414  -24.7187  -54.5424 H         1 UNK         0.0600 
    222 H222       -3.2883  -22.6949  -56.4684 H         1 UNK         0.0600 
    223 H223       -2.6794  -24.3236  -56.1711 H         1 UNK         0.0600 
    224 H224       -4.2611  -24.0918  -56.8979 H         1 UNK         0.0600 
    225 H225       -4.7916  -21.7710  -53.1426 H         1 UNK         0.3000 
    226 H226       -7.6089  -21.5633  -53.4355 H         1 UNK         0.0600 
    227 H227       -7.5378  -19.1702  -54.3500 H         1 UNK         0.0600 
    228 H228       -5.8376  -19.4040  -54.7391 H         1 UNK         0.0600 
    229 H229       -7.0707  -20.3619  -55.5504 H         1 UNK         0.0600 
    230 H230       -8.3589  -19.8374  -51.9520 H         1 UNK         0.3000 
    231 H231       -7.0720  -19.8606  -49.4537 H         1 UNK         0.0600 
    232 H232       -8.8436  -18.1951  -48.8450 H         1 UNK         0.0600 
    233 H233       -9.5053  -19.5659  -49.7214 H         1 UNK         0.0600 
    234 H234       -9.2707  -18.0234  -50.5431 H         1 UNK         0.0600 
    235 H235       -5.1109  -19.0351  -49.1842 H         1 UNK         0.3000 
    236 H236       -3.3073  -17.7707  -49.1383 H         1 UNK         0.0600 
    237 H237       -5.2246  -15.3818  -49.0738 H         1 UNK         0.0600 
    238 H238       -4.7182  -16.3244  -47.6722 H         1 UNK         0.0600 
    239 H239       -3.5439  -15.3707  -48.5603 H         1 UNK         0.0600 
    240 H240       -4.0454  -18.6939  -51.6513 H         1 UNK         0.3000 
    241 H241       -3.4703  -18.6471  -53.7637 H         1 UNK         0.0600 
    242 H242       -6.3231  -16.0006  -54.0961 H         1 UNK         0.3800 
    243 H243       -5.8258  -16.7143  -52.5860 H         1 UNK         0.3800 
    244 H244       -1.7878  -16.1334  -53.2621 H         1 UNK         0.0800 
    245 H245       -1.8368  -17.0051  -54.7577 H         1 UNK         0.0800 
    246 H246       -0.0906  -16.4851  -51.6333 H         1 UNK         0.0800 
    247 H247       -0.9391  -17.7881  -50.8299 H         1 UNK         0.0800 
@<TRIPOS>BOND
     1    1    2 1    
     2    1  127 1    
     3    1  128 1    
     4    1  129 1    
     5    2    3 2    
     6    2    4 am   BACKBONE|DICT|INTERRES
     7    4    5 1    
     8    4  130 1    
     9    5    6 1    
    10    5   65 1    
    11    5  131 1    
    12    6    7 1    
    13    6  132 1    
    14    6  133 1    
    15    7    8 1    
    16    8    9 1    
    17    8  134 1    
    18    8  135 1    
    19    9   10 ar   
    20    9   14 ar   
    21   10   11 ar   
    22   10  136 1    
    23   11   12 ar   
    24   11  126 1    
    25   12   13 ar   
    26   12  137 1    
    27   13   14 ar   
    28   13   15 1    
    29   14  138 1    
    30   15   16 1    
    31   15  139 1    
    32   15  140 1    
    33   16   17 1    
    34   17   18 1    
    35   17  141 1    
    36   17  142 1    
    37   18   19 1    
    38   18   67 1    
    39   18  143 1    
    40   19   20 am   BACKBONE|DICT|INTERRES
    41   19  144 1    
    42   20   21 2    
    43   20   22 1    
    44   22   23 1    
    45   22   24 1    
    46   22  145 1    
    47   23  146 1    
    48   23  147 1    
    49   23  148 1    
    50   24   25 am   BACKBONE|DICT|INTERRES
    51   24  149 1    
    52   25   26 2    
    53   25   27 1    
    54   27   28 1    
    55   27   29 1    
    56   27  150 1    
    57   28  151 1    
    58   28  152 1    
    59   28  153 1    
    60   29   30 am   BACKBONE|DICT|INTERRES
    61   29  154 1    
    62   30   31 2    
    63   30   32 1    
    64   32   33 1    
    65   32   34 1    
    66   32  155 1    
    67   33  156 1    
    68   33  157 1    
    69   33  158 1    
    70   34   35 am   BACKBONE|DICT|INTERRES
    71   34  159 1    
    72   35   36 2    
    73   35   37 1    
    74   37   38 1    
    75   37   39 1    
    76   37  160 1    
    77   38  161 1    
    78   38  162 1    
    79   38  163 1    
    80   39   40 am   BACKBONE|DICT|INTERRES
    81   39  164 1    
    82   40   41 2    
    83   40   42 1    
    84   42   43 1    
    85   42   44 1    
    86   42  165 1    
    87   43  166 1    
    88   43  167 1    
    89   43  168 1    
    90   44   45 am   BACKBONE|DICT|INTERRES
    91   44  169 1    
    92   45   46 2    
    93   45   47 1    
    94   47   48 1    
    95   47   49 1    
    96   47  170 1    
    97   48  171 1    
    98   48  172 1    
    99   48  173 1    
   100   49   50 am   BACKBONE|DICT|INTERRES
   101   49  174 1    
   102   50   51 2    
   103   50   52 1    
   104   52   53 1    
   105   52   54 1    
   106   52  175 1    
   107   53  176 1    
   108   53  177 1    
   109   53  178 1    
   110   54   55 am   BACKBONE|DICT|INTERRES
   111   54  179 1    
   112   55   56 2    
   113   55   57 1    
   114   57   58 1    
   115   57   59 1    
   116   57  180 1    
   117   58  181 1    
   118   58  182 1    
   119   58  183 1    
   120   59   60 am   BACKBONE|DICT|INTERRES
   121   59  184 1    
   122   60   61 2    
   123   60   62 1    
   124   62   63 1    
   125   62   64 1    
   126   62  185 1    
   127   63  186 1    
   128   63  187 1    
   129   63  188 1    
   130   64   65 am   BACKBONE|DICT|INTERRES
   131   64  189 1    
   132   65   66 2    
   133   67   68 2    
   134   67   69 am   BACKBONE|DICT|INTERRES
   135   69   70 1    
   136   69  190 1    
   137   70   71 1    
   138   70   72 1    
   139   70  191 1    
   140   71  192 1    
   141   71  193 1    
   142   71  194 1    
   143   72   73 2    
   144   72   74 am   BACKBONE|DICT|INTERRES
   145   74   75 1    
   146   74  195 1    
   147   75   76 1    
   148   75   77 1    
   149   75  196 1    
   150   76  197 1    
   151   76  198 1    
   152   76  199 1    
   153   77   78 2    
   154   77   79 am   BACKBONE|DICT|INTERRES
   155   79   80 1    
   156   79  200 1    
   157   80   81 1    
   158   80   82 1    
   159   80  201 1    
   160   81  202 1    
   161   81  203 1    
   162   81  204 1    
   163   82   83 2    
   164   82   84 am   BACKBONE|DICT|INTERRES
   165   84   85 1    
   166   84  205 1    
   167   85   86 1    
   168   85   87 1    
   169   85  206 1    
   170   86  207 1    
   171   86  208 1    
   172   86  209 1    
   173   87   88 2    
   174   87   89 am   BACKBONE|DICT|INTERRES
   175   89   90 1    
   176   89  210 1    
   177   90   91 1    
   178   90   92 1    
   179   90  211 1    
   180   91  212 1    
   181   91  213 1    
   182   91  214 1    
   183   92   93 2    
   184   92   94 am   BACKBONE|DICT|INTERRES
   185   94   95 1    
   186   94  215 1    
   187   95   96 1    
   188   95   97 1    
   189   95  216 1    
   190   96  217 1    
   191   96  218 1    
   192   96  219 1    
   193   97   98 2    
   194   97   99 am   BACKBONE|DICT|INTERRES
   195   99  100 1    
   196   99  220 1    
   197  100  101 1    
   198  100  102 1    
   199  100  221 1    
   200  101  222 1    
   201  101  223 1    
   202  101  224 1    
   203  102  103 2    
   204  102  104 am   BACKBONE|DICT|INTERRES
   205  104  105 1    
   206  104  225 1    
   207  105  106 1    
   208  105  107 1    
   209  105  226 1    
   210  106  227 1    
   211  106  228 1    
   212  106  229 1    
   213  107  108 2    
   214  107  109 am   BACKBONE|DICT|INTERRES
   215  109  110 1    
   216  109  230 1    
   217  110  111 1    
   218  110  112 1    
   219  110  231 1    
   220  111  232 1    
   221  111  233 1    
   222  111  234 1    
   223  112  113 2    
   224  112  114 am   BACKBONE|DICT|INTERRES
   225  114  115 1    
   226  114  235 1    
   227  115  116 1    
   228  115  117 1    
   229  115  236 1    
   230  116  237 1    
   231  116  238 1    
   232  116  239 1    
   233  117  118 2    
   234  117  119 am   BACKBONE|DICT|INTERRES
   235  119  120 1    
   236  119  240 1    
   237  120  121 1    
   238  120  124 1    
   239  120  241 1    
   240  121  122 am   BACKBONE|DICT|INTERRES
   241  121  123 2    
   242  122  242 1    
   243  122  243 1    
   244  124  125 1    
   245  124  244 1    
   246  124  245 1    
   247  125  126 1    
   248  126  246 1    
   249  126  247 1    
@<TRIPOS>SUBSTRUCTURE
     1 UNK         1 GROUP             0       ****    0 ROOT    
