@<TRIPOS>MOLECULE
3R540
247   249    1
SMALL
USER_CHARGES


@<TRIPOS>ATOM
      1 CA         -2.6051  -14.4575  -50.5371 C.3       0 UNK        -0.1800 
      2 C          -2.0628  -14.5784  -49.1203 C.2       0 UNK         0.5000 
      3 O          -2.6157  -15.3309  -48.3208 O.2       0 UNK        -0.5000 
      4 N          -0.9826  -13.8443  -48.8136 N.am      1 UNK        -0.5000 
      5 CA         -0.2530  -13.8463  -47.5325 C.3       1 UNK         0.1400 
      6 C6          0.4567  -15.1952  -47.2215 C.3       23 UNK        -0.0398 
      7 S7          1.5882  -15.7590  -48.5441 S.3       23 UNK        -0.2404 
      8 C8          0.6104  -17.1201  -49.2468 C.3       23 UNK        -0.0205 
      9 C9          1.4078  -17.9926  -50.2009 C.ar      23 UNK        -0.0193 
     10 C10         1.3042  -17.8202  -51.5849 C.ar      23 UNK        -0.1150 
     11 C11         1.9307  -18.7151  -52.4594 C.ar      23 UNK        -0.0193 
     12 C12         2.6953  -19.7636  -51.9390 C.ar      23 UNK        -0.1150 
     13 C13         2.7849  -19.9564  -50.5591 C.ar      23 UNK        -0.0193 
     14 C14         2.1656  -19.0503  -49.6951 C.ar      23 UNK        -0.1150 
     15 C15         3.4335  -21.2132  -50.0004 C.3       23 UNK        -0.0205 
     16 S16         2.4394  -22.7240  -50.3124 S.3       23 UNK        -0.2404 
     17 C17         0.6936  -22.1967  -50.1036 C.3       23 UNK        -0.0398 
     18 CA          0.0528  -22.5384  -48.7368 C.3       11 UNK         0.1400 
     19 N           0.9196  -22.2239  -47.5994 N.am      11 UNK        -0.5000 
     20 C           0.6574  -22.5163  -46.3191 C.2       10 UNK         0.5000 
     21 O          -0.3598  -23.1049  -45.9535 O.2       10 UNK        -0.5000 
     22 CA          1.6758  -22.0349  -45.2696 C.3       10 UNK         0.1400 
     23 CB          3.1254  -22.0198  -45.7978 C.3       10 UNK        -0.1800 
     24 N           1.3535  -20.7264  -44.6928 N.am      10 UNK        -0.5000 
     25 C           1.0714  -19.5777  -45.3299 C.2       9 UNK         0.5000 
     26 O           0.8143  -19.4919  -46.5295 O.2       9 UNK        -0.5000 
     27 CA          1.1223  -18.2911  -44.4864 C.3       9 UNK         0.1400 
     28 CB         -0.2454  -17.9994  -43.8514 C.3       9 UNK        -0.1800 
     29 N           2.1390  -18.3530  -43.4359 N.am      9 UNK        -0.5000 
     30 C           3.4639  -18.4287  -43.6307 C.2       8 UNK         0.5000 
     31 O           3.9976  -18.3912  -44.7394 O.2       8 UNK        -0.5000 
     32 CA          4.3396  -18.5977  -42.3763 C.3       8 UNK         0.1400 
     33 CB          4.7123  -17.2350  -41.7717 C.3       8 UNK        -0.1800 
     34 N           3.6683  -19.4038  -41.3571 N.am      8 UNK        -0.5000 
     35 C           3.7801  -20.7327  -41.2376 C.2       7 UNK         0.5000 
     36 O           4.5082  -21.4251  -41.9494 O.2       7 UNK        -0.5000 
     37 CA          2.9354  -21.4090  -40.1383 C.3       7 UNK         0.1400 
     38 CB          3.7383  -21.5116  -38.8327 C.3       7 UNK        -0.1800 
     39 N           1.6670  -20.7287  -39.8648 N.am      7 UNK        -0.5000 
     40 C           0.6421  -20.6610  -40.7247 C.2       6 UNK         0.5000 
     41 O           0.6607  -21.1612  -41.8496 O.2       6 UNK        -0.5000 
     42 CA         -0.5944  -19.8571  -40.2709 C.3       6 UNK         0.1400 
     43 CB         -1.5280  -20.7433  -39.4331 C.3       6 UNK        -0.1800 
     44 N          -0.3167  -18.6122  -39.5375 N.am      6 UNK        -0.5000 
     45 C           0.5296  -17.6475  -39.9235 C.2       5 UNK         0.5000 
     46 O           1.3194  -17.7693  -40.8604 O.2       5 UNK        -0.5000 
     47 CA          0.5226  -16.3327  -39.1225 C.3       5 UNK         0.1400 
     48 CB          1.4154  -16.4616  -37.8791 C.3       5 UNK        -0.1800 
     49 N           1.0236  -15.2341  -39.9526 N.am      5 UNK        -0.5000 
     50 C           0.3481  -14.6865  -40.9712 C.2       4 UNK         0.5000 
     51 O          -0.8446  -14.9038  -41.2008 O.2       4 UNK        -0.5000 
     52 CA          1.1697  -13.7969  -41.9232 C.3       4 UNK         0.1400 
     53 CB          1.8230  -14.6521  -43.0214 C.3       4 UNK        -0.1800 
     54 N           0.3518  -12.7759  -42.5718 N.am      4 UNK        -0.5000 
     55 C          -0.1128  -11.6704  -41.9703 C.2       3 UNK         0.5000 
     56 O           0.1284  -11.3837  -40.7968 O.2       3 UNK        -0.5000 
     57 CA         -0.9798  -10.7172  -42.8124 C.3       3 UNK         0.1400 
     58 CB         -0.1211   -9.5648  -43.3690 C.3       3 UNK        -0.1800 
     59 N          -1.6446  -11.4364  -43.8968 N.am      3 UNK        -0.5000 
     60 C          -2.6401  -11.0030  -44.6704 C.2       2 UNK         0.5000 
     61 O          -3.1378   -9.8790  -44.5813 O.2       2 UNK        -0.5000 
     62 CA         -3.1560  -12.0147  -45.7188 C.3       2 UNK         0.1400 
     63 CB         -4.3158  -11.4552  -46.5625 C.3       2 UNK        -0.1800 
     64 N          -2.1153  -12.5044  -46.6301 N.am      2 UNK        -0.5000 
     65 C          -1.1234  -13.3625  -46.3440 C.2       1 UNK         0.5000 
     66 O          -0.8870  -13.7655  -45.2018 O.2       1 UNK        -0.5000 
     67 C          -1.3325  -21.8596  -48.6332 C.2       11 UNK         0.5000 
     68 O          -2.3018  -22.3977  -49.1653 O.2       11 UNK        -0.5000 
     69 N          -1.4184  -20.7017  -47.9602 N.am      12 UNK        -0.5000 
     70 CA         -2.6811  -20.0127  -47.6820 C.3       12 UNK         0.1400 
     71 CB         -2.4229  -18.5244  -47.4203 C.3       12 UNK        -0.1800 
     72 C          -3.4599  -20.6481  -46.5200 C.2       12 UNK         0.5000 
     73 O          -4.6894  -20.6497  -46.5592 O.2       12 UNK        -0.5000 
     74 N          -2.7508  -21.2254  -45.5390 N.am      13 UNK        -0.5000 
     75 CA         -3.3504  -22.0040  -44.4506 C.3       13 UNK         0.1400 
     76 CB         -2.3363  -22.1720  -43.3087 C.3       13 UNK        -0.1800 
     77 C          -3.8743  -23.3652  -44.9506 C.2       13 UNK         0.5000 
     78 O          -4.9134  -23.8306  -44.4828 O.2       13 UNK        -0.5000 
     79 N          -3.1778  -23.9421  -45.9403 N.am      14 UNK        -0.5000 
     80 CA         -3.5967  -25.1218  -46.7022 C.3       14 UNK         0.1400 
     81 CB         -2.3621  -25.7120  -47.4018 C.3       14 UNK        -0.1800 
     82 C          -4.7082  -24.8275  -47.7360 C.2       14 UNK         0.5000 
     83 O          -5.2538  -25.7690  -48.3115 O.2       14 UNK        -0.5000 
     84 N          -5.0043  -23.5388  -47.9663 N.am      15 UNK        -0.5000 
     85 CA         -5.9890  -22.9729  -48.8974 C.3       15 UNK         0.1400 
     86 CB         -7.4150  -23.4656  -48.5797 C.3       15 UNK        -0.1800 
     87 C          -5.6329  -23.1306  -50.3913 C.2       15 UNK         0.5000 
     88 O          -6.4552  -22.8013  -51.2466 O.2       15 UNK        -0.5000 
     89 N          -4.4036  -23.5631  -50.6968 N.am      16 UNK        -0.5000 
     90 CA         -3.8687  -23.6638  -52.0534 C.3       16 UNK         0.1400 
     91 CB         -2.5766  -24.4932  -52.0401 C.3       16 UNK        -0.1800 
     92 C          -3.6220  -22.2786  -52.6702 C.2       16 UNK         0.5000 
     93 O          -3.9663  -22.0608  -53.8306 O.2       16 UNK        -0.5000 
     94 N          -3.0785  -21.3463  -51.8748 N.am      17 UNK        -0.5000 
     95 CA         -2.8777  -19.9566  -52.2961 C.3       17 UNK         0.1400 
     96 CB         -1.8675  -19.2604  -51.3785 C.3       17 UNK        -0.1800 
     97 C          -4.1935  -19.1630  -52.3702 C.2       17 UNK         0.5000 
     98 O          -4.3062  -18.2650  -53.2031 O.2       17 UNK        -0.5000 
     99 N          -5.1828  -19.5396  -51.5462 N.am      18 UNK        -0.5000 
    100 CA        -6.5427  -18.9933  -51.5855 C.3       18 UNK         0.1400 
    101 CB        -7.3084  -19.4217  -50.3242 C.3       18 UNK        -0.1800 
    102 C         -7.2976  -19.4134  -52.8626 C.2       18 UNK         0.5000 
    103 O         -8.0395  -18.6092  -53.4264 O.2       18 UNK        -0.5000 
    104 N         -7.0498  -20.6482  -53.3215 N.am      19 UNK        -0.5000 
    105 CA        -7.5217  -21.1880  -54.5984 C.3       19 UNK         0.1400 
    106 CB        -7.4822  -22.7232  -54.5200 C.3       19 UNK        -0.1800 
    107 C         -6.7082  -20.6910  -55.8144 C.2       19 UNK         0.5000 
    108 O         -7.0990  -20.9724  -56.9479 O.2       19 UNK        -0.5000 
    109 N         -5.5918  -19.9887  -55.5627 N.am      20 UNK        -0.5000 
    110 CA        -4.5975  -19.4958  -56.5238 C.3       20 UNK         0.1400 
    111 CB        -5.2122  -18.4426  -57.4687 C.3       20 UNK        -0.1800 
    112 C         -3.8642  -20.6301  -57.2736 C.2       20 UNK         0.5000 
    113 O         -3.4374  -20.4470  -58.4148 O.2       20 UNK        -0.5000 
    114 N         -3.7170  -21.7824  -56.6085 N.am      21 UNK        -0.5000 
    115 CA        -3.0658  -22.9857  -57.1232 C.3       21 UNK         0.1400 
    116 CB        -3.7711  -24.2122  -56.5200 C.3       21 UNK        -0.1800 
    117 C         -1.5562  -23.0228  -56.8141 C.2       21 UNK         0.5000 
    118 O         -0.8686  -23.9207  -57.3019 O.2       21 UNK        -0.5000 
    119 N         -1.0638  -22.0720  -56.0072 N.am      22 UNK        -0.5000 
    120 CA         0.3422  -21.9717  -55.5822 C.3       22 UNK         0.1400 
    121 C          1.3574  -21.5416  -56.6852 C.2       22 UNK         0.5000 
    122 N          0.9212  -21.0959  -57.8573 N.am      22 UNK        -0.7600 
    123 O          2.5642  -21.6252  -56.4746 O.2       22 UNK        -0.5000 
    124 C124        0.4876  -21.1335  -54.2862 C.3       23 UNK        -0.0398 
    125 S125        0.1488  -19.3447  -54.4909 S.3       23 UNK        -0.2404 
    126 C126        1.7256  -18.5896  -53.9627 C.3       23 UNK        -0.0205 
    127 H127       -3.6299  -14.0871  -50.5160 H         1 UNK         0.0600 
    128 H128       -2.6043  -15.4340  -51.0220 H         1 UNK         0.0600 
    129 H129       -2.0081  -13.7763  -51.1438 H         1 UNK         0.0600 
    130 H130       -0.5836  -13.2494  -49.5264 H         1 UNK         0.3000 
    131 H131        0.5275  -13.0915  -47.6386 H         1 UNK         0.0600 
    132 H132        1.0604  -15.1001  -46.3174 H         1 UNK         0.0800 
    133 H133       -0.2785  -15.9715  -47.0032 H         1 UNK         0.0800 
    134 H134       -0.2665  -16.7188  -49.7539 H         1 UNK         0.0800 
    135 H135        0.2370  -17.7447  -48.4361 H         1 UNK         0.0800 
    136 H136        0.6922  -17.0231  -51.9830 H         1 UNK         0.1150 
    137 H137        3.1669  -20.4729  -52.6038 H         1 UNK         0.1150 
    138 H138        2.2167  -19.2045  -48.6272 H         1 UNK         0.1150 
    139 H139        3.6016  -21.1117  -48.9282 H         1 UNK         0.0800 
    140 H140        4.4199  -21.3405  -50.4484 H         1 UNK         0.0800 
    141 H141        0.1263  -22.6882  -50.8952 H         1 UNK         0.0800 
    142 H142        0.5874  -21.1371  -50.3162 H         1 UNK         0.0800 
    143 H143       -0.1140  -23.6166  -48.7113 H         1 UNK         0.0600 
    144 H144        1.7571  -21.7035  -47.8102 H         1 UNK         0.3000 
    145 H145        1.6311  -22.7528  -44.4491 H         1 UNK         0.0600 
    146 H146        3.3840  -22.9644  -46.2783 H         1 UNK         0.0600 
    147 H147        3.8306  -21.8707  -44.9796 H         1 UNK         0.0600 
    148 H148        3.2926  -21.2188  -46.5181 H         1 UNK         0.0600 
    149 H149        1.4157  -20.6887  -43.6805 H         1 UNK         0.3000 
    150 H150        1.3805  -17.4627  -45.1490 H         1 UNK         0.0600 
    151 H151       -0.1971  -17.1538  -43.1653 H         1 UNK         0.0600 
    152 H152       -0.9856  -17.7495  -44.6094 H         1 UNK         0.0600 
    153 H153       -0.6207  -18.8589  -43.2975 H         1 UNK         0.0600 
    154 H154        1.7990  -18.3096  -42.4775 H         1 UNK         0.3000 
    155 H155        5.2649  -19.0880  -42.6863 H         1 UNK         0.0600 
    156 H156        3.8499  -16.7398  -41.3265 H         1 UNK         0.0600 
    157 H157        5.1269  -16.5670  -42.5279 H         1 UNK         0.0600 
    158 H158        5.4645  -17.3492  -40.9912 H         1 UNK         0.0600 
    159 H159        2.9859  -18.9203  -40.7847 H         1 UNK         0.3000 
    160 H160        2.7070  -22.4216  -40.4779 H         1 UNK         0.0600 
    161 H161        4.6807  -22.0369  -38.9937 H         1 UNK         0.0600 
    162 H162        3.1862  -22.0637  -38.0719 H         1 UNK         0.0600 
    163 H163        3.9762  -20.5269  -38.4283 H         1 UNK         0.0600 
    164 H164        1.5757  -20.2718  -38.9694 H         1 UNK         0.3000 
    165 H165       -1.1373  -19.5718  -41.1724 H         1 UNK         0.0600 
    166 H166       -1.7702  -21.6665  -39.9617 H         1 UNK         0.0600 
    167 H167       -1.0733  -21.0192  -38.4809 H         1 UNK         0.0600 
    168 H168       -2.4699  -20.2368  -39.2219 H         1 UNK         0.0600 
    169 H169       -0.9037  -18.4383  -38.7344 H         1 UNK         0.3000 
    170 H170       -0.4998  -16.1093  -38.8107 H         1 UNK         0.0600 
    171 H171        2.4463  -16.6994  -38.1455 H         1 UNK         0.0600 
    172 H172        1.0567  -17.2519  -37.2184 H         1 UNK         0.0600 
    173 H173        1.4229  -15.5367  -37.3020 H         1 UNK         0.0600 
    174 H174        2.0071  -15.0279  -39.8595 H         1 UNK         0.3000 
    175 H175        1.9571  -13.3026  -41.3500 H         1 UNK         0.0600 
    176 H176        2.4311  -15.4473  -42.5933 H         1 UNK         0.0600 
    177 H177        1.0760  -15.1243  -43.6600 H         1 UNK         0.0600 
    178 H178        2.4739  -14.0514  -43.6567 H         1 UNK         0.0600 
    179 H179        0.0988  -12.9751  -43.5301 H         1 UNK         0.3000 
    180 H180       -1.7464  -10.3040  -42.1539 H         1 UNK         0.0600 
    181 H181        0.6204   -9.9278  -44.0816 H         1 UNK         0.0600 
    182 H182        0.4147   -9.0541  -42.5678 H         1 UNK         0.0600 
    183 H183       -0.7313   -8.8157  -43.8730 H         1 UNK         0.0600 
    184 H184       -1.3347  -12.3885  -44.0671 H         1 UNK         0.3000 
    185 H185       -3.5416  -12.8716  -45.1624 H         1 UNK         0.0600 
    186 H186       -5.1414  -11.1291  -45.9285 H         1 UNK         0.0600 
    187 H187       -4.0015  -10.5993  -47.1611 H         1 UNK         0.0600 
    188 H188       -4.7109  -12.2122  -47.2404 H         1 UNK         0.0600 
    189 H189       -2.2064  -12.2131  -47.5922 H         1 UNK         0.3000 
    190 H190       -0.5759  -20.3040  -47.5503 H         1 UNK         0.3000 
    191 H191       -3.3263  -20.0852  -48.5595 H         1 UNK         0.0600 
    192 H192       -1.6727  -18.3739  -46.6477 H         1 UNK         0.0600 
    193 H193       -3.3325  -18.0126  -47.1027 H         1 UNK         0.0600 
    194 H194       -2.0782  -18.0228  -48.3226 H         1 UNK         0.0600 
    195 H195       -1.7433  -21.2460  -45.6075 H         1 UNK         0.3000 
    196 H196       -4.2029  -21.4449  -44.0586 H         1 UNK         0.0600 
    197 H197       -1.4604  -22.7428  -43.6161 H         1 UNK         0.0600 
    198 H198       -2.7854  -22.6952  -42.4639 H         1 UNK         0.0600 
    199 H199       -1.9916  -21.2044  -42.9450 H         1 UNK         0.0600 
    200 H200       -2.2813  -23.5356  -46.1888 H         1 UNK         0.3000 
    201 H201       -3.9848  -25.8655  -46.0034 H         1 UNK         0.0600 
    202 H202       -2.6078  -26.6474  -47.9060 H         1 UNK         0.0600 
    203 H203       -1.5665  -25.9268  -46.6880 H         1 UNK         0.0600 
    204 H204       -1.9641  -25.0310  -48.1536 H         1 UNK         0.0600 
    205 H205       -4.4843  -22.8535  -47.4367 H         1 UNK         0.3000 
    206 H206       -5.9742  -21.8987  -48.7102 H         1 UNK         0.0600 
    207 H207       -7.5434  -24.5217  -48.8173 H         1 UNK         0.0600 
    208 H208       -7.6546  -23.3252  -47.5257 H         1 UNK         0.0600 
    209 H209       -8.1573  -22.9120  -49.1559 H         1 UNK         0.0600 
    210 H210       -3.7471  -23.6992  -49.9381 H         1 UNK         0.3000 
    211 H211       -4.6012  -24.1814  -52.6766 H         1 UNK         0.0600 
    212 H212       -2.1528  -24.5735  -53.0422 H         1 UNK         0.0600 
    213 H213       -2.7655  -25.5062  -51.6845 H         1 UNK         0.0600 
    214 H214       -1.8175  -24.0507  -51.3954 H         1 UNK         0.0600 
    215 H215       -2.8277  -21.6013  -50.9255 H         1 UNK         0.3000 
    216 H216       -2.4571  -19.9667  -53.3029 H         1 UNK         0.0600 
    217 H217       -2.2196  -19.2089  -50.3526 H         1 UNK         0.0600 
    218 H218       -0.9102  -19.7778  -51.3873 H         1 UNK         0.0600 
    219 H219       -1.6830  -18.2381  -51.7106 H         1 UNK         0.0600 
    220 H220       -5.0143  -20.3020  -50.9093 H         1 UNK         0.3000 
    221 H221       -6.4696  -17.9036  -51.5833 H         1 UNK         0.0600 
    222 H222       -7.4641  -20.4995  -50.2887 H         1 UNK         0.0600 
    223 H223       -6.7780  -19.1271  -49.4183 H         1 UNK         0.0600 
    224 H224       -8.2920  -18.9517  -50.2918 H         1 UNK         0.0600 
    225 H225       -6.4872  -21.2734  -52.7566 H         1 UNK         0.3000 
    226 H226       -8.5581  -20.8794  -54.7487 H         1 UNK         0.0600 
    227 H227       -8.0862  -23.0914  -53.6904 H         1 UNK         0.0600 
    228 H228       -7.8743  -23.1744  -55.4322 H         1 UNK         0.0600 
    229 H229       -6.4655  -23.0929  -54.3822 H         1 UNK         0.0600 
    230 H230       -5.3700  -19.8133  -54.5926 H         1 UNK         0.3000 
    231 H231       -3.8336  -18.9921  -55.9299 H         1 UNK         0.0600 
    232 H232       -5.9350  -18.8841  -58.1552 H         1 UNK         0.0600 
    233 H233       -4.4415  -17.9621  -58.0723 H         1 UNK         0.0600 
    234 H234       -5.7182  -17.6576  -56.9066 H         1 UNK         0.0600 
    235 H235       -4.0415  -21.8359  -55.6446 H         1 UNK         0.3000 
    236 H236       -3.1813  -23.0267  -58.2082 H         1 UNK         0.0600 
    237 H237       -3.6512  -24.2550  -55.4370 H         1 UNK         0.0600 
    238 H238       -4.8393  -24.1992  -56.7378 H         1 UNK         0.0600 
    239 H239       -3.3673  -25.1381  -56.9311 H         1 UNK         0.0600 
    240 H240       -1.6915  -21.3636  -55.6585 H         1 UNK         0.3000 
    241 H241        0.6442  -22.9865  -55.3152 H         1 UNK         0.0600 
    242 H242        1.5861  -20.8253  -58.5648 H         1 UNK         0.3800 
    243 H243       -0.0664  -21.0207  -58.0411 H         1 UNK         0.3800 
    244 H244        1.4889  -21.2781  -53.8847 H         1 UNK         0.0800 
    245 H245       -0.1861  -21.5180  -53.5192 H         1 UNK         0.0800 
    246 H246        1.7231  -17.5352  -54.2424 H         1 UNK         0.0800 
    247 H247        2.5528  -19.0482  -54.5070 H         1 UNK         0.0800 
@<TRIPOS>BOND
     1    1    2 1    
     2    1  127 1    
     3    1  128 1    
     4    1  129 1    
     5    2    3 2    
     6    2    4 am   BACKBONE|DICT|INTERRES
     7    4    5 1    
     8    4  130 1    
     9    5    6 1    
    10    5   65 1    
    11    5  131 1    
    12    6    7 1    
    13    6  132 1    
    14    6  133 1    
    15    7    8 1    
    16    8    9 1    
    17    8  134 1    
    18    8  135 1    
    19    9   10 ar   
    20    9   14 ar   
    21   10   11 ar   
    22   10  136 1    
    23   11   12 ar   
    24   11  126 1    
    25   12   13 ar   
    26   12  137 1    
    27   13   14 ar   
    28   13   15 1    
    29   14  138 1    
    30   15   16 1    
    31   15  139 1    
    32   15  140 1    
    33   16   17 1    
    34   17   18 1    
    35   17  141 1    
    36   17  142 1    
    37   18   19 1    
    38   18   67 1    
    39   18  143 1    
    40   19   20 am   BACKBONE|DICT|INTERRES
    41   19  144 1    
    42   20   21 2    
    43   20   22 1    
    44   22   23 1    
    45   22   24 1    
    46   22  145 1    
    47   23  146 1    
    48   23  147 1    
    49   23  148 1    
    50   24   25 am   BACKBONE|DICT|INTERRES
    51   24  149 1    
    52   25   26 2    
    53   25   27 1    
    54   27   28 1    
    55   27   29 1    
    56   27  150 1    
    57   28  151 1    
    58   28  152 1    
    59   28  153 1    
    60   29   30 am   BACKBONE|DICT|INTERRES
    61   29  154 1    
    62   30   31 2    
    63   30   32 1    
    64   32   33 1    
    65   32   34 1    
    66   32  155 1    
    67   33  156 1    
    68   33  157 1    
    69   33  158 1    
    70   34   35 am   BACKBONE|DICT|INTERRES
    71   34  159 1    
    72   35   36 2    
    73   35   37 1    
    74   37   38 1    
    75   37   39 1    
    76   37  160 1    
    77   38  161 1    
    78   38  162 1    
    79   38  163 1    
    80   39   40 am   BACKBONE|DICT|INTERRES
    81   39  164 1    
    82   40   41 2    
    83   40   42 1    
    84   42   43 1    
    85   42   44 1    
    86   42  165 1    
    87   43  166 1    
    88   43  167 1    
    89   43  168 1    
    90   44   45 am   BACKBONE|DICT|INTERRES
    91   44  169 1    
    92   45   46 2    
    93   45   47 1    
    94   47   48 1    
    95   47   49 1    
    96   47  170 1    
    97   48  171 1    
    98   48  172 1    
    99   48  173 1    
   100   49   50 am   BACKBONE|DICT|INTERRES
   101   49  174 1    
   102   50   51 2    
   103   50   52 1    
   104   52   53 1    
   105   52   54 1    
   106   52  175 1    
   107   53  176 1    
   108   53  177 1    
   109   53  178 1    
   110   54   55 am   BACKBONE|DICT|INTERRES
   111   54  179 1    
   112   55   56 2    
   113   55   57 1    
   114   57   58 1    
   115   57   59 1    
   116   57  180 1    
   117   58  181 1    
   118   58  182 1    
   119   58  183 1    
   120   59   60 am   BACKBONE|DICT|INTERRES
   121   59  184 1    
   122   60   61 2    
   123   60   62 1    
   124   62   63 1    
   125   62   64 1    
   126   62  185 1    
   127   63  186 1    
   128   63  187 1    
   129   63  188 1    
   130   64   65 am   BACKBONE|DICT|INTERRES
   131   64  189 1    
   132   65   66 2    
   133   67   68 2    
   134   67   69 am   BACKBONE|DICT|INTERRES
   135   69   70 1    
   136   69  190 1    
   137   70   71 1    
   138   70   72 1    
   139   70  191 1    
   140   71  192 1    
   141   71  193 1    
   142   71  194 1    
   143   72   73 2    
   144   72   74 am   BACKBONE|DICT|INTERRES
   145   74   75 1    
   146   74  195 1    
   147   75   76 1    
   148   75   77 1    
   149   75  196 1    
   150   76  197 1    
   151   76  198 1    
   152   76  199 1    
   153   77   78 2    
   154   77   79 am   BACKBONE|DICT|INTERRES
   155   79   80 1    
   156   79  200 1    
   157   80   81 1    
   158   80   82 1    
   159   80  201 1    
   160   81  202 1    
   161   81  203 1    
   162   81  204 1    
   163   82   83 2    
   164   82   84 am   BACKBONE|DICT|INTERRES
   165   84   85 1    
   166   84  205 1    
   167   85   86 1    
   168   85   87 1    
   169   85  206 1    
   170   86  207 1    
   171   86  208 1    
   172   86  209 1    
   173   87   88 2    
   174   87   89 am   BACKBONE|DICT|INTERRES
   175   89   90 1    
   176   89  210 1    
   177   90   91 1    
   178   90   92 1    
   179   90  211 1    
   180   91  212 1    
   181   91  213 1    
   182   91  214 1    
   183   92   93 2    
   184   92   94 am   BACKBONE|DICT|INTERRES
   185   94   95 1    
   186   94  215 1    
   187   95   96 1    
   188   95   97 1    
   189   95  216 1    
   190   96  217 1    
   191   96  218 1    
   192   96  219 1    
   193   97   98 2    
   194   97   99 am   BACKBONE|DICT|INTERRES
   195   99  100 1    
   196   99  220 1    
   197  100  101 1    
   198  100  102 1    
   199  100  221 1    
   200  101  222 1    
   201  101  223 1    
   202  101  224 1    
   203  102  103 2    
   204  102  104 am   BACKBONE|DICT|INTERRES
   205  104  105 1    
   206  104  225 1    
   207  105  106 1    
   208  105  107 1    
   209  105  226 1    
   210  106  227 1    
   211  106  228 1    
   212  106  229 1    
   213  107  108 2    
   214  107  109 am   BACKBONE|DICT|INTERRES
   215  109  110 1    
   216  109  230 1    
   217  110  111 1    
   218  110  112 1    
   219  110  231 1    
   220  111  232 1    
   221  111  233 1    
   222  111  234 1    
   223  112  113 2    
   224  112  114 am   BACKBONE|DICT|INTERRES
   225  114  115 1    
   226  114  235 1    
   227  115  116 1    
   228  115  117 1    
   229  115  236 1    
   230  116  237 1    
   231  116  238 1    
   232  116  239 1    
   233  117  118 2    
   234  117  119 am   BACKBONE|DICT|INTERRES
   235  119  120 1    
   236  119  240 1    
   237  120  121 1    
   238  120  124 1    
   239  120  241 1    
   240  121  122 am   BACKBONE|DICT|INTERRES
   241  121  123 2    
   242  122  242 1    
   243  122  243 1    
   244  124  125 1    
   245  124  244 1    
   246  124  245 1    
   247  125  126 1    
   248  126  246 1    
   249  126  247 1    
@<TRIPOS>SUBSTRUCTURE
     1 UNK         1 GROUP             0       ****    0 ROOT    
