@<TRIPOS>MOLECULE
3R540
247   249    1
SMALL
USER_CHARGES


@<TRIPOS>ATOM
      1 CA         -3.5000  -11.9718  -46.9329 C.3       0 UNK        -0.1800 
      2 C          -2.2317  -12.6105  -46.3877 C.2       0 UNK         0.5000 
      3 O          -1.7308  -12.1849  -45.3488 O.2       0 UNK        -0.5000 
      4 N          -1.7216  -13.6430  -47.0707 N.am      1 UNK        -0.5000 
      5 CA         -0.4818  -14.3680  -46.7466 C.3       1 UNK         0.1400 
      6 C6         -0.1362  -15.4091  -47.8390 C.3       23 UNK        -0.0398 
      7 S7          0.0425  -14.6284  -49.4805 S.3       23 UNK        -0.2404 
      8 C8          1.6552  -15.2582  -50.0380 C.3       23 UNK        -0.0205 
      9 C9          1.5445  -16.6777  -50.5712 C.ar      23 UNK        -0.0193 
     10 C10         1.0536  -16.8872  -51.8623 C.ar      23 UNK        -0.1150 
     11 C11         0.9518  -18.1773  -52.3844 C.ar      23 UNK        -0.0193 
     12 C12         1.3536  -19.2614  -51.5974 C.ar      23 UNK        -0.1150 
     13 C13         1.8310  -19.0772  -50.2964 C.ar      23 UNK        -0.0193 
     14 C14         1.9330  -17.7736  -49.7919 C.ar      23 UNK        -0.1150 
     15 C15         2.2620  -20.3124  -49.5016 C.3       23 UNK        -0.0205 
     16 S16         2.1739  -20.1770  -47.6823 S.3       23 UNK        -0.2404 
     17 C17         0.3805  -20.0432  -47.3749 C.3       23 UNK        -0.0398 
     18 CA         -0.3943  -21.3908  -47.3310 C.3       11 UNK         0.1400 
     19 N           0.2385  -22.4318  -46.5159 N.am      11 UNK        -0.5000 
     20 C          -0.1190  -23.7260  -46.5555 C.2       10 UNK         0.5000 
     21 O          -0.9472  -24.1779  -47.3469 O.2       10 UNK        -0.5000 
     22 CA          0.5202  -24.6774  -45.5249 C.3       10 UNK         0.1400 
     23 CB          1.7886  -25.3206  -46.1046 C.3       10 UNK        -0.1800 
     24 N           0.8487  -24.0380  -44.2504 N.am      10 UNK        -0.5000 
     25 C          -0.0294  -23.4616  -43.4185 C.2       9 UNK         0.5000 
     26 O          -1.2427  -23.4258  -43.6240 O.2       9 UNK        -0.5000 
     27 CA          0.5419  -22.7486  -42.1745 C.3       9 UNK         0.1400 
     28 CB          1.9753  -23.1923  -41.8060 C.3       9 UNK        -0.1800 
     29 N           0.4894  -21.2865  -42.3019 N.am      9 UNK        -0.5000 
     30 C           0.9851  -20.5487  -43.3065 C.2       8 UNK         0.5000 
     31 O           1.4953  -21.0307  -44.3195 O.2       8 UNK        -0.5000 
     32 CA          0.8741  -19.0129  -43.2018 C.3       8 UNK         0.1400 
     33 CB          0.5482  -18.4911  -41.7850 C.3       8 UNK        -0.1800 
     34 N           2.0688  -18.3723  -43.7612 N.am      8 UNK        -0.5000 
     35 C           3.3339  -18.5293  -43.3386 C.2       7 UNK         0.5000 
     36 O           3.6394  -19.0512  -42.2660 O.2       7 UNK        -0.5000 
     37 CA          4.4549  -18.0573  -44.2865 C.3       7 UNK         0.1400 
     38 CB          5.3728  -19.2374  -44.6474 C.3       7 UNK        -0.1800 
     39 N           3.9273  -17.5041  -45.5388 N.am      7 UNK        -0.5000 
     40 C           3.7978  -16.2193  -45.8967 C.2       6 UNK         0.5000 
     41 O           3.2996  -15.9244  -46.9787 O.2       6 UNK        -0.5000 
     42 CA          4.2360  -15.0926  -44.9419 C.3       6 UNK         0.1400 
     43 CB          4.2989  -13.7190  -45.6376 C.3       6 UNK        -0.1800 
     44 N           3.2798  -14.9998  -43.8468 N.am      6 UNK        -0.5000 
     45 C           3.5893  -14.9563  -42.5466 C.2       5 UNK         0.5000 
     46 O           4.7333  -15.0861  -42.1073 O.2       5 UNK        -0.5000 
     47 CA          2.4057  -14.6951  -41.5948 C.3       5 UNK         0.1400 
     48 CB          2.8273  -14.4946  -40.1249 C.3       5 UNK        -0.1800 
     49 N           1.5762  -13.5817  -42.0640 N.am      5 UNK        -0.5000 
     50 C           1.9536  -12.3078  -42.2592 C.2       4 UNK         0.5000 
     51 O           3.0682  -11.8657  -41.9786 O.2       4 UNK        -0.5000 
     52 CA          0.9181  -11.3637  -42.9016 C.3       4 UNK         0.1400 
     53 CB          1.2743  -11.1200  -44.3769 C.3       4 UNK        -0.1800 
     54 N          -0.4529  -11.8694  -42.8305 N.am      4 UNK        -0.5000 
     55 C          -1.1929  -11.9462  -41.7167 C.2       3 UNK         0.5000 
     56 O          -0.8239  -11.5343  -40.6166 O.2       3 UNK        -0.5000 
     57 CA         -2.5616  -12.6348  -41.8557 C.3       3 UNK         0.1400 
     58 CB         -3.6282  -11.6379  -42.3346 C.3       3 UNK        -0.1800 
     59 N          -2.5185  -13.7770  -42.7719 N.am      3 UNK        -0.5000 
     60 C          -1.9325  -14.9517  -42.5008 C.2       2 UNK         0.5000 
     61 O          -1.3502  -15.2008  -41.4461 O.2       2 UNK        -0.5000 
     62 CA         -1.9865  -16.0195  -43.6077 C.3       2 UNK         0.1400 
     63 CB         -3.3551  -16.7162  -43.6237 C.3       2 UNK        -0.1800 
     64 N          -1.7178  -15.4625  -44.9313 N.am      2 UNK        -0.5000 
     65 C          -0.5192  -15.0370  -45.3549 C.2       1 UNK         0.5000 
     66 O           0.5157  -15.1318  -44.6914 O.2       1 UNK        -0.5000 
     67 C          -1.8311  -21.1449  -46.8316 C.2       11 UNK         0.5000 
     68 O          -2.7680  -21.1399  -47.6290 O.2       11 UNK        -0.5000 
     69 N          -1.9736  -20.9584  -45.5109 N.am      12 UNK        -0.5000 
     70 CA         -3.2282  -20.6328  -44.8296 C.3       12 UNK         0.1400 
     71 CB         -2.9412  -20.2958  -43.3584 C.3       12 UNK        -0.1800 
     72 C          -4.2783  -21.7489  -44.9390 C.2       12 UNK         0.5000 
     73 O          -5.4461  -21.4593  -45.2003 O.2       12 UNK        -0.5000 
     74 N          -3.8285  -23.0036  -44.8040 N.am      13 UNK        -0.5000 
     75 CA         -4.6363  -24.2198  -44.9314 C.3       13 UNK         0.1400 
     76 CB         -3.7533  -25.4331  -44.6011 C.3       13 UNK        -0.1800 
     77 C          -5.2973  -24.4019  -46.3135 C.2       13 UNK         0.5000 
     78 O          -6.3052  -25.1027  -46.4109 O.2       13 UNK        -0.5000 
     79 N          -4.7301  -23.7627  -47.3436 N.am      14 UNK        -0.5000 
     80 CA         -5.2146  -23.7680  -48.7214 C.3       14 UNK         0.1400 
     81 CB         -4.1119  -24.3634  -49.6136 C.3       14 UNK        -0.1800 
     82 C          -5.6773  -22.3665  -49.1761 C.2       14 UNK         0.5000 
     83 O          -5.7786  -22.1306  -50.3811 O.2       14 UNK        -0.5000 
     84 N          -5.9650  -21.4721  -48.2141 N.am      15 UNK        -0.5000 
     85 CA         -6.4976  -20.1132  -48.3807 C.3       15 UNK         0.1400 
     86 CB         -7.9252  -20.1616  -48.9654 C.3       15 UNK        -0.1800 
     87 C          -5.5526  -19.1984  -49.1852 C.2       15 UNK         0.5000 
     88 O          -5.9053  -18.7422  -50.2722 O.2       15 UNK        -0.5000 
     89 N          -4.3372  -18.9994  -48.6542 N.am      16 UNK        -0.5000 
     90 CA         -3.1870  -18.3437  -49.2992 C.3       16 UNK         0.1400 
     91 CB         -3.4538  -16.8444  -49.5458 C.3       16 UNK        -0.1800 
     92 C          -2.7365  -19.1056  -50.5650 C.2       16 UNK         0.5000 
     93 O          -2.3499  -18.4987  -51.5629 O.2       16 UNK        -0.5000 
     94 N          -2.8602  -20.4384  -50.4897 N.am      17 UNK        -0.5000 
     95 CA         -2.6791  -21.4377  -51.5427 C.3       17 UNK         0.1400 
     96 CB         -1.1935  -21.6162  -51.8842 C.3       17 UNK        -0.1800 
     97 C          -3.5556  -21.2378  -52.7955 C.2       17 UNK         0.5000 
     98 O          -3.2506  -21.8267  -53.8330 O.2       17 UNK        -0.5000 
     99 N          -4.6506  -20.4698  -52.6902 N.am      18 UNK        -0.5000 
    100 CA        -5.6127  -20.2438  -53.7703 C.3       18 UNK         0.1400 
    101 CB        -6.6208  -19.1644  -53.3546 C.3       18 UNK        -0.1800 
    102 C         -6.3453  -21.5288  -54.1923 C.2       18 UNK         0.5000 
    103 O         -6.6293  -21.6977  -55.3781 O.2       18 UNK        -0.5000 
    104 N         -6.5739  -22.4420  -53.2360 N.am      19 UNK        -0.5000 
    105 CA        -7.1458  -23.7700  -53.4772 C.3       19 UNK         0.1400 
    106 CB        -7.5114  -24.4110  -52.1298 C.3       19 UNK        -0.1800 
    107 C         -6.2145  -24.6997  -54.2847 C.2       19 UNK         0.5000 
    108 O         -6.6971  -25.6490  -54.9028 O.2       19 UNK        -0.5000 
    109 N         -4.9082  -24.4035  -54.2751 N.am      20 UNK        -0.5000 
    110 CA        -3.8663  -25.1057  -55.0241 C.3       20 UNK         0.1400 
    111 CB        -2.6985  -25.3881  -54.0626 C.3       20 UNK        -0.1800 
    112 C         -3.3786  -24.2924  -56.2413 C.2       20 UNK         0.5000 
    113 O         -2.4392  -24.7257  -56.9102 O.2       20 UNK        -0.5000 
    114 N         -3.9742  -23.1120  -56.4823 N.am      21 UNK        -0.5000 
    115 CA        -3.5971  -22.1069  -57.4867 C.3       21 UNK         0.1400 
    116 CB        -3.9521  -22.6078  -58.9015 C.3       21 UNK        -0.1800 
    117 C         -2.1266  -21.6375  -57.3687 C.2       21 UNK         0.5000 
    118 O         -1.4929  -21.3246  -58.3782 O.2       21 UNK        -0.5000 
    119 N         -1.6051  -21.6250  -56.1345 N.am      22 UNK        -0.5000 
    120 CA        -0.1927  -21.4099  -55.7813 C.3       22 UNK         0.1400 
    121 C          0.7833  -22.5305  -56.2683 C.2       22 UNK         0.5000 
    122 N          0.3087  -23.7023  -56.6767 N.am      22 UNK        -0.7600 
    123 O          1.9983  -22.3553  -56.2540 O.2       22 UNK        -0.5000 
    124 C124        0.2940  -19.9670  -56.1091 C.3       23 UNK        -0.0398 
    125 S125        1.4782  -19.3296  -54.8709 S.3       23 UNK        -0.2404 
    126 C126        0.3632  -18.3963  -53.7744 C.3       23 UNK        -0.0205 
    127 H127       -4.2902  -12.0096  -46.1831 H         1 UNK         0.0600 
    128 H128       -3.3144  -10.9270  -47.1814 H         1 UNK         0.0600 
    129 H129       -3.8562  -12.4784  -47.8301 H         1 UNK         0.0600 
    130 H130       -2.1680  -13.9246  -47.9318 H         1 UNK         0.3000 
    131 H131        0.3236  -13.6311  -46.7163 H         1 UNK         0.0600 
    132 H132        0.7844  -15.9355  -47.5867 H         1 UNK         0.0800 
    133 H133       -0.9112  -16.1739  -47.9064 H         1 UNK         0.0800 
    134 H134        2.3870  -15.1926  -49.2340 H         1 UNK         0.0800 
    135 H135        2.0265  -14.6070  -50.8305 H         1 UNK         0.0800 
    136 H136        0.7401  -16.0400  -52.4560 H         1 UNK         0.1150 
    137 H137        1.2985  -20.2599  -52.0050 H         1 UNK         0.1150 
    138 H138        2.3211  -17.6051  -48.7981 H         1 UNK         0.1150 
    139 H139        1.6680  -21.1761  -49.8039 H         1 UNK         0.0800 
    140 H140        3.2928  -20.5423  -49.7733 H         1 UNK         0.0800 
    141 H141        0.2789  -19.5110  -46.4278 H         1 UNK         0.0800 
    142 H142       -0.0531  -19.3862  -48.1304 H         1 UNK         0.0800 
    143 H143       -0.4603  -21.7643  -48.3552 H         1 UNK         0.0600 
    144 H144        0.9137  -22.1176  -45.8237 H         1 UNK         0.3000 
    145 H145       -0.2029  -25.4694  -45.3193 H         1 UNK         0.0600 
    146 H146        2.2034  -26.0621  -45.4216 H         1 UNK         0.0600 
    147 H147        1.5734  -25.8308  -47.0445 H         1 UNK         0.0600 
    148 H148        2.5609  -24.5765  -46.3041 H         1 UNK         0.0600 
    149 H149        1.8295  -23.9735  -44.0209 H         1 UNK         0.3000 
    150 H150       -0.1120  -23.0170  -41.3435 H         1 UNK         0.0600 
    151 H151        2.0367  -24.2754  -41.6911 H         1 UNK         0.0600 
    152 H152        2.2828  -22.7530  -40.8569 H         1 UNK         0.0600 
    153 H153        2.7085  -22.8917  -42.5553 H         1 UNK         0.0600 
    154 H154        0.0659  -20.8022  -41.5233 H         1 UNK         0.3000 
    155 H155        0.0504  -18.7304  -43.8574 H         1 UNK         0.0600 
    156 H156        0.4818  -17.4054  -41.7761 H         1 UNK         0.0600 
    157 H157        1.3011  -18.7840  -41.0528 H         1 UNK         0.0600 
    158 H158       -0.4163  -18.8615  -41.4364 H         1 UNK         0.0600 
    159 H159        1.9446  -17.9319  -44.6611 H         1 UNK         0.3000 
    160 H160        5.0563  -17.3297  -43.7440 H         1 UNK         0.0600 
    161 H161        4.8227  -20.0349  -45.1495 H         1 UNK         0.0600 
    162 H162        5.8330  -19.6667  -43.7565 H         1 UNK         0.0600 
    163 H163        6.1813  -18.9211  -45.3067 H         1 UNK         0.0600 
    164 H164        3.6267  -18.2000  -46.2062 H         1 UNK         0.3000 
    165 H165        5.2418  -15.3177  -44.5850 H         1 UNK         0.0600 
    166 H166        4.9878  -13.7390  -46.4829 H         1 UNK         0.0600 
    167 H167        3.3223  -13.4102  -46.0133 H         1 UNK         0.0600 
    168 H168        4.6480  -12.9477  -44.9507 H         1 UNK         0.0600 
    169 H169        2.3005  -14.9422  -44.1206 H         1 UNK         0.3000 
    170 H170        1.7776  -15.5831  -41.6374 H         1 UNK         0.0600 
    171 H171        3.3425  -15.3775  -39.7450 H         1 UNK         0.0600 
    172 H172        3.5017  -13.6463  -40.0053 H         1 UNK         0.0600 
    173 H173        1.9593  -14.3258  -39.4875 H         1 UNK         0.0600 
    174 H174        0.6379  -13.8312  -42.3440 H         1 UNK         0.3000 
    175 H175        0.9628  -10.4102  -42.3716 H         1 UNK         0.0600 
    176 H176        1.2418  -12.0452  -44.9536 H         1 UNK         0.0600 
    177 H177        0.5842  -10.4136  -44.8386 H         1 UNK         0.0600 
    178 H178        2.2788  -10.7065  -44.4760 H         1 UNK         0.0600 
    179 H179       -0.8737  -12.1595  -43.7110 H         1 UNK         0.3000 
    180 H180       -2.8545  -12.9977  -40.8681 H         1 UNK         0.0600 
    181 H181       -3.6996  -10.7876  -41.6552 H         1 UNK         0.0600 
    182 H182       -3.4002  -11.2464  -43.3267 H         1 UNK         0.0600 
    183 H183       -4.6129  -12.1038  -42.3760 H         1 UNK         0.0600 
    184 H184       -2.9205  -13.6339  -43.6863 H         1 UNK         0.3000 
    185 H185       -1.2247  -16.7682  -43.3908 H         1 UNK         0.0600 
    186 H186       -4.1665  -16.0120  -43.8117 H         1 UNK         0.0600 
    187 H187       -3.3973  -17.4833  -44.3960 H         1 UNK         0.0600 
    188 H188       -3.5569  -17.2016  -42.6679 H         1 UNK         0.0600 
    189 H189       -2.5121  -15.3308  -45.5401 H         1 UNK         0.3000 
    190 H190       -1.1655  -21.0960  -44.9237 H         1 UNK         0.3000 
    191 H191       -3.6437  -19.7441  -45.3084 H         1 UNK         0.0600 
    192 H192       -3.8559  -20.0033  -42.8412 H         1 UNK         0.0600 
    193 H193       -2.2417  -19.4661  -43.2702 H         1 UNK         0.0600 
    194 H194       -2.5213  -21.1469  -42.8216 H         1 UNK         0.0600 
    195 H195       -2.8540  -23.1392  -44.5441 H         1 UNK         0.3000 
    196 H196       -5.4374  -24.1641  -44.1918 H         1 UNK         0.0600 
    197 H197       -4.3208  -26.3624  -44.6651 H         1 UNK         0.0600 
    198 H198       -3.3537  -25.3662  -43.5890 H         1 UNK         0.0600 
    199 H199       -2.9104  -25.5125  -45.2891 H         1 UNK         0.0600 
    200 H200       -3.9083  -23.1990  -47.1667 H         1 UNK         0.3000 
    201 H201       -6.0939  -24.4078  -48.8162 H         1 UNK         0.0600 
    202 H202       -3.9586  -25.4171  -49.3805 H         1 UNK         0.0600 
    203 H203       -3.1583  -23.8585  -49.4584 H         1 UNK         0.0600 
    204 H204       -4.3638  -24.3063  -50.6729 H         1 UNK         0.0600 
    205 H205       -5.8256  -21.7573  -47.2511 H         1 UNK         0.3000 
    206 H206       -6.5686  -19.6839  -47.3801 H         1 UNK         0.0600 
    207 H207       -8.5824  -20.7742  -48.3484 H         1 UNK         0.0600 
    208 H208       -8.3605  -19.1627  -49.0114 H         1 UNK         0.0600 
    209 H209       -7.9399  -20.5693  -49.9768 H         1 UNK         0.0600 
    210 H210       -4.1119  -19.5166  -47.8138 H         1 UNK         0.3000 
    211 H211       -2.3579  -18.4137  -48.5945 H         1 UNK         0.0600 
    212 H212       -4.2410  -16.6862  -50.2830 H         1 UNK         0.0600 
    213 H213       -2.5583  -16.3470  -49.9196 H         1 UNK         0.0600 
    214 H214       -3.7473  -16.3393  -48.6258 H         1 UNK         0.0600 
    215 H215       -3.1658  -20.8080  -49.5959 H         1 UNK         0.3000 
    216 H216       -3.0169  -22.3761  -51.1153 H         1 UNK         0.0600 
    217 H217       -0.8301  -20.7694  -52.4579 H         1 UNK         0.0600 
    218 H218       -1.0316  -22.5118  -52.4847 H         1 UNK         0.0600 
    219 H219       -0.5848  -21.7120  -50.9855 H         1 UNK         0.0600 
    220 H220       -4.8687  -20.0467  -51.7960 H         1 UNK         0.3000 
    221 H221       -5.0580  -19.8771  -54.6365 H         1 UNK         0.0600 
    222 H222       -7.2240  -19.4856  -52.5044 H         1 UNK         0.0600 
    223 H223       -6.1165  -18.2382  -53.0782 H         1 UNK         0.0600 
    224 H224       -7.3041  -18.9324  -54.1724 H         1 UNK         0.0600 
    225 H225       -6.2977  -22.2305  -52.2800 H         1 UNK         0.3000 
    226 H226       -8.0638  -23.6417  -54.0544 H         1 UNK         0.0600 
    227 H227       -8.1857  -23.7733  -51.5579 H         1 UNK         0.0600 
    228 H228       -8.0136  -25.3680  -52.2764 H         1 UNK         0.0600 
    229 H229       -6.6273  -24.5958  -51.5200 H         1 UNK         0.0600 
    230 H230       -4.6032  -23.5826  -53.7685 H         1 UNK         0.3000 
    231 H231       -4.2406  -26.0599  -55.3998 H         1 UNK         0.0600 
    232 H232       -2.2483  -24.4656  -53.6941 H         1 UNK         0.0600 
    233 H233       -3.0295  -25.9666  -53.2000 H         1 UNK         0.0600 
    234 H234       -1.9126  -25.9628  -54.5544 H         1 UNK         0.0600 
    235 H235       -4.7390  -22.8435  -55.8774 H         1 UNK         0.3000 
    236 H236       -4.2110  -21.2287  -57.2821 H         1 UNK         0.0600 
    237 H237       -4.9967  -22.9136  -58.9599 H         1 UNK         0.0600 
    238 H238       -3.8036  -21.8237  -59.6448 H         1 UNK         0.0600 
    239 H239       -3.3364  -23.4586  -59.1948 H         1 UNK         0.0600 
    240 H240       -2.2180  -21.8570  -55.3553 H         1 UNK         0.3000 
    241 H241       -0.1900  -21.5161  -54.6971 H         1 UNK         0.0600 
    242 H242       -0.6878  -23.8923  -56.7174 H         1 UNK         0.3800 
    243 H243        0.9566  -24.4124  -56.9778 H         1 UNK         0.3800 
    244 H244       -0.5512  -19.2786  -56.1526 H         1 UNK         0.0800 
    245 H245        0.7518  -19.9253  -57.0987 H         1 UNK         0.0800 
    246 H246        0.1306  -17.4425  -54.2502 H         1 UNK         0.0800 
    247 H247       -0.5871  -18.9198  -53.6746 H         1 UNK         0.0800 
@<TRIPOS>BOND
     1    1    2 1    
     2    1  127 1    
     3    1  128 1    
     4    1  129 1    
     5    2    3 2    
     6    2    4 am   BACKBONE|DICT|INTERRES
     7    4    5 1    
     8    4  130 1    
     9    5    6 1    
    10    5   65 1    
    11    5  131 1    
    12    6    7 1    
    13    6  132 1    
    14    6  133 1    
    15    7    8 1    
    16    8    9 1    
    17    8  134 1    
    18    8  135 1    
    19    9   10 ar   
    20    9   14 ar   
    21   10   11 ar   
    22   10  136 1    
    23   11   12 ar   
    24   11  126 1    
    25   12   13 ar   
    26   12  137 1    
    27   13   14 ar   
    28   13   15 1    
    29   14  138 1    
    30   15   16 1    
    31   15  139 1    
    32   15  140 1    
    33   16   17 1    
    34   17   18 1    
    35   17  141 1    
    36   17  142 1    
    37   18   19 1    
    38   18   67 1    
    39   18  143 1    
    40   19   20 am   BACKBONE|DICT|INTERRES
    41   19  144 1    
    42   20   21 2    
    43   20   22 1    
    44   22   23 1    
    45   22   24 1    
    46   22  145 1    
    47   23  146 1    
    48   23  147 1    
    49   23  148 1    
    50   24   25 am   BACKBONE|DICT|INTERRES
    51   24  149 1    
    52   25   26 2    
    53   25   27 1    
    54   27   28 1    
    55   27   29 1    
    56   27  150 1    
    57   28  151 1    
    58   28  152 1    
    59   28  153 1    
    60   29   30 am   BACKBONE|DICT|INTERRES
    61   29  154 1    
    62   30   31 2    
    63   30   32 1    
    64   32   33 1    
    65   32   34 1    
    66   32  155 1    
    67   33  156 1    
    68   33  157 1    
    69   33  158 1    
    70   34   35 am   BACKBONE|DICT|INTERRES
    71   34  159 1    
    72   35   36 2    
    73   35   37 1    
    74   37   38 1    
    75   37   39 1    
    76   37  160 1    
    77   38  161 1    
    78   38  162 1    
    79   38  163 1    
    80   39   40 am   BACKBONE|DICT|INTERRES
    81   39  164 1    
    82   40   41 2    
    83   40   42 1    
    84   42   43 1    
    85   42   44 1    
    86   42  165 1    
    87   43  166 1    
    88   43  167 1    
    89   43  168 1    
    90   44   45 am   BACKBONE|DICT|INTERRES
    91   44  169 1    
    92   45   46 2    
    93   45   47 1    
    94   47   48 1    
    95   47   49 1    
    96   47  170 1    
    97   48  171 1    
    98   48  172 1    
    99   48  173 1    
   100   49   50 am   BACKBONE|DICT|INTERRES
   101   49  174 1    
   102   50   51 2    
   103   50   52 1    
   104   52   53 1    
   105   52   54 1    
   106   52  175 1    
   107   53  176 1    
   108   53  177 1    
   109   53  178 1    
   110   54   55 am   BACKBONE|DICT|INTERRES
   111   54  179 1    
   112   55   56 2    
   113   55   57 1    
   114   57   58 1    
   115   57   59 1    
   116   57  180 1    
   117   58  181 1    
   118   58  182 1    
   119   58  183 1    
   120   59   60 am   BACKBONE|DICT|INTERRES
   121   59  184 1    
   122   60   61 2    
   123   60   62 1    
   124   62   63 1    
   125   62   64 1    
   126   62  185 1    
   127   63  186 1    
   128   63  187 1    
   129   63  188 1    
   130   64   65 am   BACKBONE|DICT|INTERRES
   131   64  189 1    
   132   65   66 2    
   133   67   68 2    
   134   67   69 am   BACKBONE|DICT|INTERRES
   135   69   70 1    
   136   69  190 1    
   137   70   71 1    
   138   70   72 1    
   139   70  191 1    
   140   71  192 1    
   141   71  193 1    
   142   71  194 1    
   143   72   73 2    
   144   72   74 am   BACKBONE|DICT|INTERRES
   145   74   75 1    
   146   74  195 1    
   147   75   76 1    
   148   75   77 1    
   149   75  196 1    
   150   76  197 1    
   151   76  198 1    
   152   76  199 1    
   153   77   78 2    
   154   77   79 am   BACKBONE|DICT|INTERRES
   155   79   80 1    
   156   79  200 1    
   157   80   81 1    
   158   80   82 1    
   159   80  201 1    
   160   81  202 1    
   161   81  203 1    
   162   81  204 1    
   163   82   83 2    
   164   82   84 am   BACKBONE|DICT|INTERRES
   165   84   85 1    
   166   84  205 1    
   167   85   86 1    
   168   85   87 1    
   169   85  206 1    
   170   86  207 1    
   171   86  208 1    
   172   86  209 1    
   173   87   88 2    
   174   87   89 am   BACKBONE|DICT|INTERRES
   175   89   90 1    
   176   89  210 1    
   177   90   91 1    
   178   90   92 1    
   179   90  211 1    
   180   91  212 1    
   181   91  213 1    
   182   91  214 1    
   183   92   93 2    
   184   92   94 am   BACKBONE|DICT|INTERRES
   185   94   95 1    
   186   94  215 1    
   187   95   96 1    
   188   95   97 1    
   189   95  216 1    
   190   96  217 1    
   191   96  218 1    
   192   96  219 1    
   193   97   98 2    
   194   97   99 am   BACKBONE|DICT|INTERRES
   195   99  100 1    
   196   99  220 1    
   197  100  101 1    
   198  100  102 1    
   199  100  221 1    
   200  101  222 1    
   201  101  223 1    
   202  101  224 1    
   203  102  103 2    
   204  102  104 am   BACKBONE|DICT|INTERRES
   205  104  105 1    
   206  104  225 1    
   207  105  106 1    
   208  105  107 1    
   209  105  226 1    
   210  106  227 1    
   211  106  228 1    
   212  106  229 1    
   213  107  108 2    
   214  107  109 am   BACKBONE|DICT|INTERRES
   215  109  110 1    
   216  109  230 1    
   217  110  111 1    
   218  110  112 1    
   219  110  231 1    
   220  111  232 1    
   221  111  233 1    
   222  111  234 1    
   223  112  113 2    
   224  112  114 am   BACKBONE|DICT|INTERRES
   225  114  115 1    
   226  114  235 1    
   227  115  116 1    
   228  115  117 1    
   229  115  236 1    
   230  116  237 1    
   231  116  238 1    
   232  116  239 1    
   233  117  118 2    
   234  117  119 am   BACKBONE|DICT|INTERRES
   235  119  120 1    
   236  119  240 1    
   237  120  121 1    
   238  120  124 1    
   239  120  241 1    
   240  121  122 am   BACKBONE|DICT|INTERRES
   241  121  123 2    
   242  122  242 1    
   243  122  243 1    
   244  124  125 1    
   245  124  244 1    
   246  124  245 1    
   247  125  126 1    
   248  126  246 1    
   249  126  247 1    
@<TRIPOS>SUBSTRUCTURE
     1 UNK         1 GROUP             0       ****    0 ROOT    
