@<TRIPOS>MOLECULE
3R540
247   249    1
SMALL
USER_CHARGES


@<TRIPOS>ATOM
      1 CA          3.8283  -13.1163  -47.7788 C.3       0 UNK        -0.1800 
      2 C           2.5484  -13.1178  -46.9575 C.2       0 UNK         0.5000 
      3 O           2.5611  -13.5284  -45.7967 O.2       0 UNK        -0.5000 
      4 N           1.4336  -12.6796  -47.5560 N.am      1 UNK        -0.5000 
      5 CA          0.1260  -12.5824  -46.8936 C.3       1 UNK         0.1400 
      6 C6         -1.0426  -12.4134  -47.8954 C.3       23 UNK        -0.0398 
      7 S7         -1.1332  -13.7402  -49.1496 S.3       23 UNK        -0.2404 
      8 C8         -2.3655  -14.8566  -48.4113 C.3       23 UNK        -0.0205 
      9 C9         -2.9582  -15.8037  -49.4441 C.ar      23 UNK        -0.0193 
     10 C10        -3.9989  -15.3651  -50.2674 C.ar      23 UNK        -0.1150 
     11 C11        -4.5793  -16.2256  -51.2032 C.ar      23 UNK        -0.0193 
     12 C12        -4.1155  -17.5385  -51.3092 C.ar      23 UNK        -0.1150 
     13 C13        -3.0764  -17.9919  -50.4910 C.ar      23 UNK        -0.0193 
     14 C14        -2.4945  -17.1179  -49.5655 C.ar      23 UNK        -0.1150 
     15 C15        -2.5873  -19.4258  -50.6247 C.3       23 UNK        -0.0205 
     16 S16        -3.6410  -20.5781  -49.6925 S.3       23 UNK        -0.2404 
     17 C17        -2.9295  -20.4434  -48.0221 C.3       23 UNK        -0.0398 
     18 CA         -2.1740  -21.7324  -47.6003 C.3       11 UNK         0.1400 
     19 N          -0.9431  -21.4496  -46.8557 N.am      11 UNK        -0.5000 
     20 C          -0.0508  -22.3654  -46.4499 C.2       10 UNK         0.5000 
     21 O          -0.1385  -23.5641  -46.7064 O.2       10 UNK        -0.5000 
     22 CA          1.1013  -21.8734  -45.5538 C.3       10 UNK         0.1400 
     23 CB          2.2392  -21.2748  -46.3928 C.3       10 UNK        -0.1800 
     24 N           0.6506  -20.9054  -44.5525 N.am      10 UNK        -0.5000 
     25 C          -0.2216  -21.1907  -43.5735 C.2       9 UNK         0.5000 
     26 O          -0.6697  -22.3191  -43.3647 O.2       9 UNK        -0.5000 
     27 CA         -0.7265  -20.0066  -42.7289 C.3       9 UNK         0.1400 
     28 CB          0.2818  -19.6452  -41.6284 C.3       9 UNK        -0.1800 
     29 N          -1.0062  -18.8246  -43.5445 N.am      9 UNK        -0.5000 
     30 C          -1.9437  -18.7606  -44.5007 C.2       8 UNK         0.5000 
     31 O          -2.7317  -19.6732  -44.7487 O.2       8 UNK        -0.5000 
     32 CA         -1.9578  -17.4909  -45.3700 C.3       8 UNK         0.1400 
     33 CB         -2.7149  -16.3493  -44.6779 C.3       8 UNK        -0.1800 
     34 N          -0.6038  -17.0544  -45.7184 N.am      8 UNK        -0.5000 
     35 C           0.2021  -17.7203  -46.5577 C.2       7 UNK         0.5000 
     36 O          -0.1309  -18.7445  -47.1462 O.2       7 UNK        -0.5000 
     37 CA          1.6233  -17.1770  -46.7655 C.3       7 UNK         0.1400 
     38 CB          1.6566  -16.2490  -47.9842 C.3       7 UNK        -0.1800 
     39 N           2.1491  -16.5019  -45.5761 N.am      7 UNK        -0.5000 
     40 C           2.5026  -17.1667  -44.4662 C.2       6 UNK         0.5000 
     41 O           2.4258  -18.3915  -44.3527 O.2       6 UNK        -0.5000 
     42 CA          2.9724  -16.3229  -43.2686 C.3       6 UNK         0.1400 
     43 CB          4.4073  -15.8215  -43.4887 C.3       6 UNK        -0.1800 
     44 N           2.0910  -15.1919  -42.9645 N.am      6 UNK        -0.5000 
     45 C           0.7903  -15.2983  -42.6505 C.2       5 UNK         0.5000 
     46 O           0.1869  -16.3719  -42.6454 O.2       5 UNK        -0.5000 
     47 CA          0.0219  -14.0016  -42.3146 C.3       5 UNK         0.1400 
     48 CB         -1.1693  -14.2407  -41.3609 C.3       5 UNK        -0.1800 
     49 N           0.8717  -12.9138  -41.8184 N.am      5 UNK        -0.5000 
     50 C           1.5797  -12.8937  -40.6777 C.2       4 UNK         0.5000 
     51 O           1.6002  -13.8201  -39.8655 O.2       4 UNK        -0.5000 
     52 CA          2.4062  -11.6154  -40.4115 C.3       4 UNK         0.1400 
     53 CB          3.5368  -11.8377  -39.3849 C.3       4 UNK        -0.1800 
     54 N           2.9399  -10.9974  -41.6320 N.am      4 UNK        -0.5000 
     55 C           3.7522  -11.5622  -42.5361 C.2       3 UNK         0.5000 
     56 O           4.1286  -12.7328  -42.4796 O.2       3 UNK        -0.5000 
     57 CA          4.1691  -10.6679  -43.7188 C.3       3 UNK         0.1400 
     58 CB          5.2469  -11.3212  -44.6027 C.3       3 UNK        -0.1800 
     59 N           3.0159  -10.3266  -44.5513 N.am      3 UNK        -0.5000 
     60 C           2.1100   -9.3757  -44.2833 C.2       2 UNK         0.5000 
     61 O           2.1440   -8.6760  -43.2700 O.2       2 UNK        -0.5000 
     62 CA          0.9758   -9.1724  -45.3067 C.3       2 UNK         0.1400 
     63 CB          1.2527   -7.9325  -46.1706 C.3       2 UNK        -0.1800 
     64 N           0.7915  -10.3285  -46.1865 N.am      2 UNK        -0.5000 
     65 C           0.1187  -11.4400  -45.8553 C.2       1 UNK         0.5000 
     66 O          -0.4566  -11.5932  -44.7785 O.2       1 UNK        -0.5000 
     67 C          -3.1051  -22.6881  -46.8306 C.2       11 UNK         0.5000 
     68 O          -3.5819  -23.6647  -47.4065 O.2       11 UNK        -0.5000 
     69 N          -3.3114  -22.4127  -45.5351 N.am      12 UNK        -0.5000 
     70 CA         -4.1035  -23.2395  -44.6251 C.3       12 UNK         0.1400 
     71 CB         -4.2530  -22.5246  -43.2739 C.3       12 UNK        -0.1800 
     72 C          -3.5191  -24.6527  -44.4466 C.2       12 UNK         0.5000 
     73 O          -4.2659  -25.6284  -44.5266 O.2       12 UNK        -0.5000 
     74 N          -2.1931  -24.7430  -44.2661 N.am      13 UNK        -0.5000 
     75 CA         -1.4494  -26.0040  -44.1785 C.3       13 UNK         0.1400 
     76 CB          0.0027  -25.7104  -43.7727 C.3       13 UNK        -0.1800 
     77 C          -1.4977  -26.8276  -45.4822 C.2       13 UNK         0.5000 
     78 O          -1.5841  -28.0545  -45.4284 O.2       13 UNK        -0.5000 
     79 N          -1.4779  -26.1327  -46.6258 N.am      14 UNK        -0.5000 
     80 CA         -1.6034  -26.6882  -47.9740 C.3       14 UNK         0.1400 
     81 CB         -1.0198  -25.6654  -48.9613 C.3       14 UNK        -0.1800 
     82 C          -3.0514  -27.0460  -48.3724 C.2       14 UNK         0.5000 
     83 O          -3.2553  -27.5571  -49.4751 O.2       14 UNK        -0.5000 
     84 N          -4.0306  -26.7374  -47.5063 N.am      15 UNK        -0.5000 
     85 CA         -5.4776  -26.8755  -47.7145 C.3       15 UNK         0.1400 
     86 CB         -5.8811  -28.3634  -47.7644 C.3       15 UNK        -0.1800 
     87 C          -5.9795  -26.0729  -48.9353 C.2       15 UNK         0.5000 
     88 O          -6.8685  -26.5266  -49.6590 O.2       15 UNK        -0.5000 
     89 N          -5.3614  -24.9041  -49.1542 N.am      16 UNK        -0.5000 
     90 CA         -5.4967  -23.9548  -50.2605 C.3       16 UNK         0.1400 
     91 CB         -6.9160  -23.3638  -50.3316 C.3       16 UNK        -0.1800 
     92 C          -5.0422  -24.4963  -51.6277 C.2       16 UNK         0.5000 
     93 O          -4.2548  -23.8353  -52.3058 O.2       16 UNK        -0.5000 
     94 N          -5.5405  -25.6783  -52.0061 N.am      17 UNK        -0.5000 
     95 CA         -5.3997  -26.3012  -53.3218 C.3       17 UNK         0.1400 
     96 CB         -6.2200  -27.5997  -53.3470 C.3       17 UNK        -0.1800 
     97 C          -3.9503  -26.5729  -53.7604 C.2       17 UNK         0.5000 
     98 O          -3.6474  -26.4213  -54.9443 O.2       17 UNK        -0.5000 
     99 N          -3.0814  -26.9622  -52.8166 N.am      18 UNK        -0.5000 
    100 CA        -1.6694  -27.2399  -53.0954 C.3       18 UNK         0.1400 
    101 CB        -1.1465  -28.2993  -52.1120 C.3       18 UNK        -0.1800 
    102 C         -0.7886  -25.9736  -53.0912 C.2       18 UNK         0.5000 
    103 O          0.3473  -26.0408  -53.5627 O.2       18 UNK        -0.5000 
    104 N         -1.3101  -24.8510  -52.5750 N.am      19 UNK        -0.5000 
    105 CA        -0.6460  -23.5485  -52.5983 C.3       19 UNK         0.1400 
    106 CB        -0.9673  -22.7688  -51.3120 C.3       19 UNK        -0.1800 
    107 C         -1.0641  -22.7691  -53.8538 C.2       19 UNK         0.5000 
    108 O         -0.2114  -22.4558  -54.6846 O.2       19 UNK        -0.5000 
    109 N         -2.3740  -22.4968  -53.9691 N.am      20 UNK        -0.5000 
    110 CA        -3.0640  -21.8646  -55.1007 C.3       20 UNK         0.1400 
    111 CB        -3.1471  -22.8559  -56.2790 C.3       20 UNK        -0.1800 
    112 C         -2.4982  -20.4883  -55.5232 C.2       20 UNK         0.5000 
    113 O         -2.5463  -20.1432  -56.7053 O.2       20 UNK        -0.5000 
    114 N         -1.9787  -19.7162  -54.5563 N.am      21 UNK        -0.5000 
    115 CA        -1.2723  -18.4466  -54.7782 C.3       21 UNK         0.1400 
    116 CB        -0.6906  -17.9452  -53.4478 C.3       21 UNK        -0.1800 
    117 C         -2.1224  -17.3449  -55.4441 C.2       21 UNK         0.5000 
    118 O         -1.5748  -16.5230  -56.1803 O.2       21 UNK        -0.5000 
    119 N         -3.4378  -17.3677  -55.1982 N.am      22 UNK        -0.5000 
    120 CA        -4.4324  -16.5099  -55.8639 C.3       22 UNK         0.1400 
    121 C         -4.9540  -17.0812  -57.2185 C.2       22 UNK         0.5000 
    122 N         -4.4932  -18.2305  -57.6984 N.am      22 UNK        -0.7600 
    123 O         -5.7904  -16.4568  -57.8658 O.2       22 UNK        -0.5000 
    124 C124       -5.6000  -16.1450  -54.9096 C.3       23 UNK        -0.0398 
    125 S125       -5.0855  -14.9683  -53.6101 S.3       23 UNK        -0.2404 
    126 C126       -5.7162  -15.7354  -52.0842 C.3       23 UNK        -0.0205 
    127 H127        4.3892  -14.0343  -47.6033 H         1 UNK         0.0600 
    128 H128        4.4566  -12.2723  -47.4957 H         1 UNK         0.0600 
    129 H129        3.6193  -13.0462  -48.8464 H         1 UNK         0.0600 
    130 H130        1.4615  -12.3965  -48.5256 H         1 UNK         0.3000 
    131 H131       -0.0422  -13.5133  -46.3470 H         1 UNK         0.0600 
    132 H132       -1.9943  -12.3560  -47.3643 H         1 UNK         0.0800 
    133 H133       -0.9463  -11.4672  -48.4310 H         1 UNK         0.0800 
    134 H134       -3.1717  -14.2785  -47.9573 H         1 UNK         0.0800 
    135 H135       -1.8949  -15.4178  -47.6050 H         1 UNK         0.0800 
    136 H136       -4.3578  -14.3490  -50.1795 H         1 UNK         0.1150 
    137 H137       -4.5671  -18.2105  -52.0252 H         1 UNK         0.1150 
    138 H138       -1.6865  -17.4608  -48.9361 H         1 UNK         0.1150 
    139 H139       -1.5482  -19.5160  -50.3032 H         1 UNK         0.0800 
    140 H140       -2.6068  -19.7191  -51.6738 H         1 UNK         0.0800 
    141 H141       -3.7236  -20.1779  -47.3215 H         1 UNK         0.0800 
    142 H142       -2.2618  -19.5878  -48.0161 H         1 UNK         0.0800 
    143 H143       -1.8500  -22.2583  -48.5001 H         1 UNK         0.0600 
    144 H144       -0.7469  -20.4709  -46.6674 H         1 UNK         0.3000 
    145 H145        1.4986  -22.7389  -45.0196 H         1 UNK         0.0600 
    146 H146        2.6426  -22.0170  -47.0826 H         1 UNK         0.0600 
    147 H147        3.0606  -20.9361  -45.7611 H         1 UNK         0.0600 
    148 H148        1.9029  -20.4274  -46.9883 H         1 UNK         0.0600 
    149 H149        1.0120  -19.9613  -44.6273 H         1 UNK         0.3000 
    150 H150       -1.6594  -20.3121  -42.2508 H         1 UNK         0.0600 
    151 H151        1.2295  -19.3034  -42.0455 H         1 UNK         0.0600 
    152 H152        0.4922  -20.5062  -40.9929 H         1 UNK         0.0600 
    153 H153       -0.1040  -18.8523  -40.9873 H         1 UNK         0.0600 
    154 H154       -0.4338  -18.0032  -43.3644 H         1 UNK         0.3000 
    155 H155       -2.4871  -17.7275  -46.2955 H         1 UNK         0.0600 
    156 H156       -2.7531  -15.4573  -45.3026 H         1 UNK         0.0600 
    157 H157       -2.2511  -16.0765  -43.7323 H         1 UNK         0.0600 
    158 H158       -3.7440  -16.6408  -44.4642 H         1 UNK         0.0600 
    159 H159       -0.2339  -16.2579  -45.2228 H         1 UNK         0.3000 
    160 H160        2.2728  -18.0268  -46.9849 H         1 UNK         0.0600 
    161 H161        0.9898  -15.3990  -47.8539 H         1 UNK         0.0600 
    162 H162        1.3320  -16.7760  -48.8824 H         1 UNK         0.0600 
    163 H163        2.6631  -15.8781  -48.1744 H         1 UNK         0.0600 
    164 H164        2.2449  -15.4907  -45.5999 H         1 UNK         0.3000 
    165 H165        2.9753  -16.9763  -42.3938 H         1 UNK         0.0600 
    166 H166        5.0744  -16.6416  -43.7572 H         1 UNK         0.0600 
    167 H167        4.4572  -15.0793  -44.2867 H         1 UNK         0.0600 
    168 H168        4.8057  -15.3652  -42.5826 H         1 UNK         0.0600 
    169 H169        2.5259  -14.2772  -42.9534 H         1 UNK         0.3000 
    170 H170       -0.3913  -13.6600  -43.2624 H         1 UNK         0.0600 
    171 H171       -1.6941  -13.3099  -41.1459 H         1 UNK         0.0600 
    172 H172       -0.8506  -14.6734  -40.4124 H         1 UNK         0.0600 
    173 H173       -1.8973  -14.9244  -41.7951 H         1 UNK         0.0600 
    174 H174        0.9341  -12.1072  -42.4240 H         1 UNK         0.3000 
    175 H175        1.7107  -10.8925  -39.9830 H         1 UNK         0.0600 
    176 H176        4.2445  -12.5962  -39.7211 H         1 UNK         0.0600 
    177 H177        3.1367  -12.1660  -38.4249 H         1 UNK         0.0600 
    178 H178        4.0922  -10.9174  -39.2044 H         1 UNK         0.0600 
    179 H179        2.6424  -10.0442  -41.8146 H         1 UNK         0.3000 
    180 H180        4.5932   -9.7504  -43.3050 H         1 UNK         0.0600 
    181 H181        4.9073  -12.2680  -45.0232 H         1 UNK         0.0600 
    182 H182        6.1488  -11.5277  -44.0253 H         1 UNK         0.0600 
    183 H183        5.5322  -10.6687  -45.4279 H         1 UNK         0.0600 
    184 H184        2.8752  -10.8992  -45.3693 H         1 UNK         0.3000 
    185 H185        0.0536   -8.9991  -44.7477 H         1 UNK         0.0600 
    186 H186        1.3669   -7.0418  -45.5512 H         1 UNK         0.0600 
    187 H187        2.1661   -8.0443  -46.7562 H         1 UNK         0.0600 
    188 H188        0.4313   -7.7420  -46.8617 H         1 UNK         0.0600 
    189 H189        1.2389  -10.2849  -47.0907 H         1 UNK         0.3000 
    190 H190       -2.9142  -21.5599  -45.1504 H         1 UNK         0.3000 
    191 H191       -5.0986  -23.3466  -45.0617 H         1 UNK         0.0600 
    192 H192       -4.7225  -21.5482  -43.3951 H         1 UNK         0.0600 
    193 H193       -4.8772  -23.1045  -42.5931 H         1 UNK         0.0600 
    194 H194       -3.2900  -22.3725  -42.7866 H         1 UNK         0.0600 
    195 H195       -1.6532  -23.8871  -44.1798 H         1 UNK         0.3000 
    196 H196       -1.9072  -26.6057  -43.3908 H         1 UNK         0.0600 
    197 H197        0.5720  -26.6341  -43.6623 H         1 UNK         0.0600 
    198 H198        0.0467  -25.1841  -42.8190 H         1 UNK         0.0600 
    199 H199        0.5124  -25.0969  -44.5159 H         1 UNK         0.0600 
    200 H200       -1.3298  -25.1289  -46.5741 H         1 UNK         0.3000 
    201 H201       -1.0120  -27.6037  -48.0347 H         1 UNK         0.0600 
    202 H202       -1.0598  -26.0244  -49.9869 H         1 UNK         0.0600 
    203 H203        0.0250  -25.4500  -48.7373 H         1 UNK         0.0600 
    204 H204       -1.5711  -24.7261  -48.9278 H         1 UNK         0.0600 
    205 H205       -3.7619  -26.2902  -46.6388 H         1 UNK         0.3000 
    206 H206       -5.9553  -26.4308  -46.8405 H         1 UNK         0.0600 
    207 H207       -5.5169  -28.8992  -46.8878 H         1 UNK         0.0600 
    208 H208       -6.9658  -28.4739  -47.7839 H         1 UNK         0.0600 
    209 H209       -5.4861  -28.8614  -48.6504 H         1 UNK         0.0600 
    210 H210       -4.6489  -24.6323  -48.4771 H         1 UNK         0.3000 
    211 H211       -4.8174  -23.1406  -50.0148 H         1 UNK         0.0600 
    212 H212       -7.1968  -22.9041  -49.3840 H         1 UNK         0.0600 
    213 H213       -6.9748  -22.5898  -51.0978 H         1 UNK         0.0600 
    214 H214       -7.6637  -24.1194  -50.5733 H         1 UNK         0.0600 
    215 H215       -6.1471  -26.1501  -51.3399 H         1 UNK         0.3000 
    216 H216       -5.8326  -25.6125  -54.0501 H         1 UNK         0.0600 
    217 H217       -5.8654  -28.3120  -52.6006 H         1 UNK         0.0600 
    218 H218       -6.1577  -28.0850  -54.3220 H         1 UNK         0.0600 
    219 H219       -7.2740  -27.4043  -53.1487 H         1 UNK         0.0600 
    220 H220       -3.3962  -27.0738  -51.8607 H         1 UNK         0.3000 
    221 H221       -1.5860  -27.6718  -54.0952 H         1 UNK         0.0600 
    222 H222       -1.1946  -27.9640  -51.0787 H         1 UNK         0.0600 
    223 H223       -1.7230  -29.2213  -52.1874 H         1 UNK         0.0600 
    224 H224       -0.1067  -28.5504  -52.3247 H         1 UNK         0.0600 
    225 H225       -2.2771  -24.8616  -52.2787 H         1 UNK         0.3000 
    226 H226        0.4377  -23.6794  -52.6355 H         1 UNK         0.0600 
    227 H227       -0.4876  -23.2298  -50.4498 H         1 UNK         0.0600 
    228 H228       -0.5979  -21.7444  -51.3704 H         1 UNK         0.0600 
    229 H229       -2.0383  -22.7248  -51.1154 H         1 UNK         0.0600 
    230 H230       -2.9953  -22.8486  -53.2432 H         1 UNK         0.3000 
    231 H231       -4.0831  -21.6749  -54.7613 H         1 UNK         0.0600 
    232 H232       -2.1621  -23.0686  -56.6957 H         1 UNK         0.0600 
    233 H233       -3.7682  -22.4628  -57.0846 H         1 UNK         0.0600 
    234 H234       -3.5889  -23.8017  -55.9653 H         1 UNK         0.0600 
    235 H235       -1.9684  -20.0831  -53.6178 H         1 UNK         0.3000 
    236 H236       -0.4380  -18.6605  -55.4495 H         1 UNK         0.0600 
    237 H237       -1.4754  -17.6423  -52.7562 H         1 UNK         0.0600 
    238 H238       -0.0833  -18.7091  -52.9619 H         1 UNK         0.0600 
    239 H239       -0.0513  -17.0763  -53.6085 H         1 UNK         0.0600 
    240 H240       -3.7991  -18.0866  -54.5907 H         1 UNK         0.3000 
    241 H241       -3.9443  -15.5729  -56.1390 H         1 UNK         0.0600 
    242 H242       -3.7736  -18.7651  -57.2213 H         1 UNK         0.3800 
    243 H243       -4.8466  -18.5655  -58.5804 H         1 UNK         0.3800 
    244 H244       -6.4151  -15.6626  -55.4516 H         1 UNK         0.0800 
    245 H245       -6.0250  -17.0494  -54.4733 H         1 UNK         0.0800 
    246 H246       -6.3042  -14.9934  -51.5421 H         1 UNK         0.0800 
    247 H247       -6.4046  -16.5517  -52.3053 H         1 UNK         0.0800 
@<TRIPOS>BOND
     1    1    2 1    
     2    1  127 1    
     3    1  128 1    
     4    1  129 1    
     5    2    3 2    
     6    2    4 am   BACKBONE|DICT|INTERRES
     7    4    5 1    
     8    4  130 1    
     9    5    6 1    
    10    5   65 1    
    11    5  131 1    
    12    6    7 1    
    13    6  132 1    
    14    6  133 1    
    15    7    8 1    
    16    8    9 1    
    17    8  134 1    
    18    8  135 1    
    19    9   10 ar   
    20    9   14 ar   
    21   10   11 ar   
    22   10  136 1    
    23   11   12 ar   
    24   11  126 1    
    25   12   13 ar   
    26   12  137 1    
    27   13   14 ar   
    28   13   15 1    
    29   14  138 1    
    30   15   16 1    
    31   15  139 1    
    32   15  140 1    
    33   16   17 1    
    34   17   18 1    
    35   17  141 1    
    36   17  142 1    
    37   18   19 1    
    38   18   67 1    
    39   18  143 1    
    40   19   20 am   BACKBONE|DICT|INTERRES
    41   19  144 1    
    42   20   21 2    
    43   20   22 1    
    44   22   23 1    
    45   22   24 1    
    46   22  145 1    
    47   23  146 1    
    48   23  147 1    
    49   23  148 1    
    50   24   25 am   BACKBONE|DICT|INTERRES
    51   24  149 1    
    52   25   26 2    
    53   25   27 1    
    54   27   28 1    
    55   27   29 1    
    56   27  150 1    
    57   28  151 1    
    58   28  152 1    
    59   28  153 1    
    60   29   30 am   BACKBONE|DICT|INTERRES
    61   29  154 1    
    62   30   31 2    
    63   30   32 1    
    64   32   33 1    
    65   32   34 1    
    66   32  155 1    
    67   33  156 1    
    68   33  157 1    
    69   33  158 1    
    70   34   35 am   BACKBONE|DICT|INTERRES
    71   34  159 1    
    72   35   36 2    
    73   35   37 1    
    74   37   38 1    
    75   37   39 1    
    76   37  160 1    
    77   38  161 1    
    78   38  162 1    
    79   38  163 1    
    80   39   40 am   BACKBONE|DICT|INTERRES
    81   39  164 1    
    82   40   41 2    
    83   40   42 1    
    84   42   43 1    
    85   42   44 1    
    86   42  165 1    
    87   43  166 1    
    88   43  167 1    
    89   43  168 1    
    90   44   45 am   BACKBONE|DICT|INTERRES
    91   44  169 1    
    92   45   46 2    
    93   45   47 1    
    94   47   48 1    
    95   47   49 1    
    96   47  170 1    
    97   48  171 1    
    98   48  172 1    
    99   48  173 1    
   100   49   50 am   BACKBONE|DICT|INTERRES
   101   49  174 1    
   102   50   51 2    
   103   50   52 1    
   104   52   53 1    
   105   52   54 1    
   106   52  175 1    
   107   53  176 1    
   108   53  177 1    
   109   53  178 1    
   110   54   55 am   BACKBONE|DICT|INTERRES
   111   54  179 1    
   112   55   56 2    
   113   55   57 1    
   114   57   58 1    
   115   57   59 1    
   116   57  180 1    
   117   58  181 1    
   118   58  182 1    
   119   58  183 1    
   120   59   60 am   BACKBONE|DICT|INTERRES
   121   59  184 1    
   122   60   61 2    
   123   60   62 1    
   124   62   63 1    
   125   62   64 1    
   126   62  185 1    
   127   63  186 1    
   128   63  187 1    
   129   63  188 1    
   130   64   65 am   BACKBONE|DICT|INTERRES
   131   64  189 1    
   132   65   66 2    
   133   67   68 2    
   134   67   69 am   BACKBONE|DICT|INTERRES
   135   69   70 1    
   136   69  190 1    
   137   70   71 1    
   138   70   72 1    
   139   70  191 1    
   140   71  192 1    
   141   71  193 1    
   142   71  194 1    
   143   72   73 2    
   144   72   74 am   BACKBONE|DICT|INTERRES
   145   74   75 1    
   146   74  195 1    
   147   75   76 1    
   148   75   77 1    
   149   75  196 1    
   150   76  197 1    
   151   76  198 1    
   152   76  199 1    
   153   77   78 2    
   154   77   79 am   BACKBONE|DICT|INTERRES
   155   79   80 1    
   156   79  200 1    
   157   80   81 1    
   158   80   82 1    
   159   80  201 1    
   160   81  202 1    
   161   81  203 1    
   162   81  204 1    
   163   82   83 2    
   164   82   84 am   BACKBONE|DICT|INTERRES
   165   84   85 1    
   166   84  205 1    
   167   85   86 1    
   168   85   87 1    
   169   85  206 1    
   170   86  207 1    
   171   86  208 1    
   172   86  209 1    
   173   87   88 2    
   174   87   89 am   BACKBONE|DICT|INTERRES
   175   89   90 1    
   176   89  210 1    
   177   90   91 1    
   178   90   92 1    
   179   90  211 1    
   180   91  212 1    
   181   91  213 1    
   182   91  214 1    
   183   92   93 2    
   184   92   94 am   BACKBONE|DICT|INTERRES
   185   94   95 1    
   186   94  215 1    
   187   95   96 1    
   188   95   97 1    
   189   95  216 1    
   190   96  217 1    
   191   96  218 1    
   192   96  219 1    
   193   97   98 2    
   194   97   99 am   BACKBONE|DICT|INTERRES
   195   99  100 1    
   196   99  220 1    
   197  100  101 1    
   198  100  102 1    
   199  100  221 1    
   200  101  222 1    
   201  101  223 1    
   202  101  224 1    
   203  102  103 2    
   204  102  104 am   BACKBONE|DICT|INTERRES
   205  104  105 1    
   206  104  225 1    
   207  105  106 1    
   208  105  107 1    
   209  105  226 1    
   210  106  227 1    
   211  106  228 1    
   212  106  229 1    
   213  107  108 2    
   214  107  109 am   BACKBONE|DICT|INTERRES
   215  109  110 1    
   216  109  230 1    
   217  110  111 1    
   218  110  112 1    
   219  110  231 1    
   220  111  232 1    
   221  111  233 1    
   222  111  234 1    
   223  112  113 2    
   224  112  114 am   BACKBONE|DICT|INTERRES
   225  114  115 1    
   226  114  235 1    
   227  115  116 1    
   228  115  117 1    
   229  115  236 1    
   230  116  237 1    
   231  116  238 1    
   232  116  239 1    
   233  117  118 2    
   234  117  119 am   BACKBONE|DICT|INTERRES
   235  119  120 1    
   236  119  240 1    
   237  120  121 1    
   238  120  124 1    
   239  120  241 1    
   240  121  122 am   BACKBONE|DICT|INTERRES
   241  121  123 2    
   242  122  242 1    
   243  122  243 1    
   244  124  125 1    
   245  124  244 1    
   246  124  245 1    
   247  125  126 1    
   248  126  246 1    
   249  126  247 1    
@<TRIPOS>SUBSTRUCTURE
     1 UNK         1 GROUP             0       ****    0 ROOT    
