@<TRIPOS>MOLECULE
3R540
247   249    1
SMALL
USER_CHARGES


@<TRIPOS>ATOM
      1 CA          4.0379  -16.3596  -48.1681 C.3       0 UNK        -0.1800 
      2 C           3.6850  -15.2744  -47.1626 C.2       0 UNK         0.5000 
      3 O           4.4212  -15.0634  -46.1998 O.2       0 UNK        -0.5000 
      4 N           2.5665  -14.5734  -47.3871 N.am      1 UNK        -0.5000 
      5 CA          1.9856  -13.5810  -46.4736 C.3       1 UNK         0.1400 
      6 C6          0.5530  -13.1826  -46.9020 C.3       23 UNK        -0.0398 
      7 S7          0.4074  -12.1676  -48.4209 S.3       23 UNK        -0.2404 
      8 C8          0.4853  -13.3652  -49.8027 C.3       23 UNK        -0.0205 
      9 C9         -0.3864  -14.6099  -49.6502 C.ar      23 UNK        -0.0193 
     10 C10        -1.6591  -14.5540  -49.0683 C.ar      23 UNK        -0.1150 
     11 C11        -2.4170  -15.7151  -48.8914 C.ar      23 UNK        -0.0193 
     12 C12        -1.8986  -16.9392  -49.3265 C.ar      23 UNK        -0.1150 
     13 C13        -0.6651  -16.9997  -49.9775 C.ar      23 UNK        -0.0193 
     14 C14         0.0910  -15.8351  -50.1249 C.ar      23 UNK        -0.1150 
     15 C15        -0.1670  -18.3206  -50.5445 C.3       23 UNK        -0.0205 
     16 S16         1.3015  -18.9647  -49.6824 S.3       23 UNK        -0.2404 
     17 C17         0.7596  -19.0159  -47.9426 C.3       23 UNK        -0.0398 
     18 CA          0.1703  -20.3782  -47.5040 C.3       11 UNK         0.1400 
     19 N           0.3263  -20.5790  -46.0616 N.am      11 UNK        -0.5000 
     20 C           0.0841  -21.7212  -45.4060 C.2       10 UNK         0.5000 
     21 O          -0.2783  -22.7599  -45.9555 O.2       10 UNK        -0.5000 
     22 CA          0.2256  -21.6826  -43.8730 C.3       10 UNK         0.1400 
     23 CB          1.7005  -21.7703  -43.4543 C.3       10 UNK        -0.1800 
     24 N          -0.3857  -20.4900  -43.2838 N.am      10 UNK        -0.5000 
     25 C          -1.6967  -20.2133  -43.3344 C.2       9 UNK         0.5000 
     26 O          -2.5325  -20.9614  -43.8414 O.2       9 UNK        -0.5000 
     27 CA         -2.1455  -18.8541  -42.7685 C.3       9 UNK         0.1400 
     28 CB         -2.2568  -18.9042  -41.2375 C.3       9 UNK        -0.1800 
     29 N          -1.2613  -17.7568  -43.1599 N.am      9 UNK        -0.5000 
     30 C          -1.0502  -17.3590  -44.4229 C.2       8 UNK         0.5000 
     31 O          -1.5930  -17.8618  -45.4049 O.2       8 UNK        -0.5000 
     32 CA         -0.0169  -16.2385  -44.6227 C.3       8 UNK         0.1400 
     33 CB         -0.6204  -14.8868  -44.1993 C.3       8 UNK        -0.1800 
     34 N           1.2264  -16.4965  -43.8902 N.am      8 UNK        -0.5000 
     35 C           2.0046  -17.5778  -44.0595 C.2       7 UNK         0.5000 
     36 O           1.7951  -18.4423  -44.9066 O.2       7 UNK        -0.5000 
     37 CA          3.1691  -17.7747  -43.0746 C.3       7 UNK         0.1400 
     38 CB          4.4227  -17.0146  -43.5249 C.3       7 UNK        -0.1800 
     39 N           2.8033  -17.3786  -41.7171 N.am      7 UNK        -0.5000 
     40 C           1.9310  -18.0457  -40.9477 C.2       6 UNK         0.5000 
     41 O           1.3903  -19.1004  -41.2812 O.2       6 UNK        -0.5000 
     42 CA          1.5667  -17.3892  -39.6034 C.3       6 UNK         0.1400 
     43 CB          2.6127  -17.7295  -38.5315 C.3       6 UNK        -0.1800 
     44 N           1.4446  -15.9344  -39.7199 N.am      6 UNK        -0.5000 
     45 C           0.4866  -15.3135  -40.4234 C.2       5 UNK         0.5000 
     46 O          -0.4419  -15.9067  -40.9717 O.2       5 UNK        -0.5000 
     47 CA          0.6191  -13.7852  -40.5831 C.3       5 UNK         0.1400 
     48 CB         -0.1104  -13.0589  -39.4437 C.3       5 UNK        -0.1800 
     49 N           2.0158  -13.3387  -40.6304 N.am      5 UNK        -0.5000 
     50 C           2.8681  -13.6247  -41.6236 C.2       4 UNK         0.5000 
     51 O           2.5467  -14.2409  -42.6420 O.2       4 UNK        -0.5000 
     52 CA          4.3351  -13.2356  -41.3951 C.3       4 UNK         0.1400 
     53 CB          4.9719  -14.2112  -40.3803 C.3       4 UNK        -0.1800 
     54 N           5.0599  -13.2761  -42.6649 N.am      4 UNK        -0.5000 
     55 C           6.3219  -12.8684  -42.8540 C.2       3 UNK         0.5000 
     56 O           7.0103  -12.3420  -41.9785 O.2       3 UNK        -0.5000 
     57 CA          6.9234  -13.0778  -44.2542 C.3       3 UNK         0.1400 
     58 CB          7.3172  -14.5468  -44.4718 C.3       3 UNK        -0.1800 
     59 N           6.0216  -12.6438  -45.3199 N.am      3 UNK        -0.5000 
     60 C           5.8521  -11.3606  -45.6755 C.2       2 UNK         0.5000 
     61 O           6.4391  -10.4223  -45.1346 O.2       2 UNK        -0.5000 
     62 CA          4.8818  -11.0604  -46.8366 C.3       2 UNK         0.1400 
     63 CB          5.6558  -10.8766  -48.1509 C.3       2 UNK        -0.1800 
     64 N           3.8704  -12.0970  -47.0278 N.am      2 UNK        -0.5000 
     65 C           2.8711  -12.3523  -46.1740 C.2       1 UNK         0.5000 
     66 O           2.6479  -11.6781  -45.1678 O.2       1 UNK        -0.5000 
     67 C          -1.2982  -20.5464  -47.9533 C.2       11 UNK         0.5000 
     68 O          -1.5513  -21.1830  -48.9759 O.2       11 UNK        -0.5000 
     69 N          -2.2400  -20.0080  -47.1644 N.am      12 UNK        -0.5000 
     70 CA         -3.6818  -20.1488  -47.3687 C.3       12 UNK         0.1400 
     71 CB         -4.4334  -19.2364  -46.3884 C.3       12 UNK        -0.1800 
     72 C          -4.1649  -21.6037  -47.2273 C.2       12 UNK         0.5000 
     73 O          -4.9917  -22.0476  -48.0242 O.2       12 UNK        -0.5000 
     74 N          -3.6330  -22.3200  -46.2260 N.am      13 UNK        -0.5000 
     75 CA         -3.9082  -23.7363  -45.9808 C.3       13 UNK         0.1400 
     76 CB         -3.3630  -24.1334  -44.6007 C.3       13 UNK        -0.1800 
     77 C          -3.3380  -24.6549  -47.0774 C.2       13 UNK         0.5000 
     78 O          -3.9760  -25.6483  -47.4292 O.2       13 UNK        -0.5000 
     79 N          -2.1682  -24.2966  -47.6228 N.am      14 UNK        -0.5000 
     80 CA         -1.4728  -24.9840  -48.7130 C.3       14 UNK         0.1400 
     81 CB          0.0176  -24.6011  -48.6671 C.3       14 UNK        -0.1800 
     82 C          -2.1101  -24.7231  -50.0974 C.2       14 UNK         0.5000 
     83 O          -1.4142  -24.3471  -51.0431 O.2       14 UNK        -0.5000 
     84 N          -3.4262  -24.9396  -50.1998 N.am      15 UNK        -0.5000 
     85 CA         -4.1902  -24.8968  -51.4433 C.3       15 UNK         0.1400 
     86 CB         -5.6888  -24.8667  -51.1038 C.3       15 UNK        -0.1800 
     87 C          -3.8604  -26.1070  -52.3358 C.2       15 UNK         0.5000 
     88 O          -3.5943  -27.2004  -51.8293 O.2       15 UNK        -0.5000 
     89 N          -3.9366  -25.9058  -53.6530 N.am      16 UNK        -0.5000 
     90 CA         -3.6919  -26.9094  -54.6871 C.3       16 UNK         0.1400 
     91 CB         -3.1651  -26.1947  -55.9454 C.3       16 UNK        -0.1800 
     92 C          -4.9653  -27.7353  -54.9573 C.2       16 UNK         0.5000 
     93 O          -5.4637  -27.7479  -56.0830 O.2       16 UNK        -0.5000 
     94 N          -5.4790  -28.3853  -53.9018 N.am      17 UNK        -0.5000 
     95 CA         -6.7235  -29.1622  -53.8539 C.3       17 UNK         0.1400 
     96 CB         -6.6248  -30.4223  -54.7400 C.3       17 UNK        -0.1800 
     97 C          -7.9525  -28.2850  -54.1726 C.2       17 UNK         0.5000 
     98 O          -8.6511  -28.5211  -55.1600 O.2       17 UNK        -0.5000 
     99 N          -8.1642  -27.2690  -53.3216 N.am      18 UNK        -0.5000 
    100 CA        -9.2105  -26.2404  -53.4104 C.3       18 UNK         0.1400 
    101 CB       -10.6203  -26.8587  -53.2944 C.3       18 UNK        -0.1800 
    102 C         -9.0426  -25.3215  -54.6403 C.2       18 UNK         0.5000 
    103 O        -10.0231  -24.9560  -55.2916 O.2       18 UNK        -0.5000 
    104 N         -7.7893  -24.9524  -54.9176 N.am      19 UNK        -0.5000 
    105 CA        -7.3645  -24.0151  -55.9508 C.3       19 UNK         0.1400 
    106 CB        -7.1741  -24.7597  -57.2841 C.3       19 UNK        -0.1800 
    107 C         -6.0630  -23.3468  -55.4809 C.2       19 UNK         0.5000 
    108 O         -5.5005  -23.7583  -54.4616 O.2       19 UNK        -0.5000 
    109 N         -5.5988  -22.3380  -56.2293 N.am      20 UNK        -0.5000 
    110 CA        -4.4276  -21.5066  -55.9291 C.3       20 UNK         0.1400 
    111 CB        -3.1237  -22.3374  -55.9959 C.3       20 UNK        -0.1800 
    112 C         -4.6298  -20.7288  -54.6100 C.2       20 UNK         0.5000 
    113 O         -5.6035  -19.9792  -54.5161 O.2       20 UNK        -0.5000 
    114 N         -3.7347  -20.9229  -53.6298 N.am      21 UNK        -0.5000 
    115 CA        -3.7157  -20.2754  -52.3145 C.3       21 UNK         0.1400 
    116 CB        -4.9318  -20.7151  -51.4663 C.3       21 UNK        -0.1800 
    117 C         -3.5340  -18.7463  -52.4400 C.2       21 UNK         0.5000 
    118 O         -2.6035  -18.3143  -53.1236 O.2       21 UNK        -0.5000 
    119 N         -4.3837  -17.9629  -51.7660 N.am      22 UNK        -0.5000 
    120 CA        -4.3438  -16.4930  -51.7422 C.3       22 UNK         0.1400 
    121 C         -4.6773  -15.8543  -53.1185 C.2       22 UNK         0.5000 
    122 N         -3.9353  -14.8377  -53.5371 N.am      22 UNK        -0.7600 
    123 O         -5.6343  -16.2388  -53.7862 O.2       22 UNK        -0.5000 
    124 C124       -5.2618  -15.9025  -50.6375 C.3       23 UNK        -0.0398 
    125 S125       -5.0577  -16.6826  -48.9967 S.3       23 UNK        -0.2404 
    126 C126       -3.7833  -15.6316  -48.2175 C.3       23 UNK        -0.0205 
    127 H127        4.0627  -17.3306  -47.6732 H         1 UNK         0.0600 
    128 H128        5.0208  -16.1684  -48.5983 H         1 UNK         0.0600 
    129 H129        3.3126  -16.4120  -48.9805 H         1 UNK         0.0600 
    130 H130        2.0125  -14.7826  -48.2041 H         1 UNK         0.3000 
    131 H131        1.9040  -14.0959  -45.5158 H         1 UNK         0.0600 
    132 H132       -0.0590  -14.0775  -46.9941 H         1 UNK         0.0800 
    133 H133        0.0861  -12.6090  -46.0997 H         1 UNK         0.0800 
    134 H134        1.5289  -13.6483  -49.9457 H         1 UNK         0.0800 
    135 H135        0.1873  -12.8509  -50.7170 H         1 UNK         0.0800 
    136 H136       -2.0503  -13.6058  -48.7277 H         1 UNK         0.1150 
    137 H137       -2.4761  -17.8425  -49.1938 H         1 UNK         0.1150 
    138 H138        1.0535  -15.8888  -50.6146 H         1 UNK         0.1150 
    139 H139       -0.9561  -19.0722  -50.5244 H         1 UNK         0.0800 
    140 H140        0.0795  -18.1801  -51.5978 H         1 UNK         0.0800 
    141 H141        0.0917  -18.1888  -47.7003 H         1 UNK         0.0800 
    142 H142        1.6700  -18.8192  -47.3781 H         1 UNK         0.0800 
    143 H143        0.7492  -21.1690  -47.9859 H         1 UNK         0.0600 
    144 H144        0.6652  -19.7781  -45.5333 H         1 UNK         0.3000 
    145 H145       -0.2924  -22.5553  -43.4701 H         1 UNK         0.0600 
    146 H146        1.8011  -21.7995  -42.3692 H         1 UNK         0.0600 
    147 H147        2.1643  -22.6749  -43.8495 H         1 UNK         0.0600 
    148 H148        2.2759  -20.9201  -43.8202 H         1 UNK         0.0600 
    149 H149        0.2347  -19.8424  -42.8092 H         1 UNK         0.3000 
    150 H150       -3.1364  -18.6389  -43.1733 H         1 UNK         0.0600 
    151 H151       -2.9364  -19.6965  -40.9214 H         1 UNK         0.0600 
    152 H152       -2.6430  -17.9653  -40.8403 H         1 UNK         0.0600 
    153 H153       -1.2912  -19.0922  -40.7677 H         1 UNK         0.0600 
    154 H154       -0.7984  -17.2537  -42.4092 H         1 UNK         0.3000 
    155 H155        0.2362  -16.1918  -45.6838 H         1 UNK         0.0600 
    156 H156       -1.1217  -14.9427  -43.2344 H         1 UNK         0.0600 
    157 H157       -1.3697  -14.5605  -44.9211 H         1 UNK         0.0600 
    158 H158        0.1311  -14.1032  -44.1230 H         1 UNK         0.0600 
    159 H159        1.5180  -15.7947  -43.2176 H         1 UNK         0.3000 
    160 H160        3.4148  -18.8386  -43.0596 H         1 UNK         0.0600 
    161 H161        4.2458  -15.9425  -43.5882 H         1 UNK         0.0600 
    162 H162        4.7432  -17.3480  -44.5128 H         1 UNK         0.0600 
    163 H163        5.2548  -17.1783  -42.8403 H         1 UNK         0.0600 
    164 H164        3.1688  -16.4997  -41.3865 H         1 UNK         0.3000 
    165 H165        0.6029  -17.7915  -39.2840 H         1 UNK         0.0600 
    166 H166        2.3272  -17.3250  -37.5603 H         1 UNK         0.0600 
    167 H167        2.7142  -18.8094  -38.4155 H         1 UNK         0.0600 
    168 H168        3.5965  -17.3323  -38.7850 H         1 UNK         0.0600 
    169 H169        2.1604  -15.3768  -39.2791 H         1 UNK         0.3000 
    170 H170        0.1418  -13.5074  -41.5249 H         1 UNK         0.0600 
    171 H171       -1.1590  -13.3565  -39.4001 H         1 UNK         0.0600 
    172 H172        0.3345  -13.2804  -38.4728 H         1 UNK         0.0600 
    173 H173       -0.0865  -11.9783  -39.5860 H         1 UNK         0.0600 
    174 H174        2.3515  -12.8278  -39.8262 H         1 UNK         0.3000 
    175 H175        4.3658  -12.2170  -41.0038 H         1 UNK         0.0600 
    176 H176        5.0170  -15.2269  -40.7749 H         1 UNK         0.0600 
    177 H177        5.9866  -13.9146  -40.1165 H         1 UNK         0.0600 
    178 H178        4.4071  -14.2448  -39.4482 H         1 UNK         0.0600 
    179 H179        4.5303  -13.6616  -43.4372 H         1 UNK         0.3000 
    180 H180        7.8392  -12.4852  -44.3124 H         1 UNK         0.0600 
    181 H181        6.4522  -15.2077  -44.4424 H         1 UNK         0.0600 
    182 H182        8.0120  -14.8828  -43.7012 H         1 UNK         0.0600 
    183 H183        7.8081  -14.6841  -45.4354 H         1 UNK         0.0600 
    184 H184        5.4830  -13.3681  -45.7844 H         1 UNK         0.3000 
    185 H185        4.3711  -10.1231  -46.6060 H         1 UNK         0.0600 
    186 H186        6.4028  -10.0872  -48.0574 H         1 UNK         0.0600 
    187 H187        6.1774  -11.7894  -48.4417 H         1 UNK         0.0600 
    188 H188        4.9886  -10.5957  -48.9661 H         1 UNK         0.0600 
    189 H189        3.9829  -12.7048  -47.8255 H         1 UNK         0.3000 
    190 H190       -1.9511  -19.4367  -46.3738 H         1 UNK         0.3000 
    191 H191       -3.9052  -19.8131  -48.3822 H         1 UNK         0.0600 
    192 H192       -4.2694  -19.5316  -45.3522 H         1 UNK         0.0600 
    193 H193       -5.5076  -19.2668  -46.5740 H         1 UNK         0.0600 
    194 H194       -4.1155  -18.2000  -46.4909 H         1 UNK         0.0600 
    195 H195       -3.0077  -21.8580  -45.5729 H         1 UNK         0.3000 
    196 H196       -4.9917  -23.8706  -45.9678 H         1 UNK         0.0600 
    197 H197       -3.5753  -25.1808  -44.3830 H         1 UNK         0.0600 
    198 H198       -3.8202  -23.5375  -43.8105 H         1 UNK         0.0600 
    199 H199       -2.2831  -23.9969  -44.5391 H         1 UNK         0.0600 
    200 H200       -1.6965  -23.4831  -47.2424 H         1 UNK         0.3000 
    201 H201       -1.5392  -26.0592  -48.5355 H         1 UNK         0.0600 
    202 H202        0.4589  -24.8493  -47.7017 H         1 UNK         0.0600 
    203 H203        0.1608  -23.5332  -48.8358 H         1 UNK         0.0600 
    204 H204        0.5863  -25.1359  -49.4286 H         1 UNK         0.0600 
    205 H205       -3.9103  -25.2745  -49.3737 H         1 UNK         0.3000 
    206 H206       -3.9320  -23.9804  -51.9787 H         1 UNK         0.0600 
    207 H207       -6.0005  -25.7689  -50.5759 H         1 UNK         0.0600 
    208 H208       -6.2944  -24.7848  -52.0066 H         1 UNK         0.0600 
    209 H209       -5.9313  -24.0106  -50.4735 H         1 UNK         0.0600 
    210 H210       -4.2926  -25.0097  -53.9814 H         1 UNK         0.3000 
    211 H211       -2.9176  -27.6010  -54.3481 H         1 UNK         0.0600 
    212 H212       -3.8927  -25.4858  -56.3422 H         1 UNK         0.0600 
    213 H213       -2.9370  -26.9104  -56.7361 H         1 UNK         0.0600 
    214 H214       -2.2480  -25.6459  -55.7311 H         1 UNK         0.0600 
    215 H215       -4.9821  -28.2899  -53.0227 H         1 UNK         0.3000 
    216 H216       -6.8401  -29.5002  -52.8231 H         1 UNK         0.0600 
    217 H217       -7.5137  -31.0444  -54.6287 H         1 UNK         0.0600 
    218 H218       -5.7652  -31.0320  -54.4622 H         1 UNK         0.0600 
    219 H219       -6.5321  -30.1753  -55.7979 H         1 UNK         0.0600 
    220 H220       -7.5279  -27.1712  -52.5436 H         1 UNK         0.3000 
    221 H221       -9.0718  -25.5967  -52.5405 H         1 UNK         0.0600 
    222 H222      -10.8751  -27.4625  -54.1656 H         1 UNK         0.0600 
    223 H223      -10.7019  -27.4920  -52.4110 H         1 UNK         0.0600 
    224 H224      -11.3798  -26.0812  -53.2058 H         1 UNK         0.0600 
    225 H225       -7.0394  -25.2491  -54.3082 H         1 UNK         0.3000 
    226 H226       -8.1204  -23.2359  -56.0680 H         1 UNK         0.0600 
    227 H227       -8.0881  -25.2715  -57.5854 H         1 UNK         0.0600 
    228 H228       -6.9097  -24.0717  -58.0875 H         1 UNK         0.0600 
    229 H229       -6.3820  -25.5054  -57.2171 H         1 UNK         0.0600 
    230 H230       -6.1369  -22.0499  -57.0343 H         1 UNK         0.3000 
    231 H231       -4.3744  -20.7546  -56.7177 H         1 UNK         0.0600 
    232 H232       -3.0374  -22.8460  -56.9561 H         1 UNK         0.0600 
    233 H233       -3.0700  -23.0987  -55.2175 H         1 UNK         0.0600 
    234 H234       -2.2463  -21.6975  -55.8951 H         1 UNK         0.0600 
    235 H235       -2.9602  -21.5421  -53.8189 H         1 UNK         0.3000 
    236 H236       -2.8213  -20.6414  -51.8074 H         1 UNK         0.0600 
    237 H237       -5.8771  -20.3707  -51.8860 H         1 UNK         0.0600 
    238 H238       -4.9816  -21.8010  -51.3931 H         1 UNK         0.0600 
    239 H239       -4.8628  -20.3350  -50.4476 H         1 UNK         0.0600 
    240 H240       -5.1346  -18.3904  -51.2457 H         1 UNK         0.3000 
    241 H241       -3.3175  -16.2134  -51.5051 H         1 UNK         0.0600 
    242 H242       -3.1488  -14.5011  -53.0034 H         1 UNK         0.3800 
    243 H243       -4.1539  -14.4037  -54.4206 H         1 UNK         0.3800 
    244 H244       -5.0957  -14.8282  -50.5416 H         1 UNK         0.0800 
    245 H245       -6.3099  -16.0199  -50.9189 H         1 UNK         0.0800 
    246 H246       -3.6673  -15.9335  -47.1761 H         1 UNK         0.0800 
    247 H247       -4.1433  -14.6019  -48.2003 H         1 UNK         0.0800 
@<TRIPOS>BOND
     1    1    2 1    
     2    1  127 1    
     3    1  128 1    
     4    1  129 1    
     5    2    3 2    
     6    2    4 am   BACKBONE|DICT|INTERRES
     7    4    5 1    
     8    4  130 1    
     9    5    6 1    
    10    5   65 1    
    11    5  131 1    
    12    6    7 1    
    13    6  132 1    
    14    6  133 1    
    15    7    8 1    
    16    8    9 1    
    17    8  134 1    
    18    8  135 1    
    19    9   10 ar   
    20    9   14 ar   
    21   10   11 ar   
    22   10  136 1    
    23   11   12 ar   
    24   11  126 1    
    25   12   13 ar   
    26   12  137 1    
    27   13   14 ar   
    28   13   15 1    
    29   14  138 1    
    30   15   16 1    
    31   15  139 1    
    32   15  140 1    
    33   16   17 1    
    34   17   18 1    
    35   17  141 1    
    36   17  142 1    
    37   18   19 1    
    38   18   67 1    
    39   18  143 1    
    40   19   20 am   BACKBONE|DICT|INTERRES
    41   19  144 1    
    42   20   21 2    
    43   20   22 1    
    44   22   23 1    
    45   22   24 1    
    46   22  145 1    
    47   23  146 1    
    48   23  147 1    
    49   23  148 1    
    50   24   25 am   BACKBONE|DICT|INTERRES
    51   24  149 1    
    52   25   26 2    
    53   25   27 1    
    54   27   28 1    
    55   27   29 1    
    56   27  150 1    
    57   28  151 1    
    58   28  152 1    
    59   28  153 1    
    60   29   30 am   BACKBONE|DICT|INTERRES
    61   29  154 1    
    62   30   31 2    
    63   30   32 1    
    64   32   33 1    
    65   32   34 1    
    66   32  155 1    
    67   33  156 1    
    68   33  157 1    
    69   33  158 1    
    70   34   35 am   BACKBONE|DICT|INTERRES
    71   34  159 1    
    72   35   36 2    
    73   35   37 1    
    74   37   38 1    
    75   37   39 1    
    76   37  160 1    
    77   38  161 1    
    78   38  162 1    
    79   38  163 1    
    80   39   40 am   BACKBONE|DICT|INTERRES
    81   39  164 1    
    82   40   41 2    
    83   40   42 1    
    84   42   43 1    
    85   42   44 1    
    86   42  165 1    
    87   43  166 1    
    88   43  167 1    
    89   43  168 1    
    90   44   45 am   BACKBONE|DICT|INTERRES
    91   44  169 1    
    92   45   46 2    
    93   45   47 1    
    94   47   48 1    
    95   47   49 1    
    96   47  170 1    
    97   48  171 1    
    98   48  172 1    
    99   48  173 1    
   100   49   50 am   BACKBONE|DICT|INTERRES
   101   49  174 1    
   102   50   51 2    
   103   50   52 1    
   104   52   53 1    
   105   52   54 1    
   106   52  175 1    
   107   53  176 1    
   108   53  177 1    
   109   53  178 1    
   110   54   55 am   BACKBONE|DICT|INTERRES
   111   54  179 1    
   112   55   56 2    
   113   55   57 1    
   114   57   58 1    
   115   57   59 1    
   116   57  180 1    
   117   58  181 1    
   118   58  182 1    
   119   58  183 1    
   120   59   60 am   BACKBONE|DICT|INTERRES
   121   59  184 1    
   122   60   61 2    
   123   60   62 1    
   124   62   63 1    
   125   62   64 1    
   126   62  185 1    
   127   63  186 1    
   128   63  187 1    
   129   63  188 1    
   130   64   65 am   BACKBONE|DICT|INTERRES
   131   64  189 1    
   132   65   66 2    
   133   67   68 2    
   134   67   69 am   BACKBONE|DICT|INTERRES
   135   69   70 1    
   136   69  190 1    
   137   70   71 1    
   138   70   72 1    
   139   70  191 1    
   140   71  192 1    
   141   71  193 1    
   142   71  194 1    
   143   72   73 2    
   144   72   74 am   BACKBONE|DICT|INTERRES
   145   74   75 1    
   146   74  195 1    
   147   75   76 1    
   148   75   77 1    
   149   75  196 1    
   150   76  197 1    
   151   76  198 1    
   152   76  199 1    
   153   77   78 2    
   154   77   79 am   BACKBONE|DICT|INTERRES
   155   79   80 1    
   156   79  200 1    
   157   80   81 1    
   158   80   82 1    
   159   80  201 1    
   160   81  202 1    
   161   81  203 1    
   162   81  204 1    
   163   82   83 2    
   164   82   84 am   BACKBONE|DICT|INTERRES
   165   84   85 1    
   166   84  205 1    
   167   85   86 1    
   168   85   87 1    
   169   85  206 1    
   170   86  207 1    
   171   86  208 1    
   172   86  209 1    
   173   87   88 2    
   174   87   89 am   BACKBONE|DICT|INTERRES
   175   89   90 1    
   176   89  210 1    
   177   90   91 1    
   178   90   92 1    
   179   90  211 1    
   180   91  212 1    
   181   91  213 1    
   182   91  214 1    
   183   92   93 2    
   184   92   94 am   BACKBONE|DICT|INTERRES
   185   94   95 1    
   186   94  215 1    
   187   95   96 1    
   188   95   97 1    
   189   95  216 1    
   190   96  217 1    
   191   96  218 1    
   192   96  219 1    
   193   97   98 2    
   194   97   99 am   BACKBONE|DICT|INTERRES
   195   99  100 1    
   196   99  220 1    
   197  100  101 1    
   198  100  102 1    
   199  100  221 1    
   200  101  222 1    
   201  101  223 1    
   202  101  224 1    
   203  102  103 2    
   204  102  104 am   BACKBONE|DICT|INTERRES
   205  104  105 1    
   206  104  225 1    
   207  105  106 1    
   208  105  107 1    
   209  105  226 1    
   210  106  227 1    
   211  106  228 1    
   212  106  229 1    
   213  107  108 2    
   214  107  109 am   BACKBONE|DICT|INTERRES
   215  109  110 1    
   216  109  230 1    
   217  110  111 1    
   218  110  112 1    
   219  110  231 1    
   220  111  232 1    
   221  111  233 1    
   222  111  234 1    
   223  112  113 2    
   224  112  114 am   BACKBONE|DICT|INTERRES
   225  114  115 1    
   226  114  235 1    
   227  115  116 1    
   228  115  117 1    
   229  115  236 1    
   230  116  237 1    
   231  116  238 1    
   232  116  239 1    
   233  117  118 2    
   234  117  119 am   BACKBONE|DICT|INTERRES
   235  119  120 1    
   236  119  240 1    
   237  120  121 1    
   238  120  124 1    
   239  120  241 1    
   240  121  122 am   BACKBONE|DICT|INTERRES
   241  121  123 2    
   242  122  242 1    
   243  122  243 1    
   244  124  125 1    
   245  124  244 1    
   246  124  245 1    
   247  125  126 1    
   248  126  246 1    
   249  126  247 1    
@<TRIPOS>SUBSTRUCTURE
     1 UNK         1 GROUP             0       ****    0 ROOT    
