@<TRIPOS>MOLECULE
3R540
247   249    1
SMALL
USER_CHARGES


@<TRIPOS>ATOM
      1 CA          2.1843  -12.1627  -47.3820 C.3       0 UNK        -0.1800 
      2 C           1.1377  -13.1146  -46.8258 C.2       0 UNK         0.5000 
      3 O           0.1950  -12.6776  -46.1641 O.2       0 UNK        -0.5000 
      4 N           1.2847  -14.4195  -47.0897 N.am      1 UNK        -0.5000 
      5 CA          0.3917  -15.4756  -46.5951 C.3       1 UNK         0.1400 
      6 C6          0.9913  -16.8891  -46.7629 C.3       23 UNK        -0.0398 
      7 S7          1.3810  -17.3680  -48.4832 S.3       23 UNK        -0.2404 
      8 C8          0.2990  -18.8192  -48.6850 C.3       23 UNK        -0.0205 
      9 C9          0.8356  -19.7961  -49.7189 C.ar      23 UNK        -0.0193 
     10 C10         0.1537  -20.0231  -50.9175 C.ar      23 UNK        -0.1150 
     11 C11         0.6076  -20.9900  -51.8200 C.ar      23 UNK        -0.0193 
     12 C12         1.7477  -21.7376  -51.5090 C.ar      23 UNK        -0.1150 
     13 C13         2.4374  -21.5258  -50.3110 C.ar      23 UNK        -0.0193 
     14 C14         1.9883  -20.5319  -49.4355 C.ar      23 UNK        -0.1150 
     15 C15         3.6460  -22.3962  -49.9678 C.3       23 UNK        -0.0205 
     16 S16         3.7132  -22.9449  -48.2224 S.3       23 UNK        -0.2404 
     17 C17         1.9968  -23.4985  -47.9342 C.3       23 UNK        -0.0398 
     18 CA          1.8320  -24.4928  -46.7559 C.3       11 UNK         0.1400 
     19 N           2.3260  -23.9474  -45.4939 N.am      11 UNK        -0.5000 
     20 C           3.3857  -24.3918  -44.8069 C.2       10 UNK         0.5000 
     21 O           4.1044  -25.3195  -45.1800 O.2       10 UNK        -0.5000 
     22 CA          3.6864  -23.6987  -43.4613 C.3       10 UNK         0.1400 
     23 CB          4.8158  -22.6714  -43.6300 C.3       10 UNK        -0.1800 
     24 N           2.5128  -23.0378  -42.8828 N.am      10 UNK        -0.5000 
     25 C           1.4434  -23.6913  -42.4009 C.2       9 UNK         0.5000 
     26 O           1.3924  -24.9173  -42.3047 O.2       9 UNK        -0.5000 
     27 CA          0.2134  -22.8594  -41.9807 C.3       9 UNK         0.1400 
     28 CB          0.1154  -22.7829  -40.4496 C.3       9 UNK        -0.1800 
     29 N           0.1894  -21.4989  -42.5213 N.am      9 UNK        -0.5000 
     30 C           0.1176  -21.1684  -43.8184 C.2       8 UNK         0.5000 
     31 O           0.0274  -21.9911  -44.7294 O.2       8 UNK        -0.5000 
     32 CA          0.2182  -19.6662  -44.1523 C.3       8 UNK         0.1400 
     33 CB         -1.1832  -19.0482  -44.2674 C.3       8 UNK        -0.1800 
     34 N           0.9889  -18.8851  -43.1798 N.am      8 UNK        -0.5000 
     35 C           2.2639  -19.0945  -42.8300 C.2       7 UNK         0.5000 
     36 O           2.9600  -19.9925  -43.3050 O.2       7 UNK        -0.5000 
     37 CA          2.8355  -18.1531  -41.7506 C.3       7 UNK         0.1400 
     38 CB          4.0007  -18.8029  -40.9831 C.3       7 UNK        -0.1800 
     39 N           3.2863  -16.8693  -42.2897 N.am      7 UNK        -0.5000 
     40 C           2.5052  -15.9133  -42.8066 C.2       6 UNK         0.5000 
     41 O           1.2831  -16.0217  -42.9530 O.2       6 UNK        -0.5000 
     42 CA          3.2145  -14.6140  -43.2218 C.3       6 UNK         0.1400 
     43 CB          3.9472  -14.7896  -44.5611 C.3       6 UNK        -0.1800 
     44 N           2.2087  -13.5676  -43.3615 N.am      6 UNK        -0.5000 
     45 C           2.1364  -12.4414  -42.6440 C.2       5 UNK         0.5000 
     46 O           3.0198  -12.0548  -41.8779 O.2       5 UNK        -0.5000 
     47 CA          0.8434  -11.6160  -42.7915 C.3       5 UNK         0.1400 
     48 CB          1.0719  -10.4004  -43.7031 C.3       5 UNK        -0.1800 
     49 N          -0.2611  -12.4137  -43.3293 N.am      5 UNK        -0.5000 
     50 C          -1.0472  -13.2245  -42.6054 C.2       4 UNK         0.5000 
     51 O          -0.9462  -13.3481  -41.3836 O.2       4 UNK        -0.5000 
     52 CA         -2.1096  -14.0402  -43.3793 C.3       4 UNK         0.1400 
     53 CB         -3.3299  -14.4190  -42.5159 C.3       4 UNK        -0.1800 
     54 N          -2.5320  -13.4070  -44.6340 N.am      4 UNK        -0.5000 
     55 C          -3.1155  -12.2075  -44.7942 C.2       3 UNK         0.5000 
     56 O          -3.4867  -11.4980  -43.8585 O.2       3 UNK        -0.5000 
     57 CA         -3.2752  -11.6889  -46.2382 C.3       3 UNK         0.1400 
     58 CB         -2.6031  -10.3139  -46.3960 C.3       3 UNK        -0.1800 
     59 N          -2.6729  -12.6009  -47.2113 N.am      3 UNK        -0.5000 
     60 C          -3.3440  -13.4161  -48.0358 C.2       2 UNK         0.5000 
     61 O          -4.5715  -13.4465  -48.1197 O.2       2 UNK        -0.5000 
     62 CA         -2.4955  -14.3623  -48.9124 C.3       2 UNK         0.1400 
     63 CB         -2.2249  -13.7059  -50.2754 C.3       2 UNK        -0.1800 
     64 N          -1.2104  -14.7243  -48.3081 N.am      2 UNK        -0.5000 
     65 C          -1.0465  -15.3764  -47.1477 C.2       1 UNK         0.5000 
     66 O          -1.9769  -15.8164  -46.4747 O.2       1 UNK        -0.5000 
     67 C           0.3538  -24.8675  -46.5407 C.2       11 UNK         0.5000 
     68 O          -0.5112  -24.3900  -47.2742 O.2       11 UNK        -0.5000 
     69 N           0.0736  -25.6877  -45.5164 N.am      12 UNK        -0.5000 
     70 CA         -1.2710  -26.0206  -45.0222 C.3       12 UNK         0.1400 
     71 CB         -1.1429  -27.0023  -43.8474 C.3       12 UNK        -0.1800 
     72 C          -2.2611  -26.5761  -46.0690 C.2       12 UNK         0.5000 
     73 O          -3.4694  -26.4141  -45.8967 O.2       12 UNK        -0.5000 
     74 N          -1.7429  -27.2012  -47.1354 N.am      13 UNK        -0.5000 
     75 CA         -2.5223  -27.6768  -48.2810 C.3       13 UNK         0.1400 
     76 CB         -1.6431  -28.6062  -49.1316 C.3       13 UNK        -0.1800 
     77 C          -3.0949  -26.5344  -49.1470 C.2       13 UNK         0.5000 
     78 O          -4.1526  -26.7101  -49.7528 O.2       13 UNK        -0.5000 
     79 N          -2.3934  -25.3944  -49.1885 N.am      14 UNK        -0.5000 
     80 CA         -2.8212  -24.1686  -49.8602 C.3       14 UNK         0.1400 
     81 CB         -1.5917  -23.4673  -50.4627 C.3       14 UNK        -0.1800 
     82 C          -3.5388  -23.2300  -48.8779 C.2       14 UNK         0.5000 
     83 O          -4.5774  -22.6637  -49.2212 O.2       14 UNK        -0.5000 
     84 N          -2.9642  -23.0962  -47.6734 N.am      15 UNK        -0.5000 
     85 CA         -3.3647  -22.2007  -46.5895 C.3       15 UNK         0.1400 
     86 CB         -4.7073  -22.6581  -45.9778 C.3       15 UNK        -0.1800 
     87 C          -3.3416  -20.7196  -47.0278 C.2       15 UNK         0.5000 
     88 O          -2.5120  -20.3386  -47.8555 O.2       15 UNK        -0.5000 
     89 N          -4.2268  -19.8967  -46.4506 N.am      16 UNK        -0.5000 
     90 CA         -4.3387  -18.4675  -46.7533 C.3       16 UNK         0.1400 
     91 CB         -5.0359  -17.7591  -45.5820 C.3       16 UNK        -0.1800 
     92 C          -5.0641  -18.1784  -48.0832 C.2       16 UNK         0.5000 
     93 O          -4.9974  -17.0512  -48.5724 O.2       16 UNK        -0.5000 
     94 N          -5.7223  -19.1887  -48.6710 N.am      17 UNK        -0.5000 
     95 CA         -6.4523  -19.1264  -49.9425 C.3       17 UNK         0.1400 
     96 CB         -7.4708  -20.2796  -49.9814 C.3       17 UNK        -0.1800 
     97 C          -5.5181  -19.1277  -51.1742 C.2       17 UNK         0.5000 
     98 O          -5.7810  -19.8258  -52.1559 O.2       17 UNK        -0.5000 
     99 N          -4.4393  -18.3376  -51.1038 N.am      18 UNK        -0.5000 
    100 CA        -3.3433  -18.2642  -52.0689 C.3       18 UNK         0.1400 
    101 CB        -2.3320  -17.2126  -51.5941 C.3       18 UNK        -0.1800 
    102 C         -3.7960  -17.9488  -53.5014 C.2       18 UNK         0.5000 
    103 O         -3.2834  -18.5524  -54.4419 O.2       18 UNK        -0.5000 
    104 N         -4.7778  -17.0472  -53.6367 N.am      19 UNK        -0.5000 
    105 CA        -5.3607  -16.6244  -54.9121 C.3       19 UNK         0.1400 
    106 CB        -6.3347  -15.4648  -54.6544 C.3       19 UNK        -0.1800 
    107 C         -6.0630  -17.7584  -55.6855 C.2       19 UNK         0.5000 
    108 O         -6.1143  -17.7049  -56.9147 O.2       19 UNK        -0.5000 
    109 N         -6.5754  -18.7608  -54.9601 N.am      20 UNK        -0.5000 
    110 CA        -7.1611  -19.9713  -55.5291 C.3       20 UNK         0.1400 
    111 CB        -8.3316  -20.4293  -54.6440 C.3       20 UNK        -0.1800 
    112 C         -6.1110  -21.0874  -55.6559 C.2       20 UNK         0.5000 
    113 O         -6.0955  -21.7942  -56.6643 O.2       20 UNK        -0.5000 
    114 N         -5.2714  -21.2407  -54.6230 N.am      21 UNK        -0.5000 
    115 CA        -4.3169  -22.3380  -54.4891 C.3       21 UNK         0.1400 
    116 CB        -3.8840  -22.4488  -53.0218 C.3       21 UNK        -0.1800 
    117 C         -3.0957  -22.2510  -55.4239 C.2       21 UNK         0.5000 
    118 O         -2.6245  -23.2978  -55.8715 O.2       21 UNK        -0.5000 
    119 N         -2.5974  -21.0404  -55.7085 N.am      22 UNK        -0.5000 
    120 CA        -1.4385  -20.8275  -56.5959 C.3       22 UNK         0.1400 
    121 C         -1.4002  -19.4619  -57.3377 C.2       22 UNK         0.5000 
    122 N         -2.1628  -18.4533  -56.9412 N.am      22 UNK        -0.7600 
    123 O         -0.6804  -19.3235  -58.3234 O.2       22 UNK        -0.5000 
    124 C124       -0.0806  -21.1846  -55.9287 C.3       23 UNK        -0.0398 
    125 S125        0.3577  -20.1793  -54.4623 S.3       23 UNK        -0.2404 
    126 C126       -0.1592  -21.2727  -53.1036 C.3       23 UNK        -0.0205 
    127 H127        2.8764  -12.6710  -48.0535 H         1 UNK         0.0600 
    128 H128        2.7594  -11.7242  -46.5668 H         1 UNK         0.0600 
    129 H129        1.7020  -11.3567  -47.9347 H         1 UNK         0.0600 
    130 H130        2.0584  -14.7322  -47.6601 H         1 UNK         0.3000 
    131 H131        0.2978  -15.3126  -45.5191 H         1 UNK         0.0600 
    132 H132        1.9120  -16.9653  -46.1834 H         1 UNK         0.0800 
    133 H133        0.3171  -17.6191  -46.3194 H         1 UNK         0.0800 
    134 H134        0.2082  -19.3589  -47.7414 H         1 UNK         0.0800 
    135 H135       -0.7077  -18.4872  -48.9400 H         1 UNK         0.0800 
    136 H136       -0.7429  -19.4664  -51.1374 H         1 UNK         0.1150 
    137 H137        2.0873  -22.5001  -52.1959 H         1 UNK         0.1150 
    138 H138        2.5106  -20.3580  -48.5053 H         1 UNK         0.1150 
    139 H139        3.6608  -23.2852  -50.6003 H         1 UNK         0.0800 
    140 H140        4.5553  -21.8397  -50.1970 H         1 UNK         0.0800 
    141 H141        1.6240  -23.9490  -48.8561 H         1 UNK         0.0800 
    142 H142        1.3864  -22.6113  -47.7567 H         1 UNK         0.0800 
    143 H143        2.3576  -25.4152  -47.0102 H         1 UNK         0.0600 
    144 H144        1.7584  -23.2078  -45.0953 H         1 UNK         0.3000 
    145 H145        4.0249  -24.4652  -42.7612 H         1 UNK         0.0600 
    146 H146        5.0437  -22.1730  -42.6876 H         1 UNK         0.0600 
    147 H147        4.5548  -21.9053  -44.3611 H         1 UNK         0.0600 
    148 H148        5.7317  -23.1527  -43.9748 H         1 UNK         0.0600 
    149 H149        2.4952  -22.0254  -42.9382 H         1 UNK         0.3000 
    150 H150       -0.6695  -23.3808  -42.3564 H         1 UNK         0.0600 
    151 H151        0.0954  -23.7802  -40.0079 H         1 UNK         0.0600 
    152 H152       -0.7962  -22.2735  -40.1367 H         1 UNK         0.0600 
    153 H153        0.9643  -22.2502  -40.0190 H         1 UNK         0.0600 
    154 H154        0.2672  -20.7497  -41.8497 H         1 UNK         0.3000 
    155 H155        0.7231  -19.5845  -45.1162 H         1 UNK         0.0600 
    156 H156       -1.1400  -17.9855  -44.5064 H         1 UNK         0.0600 
    157 H157       -1.7490  -19.1561  -43.3412 H         1 UNK         0.0600 
    158 H158       -1.7518  -19.5328  -45.0572 H         1 UNK         0.0600 
    159 H159        0.5347  -18.0630  -42.8007 H         1 UNK         0.3000 
    160 H160        2.0388  -17.9560  -41.0301 H         1 UNK         0.0600 
    161 H161        3.7036  -19.7643  -40.5615 H         1 UNK         0.0600 
    162 H162        4.8617  -18.9806  -41.6288 H         1 UNK         0.0600 
    163 H163        4.3271  -18.1740  -40.1546 H         1 UNK         0.0600 
    164 H164        4.2809  -16.7024  -42.2410 H         1 UNK         0.3000 
    165 H165        3.9388  -14.3528  -42.4475 H         1 UNK         0.0600 
    166 H166        4.3911  -13.8507  -44.8926 H         1 UNK         0.0600 
    167 H167        4.7547  -15.5173  -44.4741 H         1 UNK         0.0600 
    168 H168        3.2785  -15.1378  -45.3463 H         1 UNK         0.0600 
    169 H169        1.3897  -13.8316  -43.8895 H         1 UNK         0.3000 
    170 H170        0.5686  -11.2488  -41.8005 H         1 UNK         0.0600 
    171 H171        1.3760  -10.6974  -44.7066 H         1 UNK         0.0600 
    172 H172        0.1666   -9.7996  -43.7925 H         1 UNK         0.0600 
    173 H173        1.8535   -9.7540  -43.3022 H         1 UNK         0.0600 
    174 H174       -0.3758  -12.3920  -44.3387 H         1 UNK         0.3000 
    175 H175       -1.6149  -14.9696  -43.6658 H         1 UNK         0.0600 
    176 H176       -3.8437  -13.5382  -42.1303 H         1 UNK         0.0600 
    177 H177       -4.0493  -15.0050  -43.0881 H         1 UNK         0.0600 
    178 H178       -3.0306  -15.0237  -41.6591 H         1 UNK         0.0600 
    179 H179       -2.3174  -13.9347  -45.4705 H         1 UNK         0.3000 
    180 H180       -4.3443  -11.5739  -46.4270 H         1 UNK         0.0600 
    181 H181       -2.7159   -9.9349  -47.4118 H         1 UNK         0.0600 
    182 H182       -1.5363  -10.3601  -46.1720 H         1 UNK         0.0600 
    183 H183       -3.0482   -9.5776  -45.7256 H         1 UNK         0.0600 
    184 H184       -1.6605  -12.6492  -47.1920 H         1 UNK         0.3000 
    185 H185       -3.0622  -15.2812  -49.0697 H         1 UNK         0.0600 
    186 H186       -3.1565  -13.5339  -50.8161 H         1 UNK         0.0600 
    187 H187       -1.7269  -12.7416  -50.1645 H         1 UNK         0.0600 
    188 H188       -1.5919  -14.3317  -50.9040 H         1 UNK         0.0600 
    189 H189       -0.3823  -14.3958  -48.7829 H         1 UNK         0.3000 
    190 H190        0.8434  -26.0192  -44.9523 H         1 UNK         0.3000 
    191 H191       -1.7045  -25.0930  -44.6424 H         1 UNK         0.0600 
    192 H192       -0.5684  -26.5699  -43.0290 H         1 UNK         0.0600 
    193 H193       -0.6526  -27.9281  -44.1504 H         1 UNK         0.0600 
    194 H194       -2.1226  -27.2655  -43.4460 H         1 UNK         0.0600 
    195 H195       -0.7404  -27.3023  -47.1908 H         1 UNK         0.3000 
    196 H196       -3.3655  -28.2582  -47.9019 H         1 UNK         0.0600 
    197 H197       -1.2924  -29.4592  -48.5504 H         1 UNK         0.0600 
    198 H198       -0.7698  -28.0850  -49.5258 H         1 UNK         0.0600 
    199 H199       -2.2011  -29.0011  -49.9817 H         1 UNK         0.0600 
    200 H200       -1.5712  -25.3102  -48.6002 H         1 UNK         0.3000 
    201 H201       -3.5130  -24.4049  -50.6711 H         1 UNK         0.0600 
    202 H202       -1.1382  -24.0694  -51.2498 H         1 UNK         0.0600 
    203 H203       -0.8261  -23.2650  -49.7132 H         1 UNK         0.0600 
    204 H204       -1.8675  -22.5076  -50.8993 H         1 UNK         0.0600 
    205 H205       -2.0761  -23.5711  -47.5252 H         1 UNK         0.3000 
    206 H206       -2.5967  -22.3017  -45.8214 H         1 UNK         0.0600 
    207 H207       -4.6822  -23.7217  -45.7391 H         1 UNK         0.0600 
    208 H208       -4.9227  -22.1315  -45.0477 H         1 UNK         0.0600 
    209 H209       -5.5433  -22.4931  -46.6585 H         1 UNK         0.0600 
    210 H210       -4.8793  -20.2706  -45.7768 H         1 UNK         0.3000 
    211 H211       -3.3321  -18.0546  -46.8423 H         1 UNK         0.0600 
    212 H212       -6.0525  -18.1256  -45.4353 H         1 UNK         0.0600 
    213 H213       -5.0938  -16.6837  -45.7572 H         1 UNK         0.0600 
    214 H214       -4.4856  -17.9028  -44.6518 H         1 UNK         0.0600 
    215 H215       -5.6679  -20.0998  -48.2394 H         1 UNK         0.3000 
    216 H216       -7.0116  -18.1893  -49.9727 H         1 UNK         0.0600 
    217 H217       -8.0899  -20.2284  -50.8781 H         1 UNK         0.0600 
    218 H218       -8.1426  -20.2432  -49.1238 H         1 UNK         0.0600 
    219 H219       -6.9747  -21.2512  -49.9793 H         1 UNK         0.0600 
    220 H220       -4.3491  -17.7699  -50.2675 H         1 UNK         0.3000 
    221 H221       -2.8562  -19.2399  -52.0820 H         1 UNK         0.0600 
    222 H222       -2.7681  -16.2144  -51.6146 H         1 UNK         0.0600 
    223 H223       -1.9972  -17.4074  -50.5761 H         1 UNK         0.0600 
    224 H224       -1.4486  -17.2003  -52.2343 H         1 UNK         0.0600 
    225 H225       -5.1514  -16.6187  -52.8027 H         1 UNK         0.3000 
    226 H226       -4.5482  -16.2557  -55.5416 H         1 UNK         0.0600 
    227 H227       -5.8286  -14.6203  -54.1863 H         1 UNK         0.0600 
    228 H228       -6.7692  -15.1045  -55.5879 H         1 UNK         0.0600 
    229 H229       -7.1570  -15.7673  -54.0048 H         1 UNK         0.0600 
    230 H230       -6.4495  -18.7492  -53.9561 H         1 UNK         0.3000 
    231 H231       -7.5570  -19.7644  -56.5257 H         1 UNK         0.0600 
    232 H232       -8.7973  -21.3288  -55.0487 H         1 UNK         0.0600 
    233 H233       -9.1034  -19.6618  -54.5855 H         1 UNK         0.0600 
    234 H234       -8.0082  -20.6562  -53.6273 H         1 UNK         0.0600 
    235 H235       -5.3822  -20.6414  -53.8098 H         1 UNK         0.3000 
    236 H236       -4.8403  -23.2628  -54.7418 H         1 UNK         0.0600 
    237 H237       -3.4689  -21.5123  -52.6524 H         1 UNK         0.0600 
    238 H238       -4.7277  -22.7076  -52.3815 H         1 UNK         0.0600 
    239 H239       -3.1296  -23.2260  -52.8983 H         1 UNK         0.0600 
    240 H240       -3.0092  -20.2115  -55.2912 H         1 UNK         0.3000 
    241 H241       -1.5632  -21.5353  -57.4181 H         1 UNK         0.0600 
    242 H242       -2.6760  -18.4975  -56.0631 H         1 UNK         0.3800 
    243 H243       -2.1296  -17.5869  -57.4532 H         1 UNK         0.3800 
    244 H244        0.7276  -21.0772  -56.6540 H         1 UNK         0.0800 
    245 H245       -0.0704  -22.2412  -55.6610 H         1 UNK         0.0800 
    246 H246       -1.2262  -21.1367  -52.9369 H         1 UNK         0.0800 
    247 H247       -0.0239  -22.3182  -53.3834 H         1 UNK         0.0800 
@<TRIPOS>BOND
     1    1    2 1    
     2    1  127 1    
     3    1  128 1    
     4    1  129 1    
     5    2    3 2    
     6    2    4 am   BACKBONE|DICT|INTERRES
     7    4    5 1    
     8    4  130 1    
     9    5    6 1    
    10    5   65 1    
    11    5  131 1    
    12    6    7 1    
    13    6  132 1    
    14    6  133 1    
    15    7    8 1    
    16    8    9 1    
    17    8  134 1    
    18    8  135 1    
    19    9   10 ar   
    20    9   14 ar   
    21   10   11 ar   
    22   10  136 1    
    23   11   12 ar   
    24   11  126 1    
    25   12   13 ar   
    26   12  137 1    
    27   13   14 ar   
    28   13   15 1    
    29   14  138 1    
    30   15   16 1    
    31   15  139 1    
    32   15  140 1    
    33   16   17 1    
    34   17   18 1    
    35   17  141 1    
    36   17  142 1    
    37   18   19 1    
    38   18   67 1    
    39   18  143 1    
    40   19   20 am   BACKBONE|DICT|INTERRES
    41   19  144 1    
    42   20   21 2    
    43   20   22 1    
    44   22   23 1    
    45   22   24 1    
    46   22  145 1    
    47   23  146 1    
    48   23  147 1    
    49   23  148 1    
    50   24   25 am   BACKBONE|DICT|INTERRES
    51   24  149 1    
    52   25   26 2    
    53   25   27 1    
    54   27   28 1    
    55   27   29 1    
    56   27  150 1    
    57   28  151 1    
    58   28  152 1    
    59   28  153 1    
    60   29   30 am   BACKBONE|DICT|INTERRES
    61   29  154 1    
    62   30   31 2    
    63   30   32 1    
    64   32   33 1    
    65   32   34 1    
    66   32  155 1    
    67   33  156 1    
    68   33  157 1    
    69   33  158 1    
    70   34   35 am   BACKBONE|DICT|INTERRES
    71   34  159 1    
    72   35   36 2    
    73   35   37 1    
    74   37   38 1    
    75   37   39 1    
    76   37  160 1    
    77   38  161 1    
    78   38  162 1    
    79   38  163 1    
    80   39   40 am   BACKBONE|DICT|INTERRES
    81   39  164 1    
    82   40   41 2    
    83   40   42 1    
    84   42   43 1    
    85   42   44 1    
    86   42  165 1    
    87   43  166 1    
    88   43  167 1    
    89   43  168 1    
    90   44   45 am   BACKBONE|DICT|INTERRES
    91   44  169 1    
    92   45   46 2    
    93   45   47 1    
    94   47   48 1    
    95   47   49 1    
    96   47  170 1    
    97   48  171 1    
    98   48  172 1    
    99   48  173 1    
   100   49   50 am   BACKBONE|DICT|INTERRES
   101   49  174 1    
   102   50   51 2    
   103   50   52 1    
   104   52   53 1    
   105   52   54 1    
   106   52  175 1    
   107   53  176 1    
   108   53  177 1    
   109   53  178 1    
   110   54   55 am   BACKBONE|DICT|INTERRES
   111   54  179 1    
   112   55   56 2    
   113   55   57 1    
   114   57   58 1    
   115   57   59 1    
   116   57  180 1    
   117   58  181 1    
   118   58  182 1    
   119   58  183 1    
   120   59   60 am   BACKBONE|DICT|INTERRES
   121   59  184 1    
   122   60   61 2    
   123   60   62 1    
   124   62   63 1    
   125   62   64 1    
   126   62  185 1    
   127   63  186 1    
   128   63  187 1    
   129   63  188 1    
   130   64   65 am   BACKBONE|DICT|INTERRES
   131   64  189 1    
   132   65   66 2    
   133   67   68 2    
   134   67   69 am   BACKBONE|DICT|INTERRES
   135   69   70 1    
   136   69  190 1    
   137   70   71 1    
   138   70   72 1    
   139   70  191 1    
   140   71  192 1    
   141   71  193 1    
   142   71  194 1    
   143   72   73 2    
   144   72   74 am   BACKBONE|DICT|INTERRES
   145   74   75 1    
   146   74  195 1    
   147   75   76 1    
   148   75   77 1    
   149   75  196 1    
   150   76  197 1    
   151   76  198 1    
   152   76  199 1    
   153   77   78 2    
   154   77   79 am   BACKBONE|DICT|INTERRES
   155   79   80 1    
   156   79  200 1    
   157   80   81 1    
   158   80   82 1    
   159   80  201 1    
   160   81  202 1    
   161   81  203 1    
   162   81  204 1    
   163   82   83 2    
   164   82   84 am   BACKBONE|DICT|INTERRES
   165   84   85 1    
   166   84  205 1    
   167   85   86 1    
   168   85   87 1    
   169   85  206 1    
   170   86  207 1    
   171   86  208 1    
   172   86  209 1    
   173   87   88 2    
   174   87   89 am   BACKBONE|DICT|INTERRES
   175   89   90 1    
   176   89  210 1    
   177   90   91 1    
   178   90   92 1    
   179   90  211 1    
   180   91  212 1    
   181   91  213 1    
   182   91  214 1    
   183   92   93 2    
   184   92   94 am   BACKBONE|DICT|INTERRES
   185   94   95 1    
   186   94  215 1    
   187   95   96 1    
   188   95   97 1    
   189   95  216 1    
   190   96  217 1    
   191   96  218 1    
   192   96  219 1    
   193   97   98 2    
   194   97   99 am   BACKBONE|DICT|INTERRES
   195   99  100 1    
   196   99  220 1    
   197  100  101 1    
   198  100  102 1    
   199  100  221 1    
   200  101  222 1    
   201  101  223 1    
   202  101  224 1    
   203  102  103 2    
   204  102  104 am   BACKBONE|DICT|INTERRES
   205  104  105 1    
   206  104  225 1    
   207  105  106 1    
   208  105  107 1    
   209  105  226 1    
   210  106  227 1    
   211  106  228 1    
   212  106  229 1    
   213  107  108 2    
   214  107  109 am   BACKBONE|DICT|INTERRES
   215  109  110 1    
   216  109  230 1    
   217  110  111 1    
   218  110  112 1    
   219  110  231 1    
   220  111  232 1    
   221  111  233 1    
   222  111  234 1    
   223  112  113 2    
   224  112  114 am   BACKBONE|DICT|INTERRES
   225  114  115 1    
   226  114  235 1    
   227  115  116 1    
   228  115  117 1    
   229  115  236 1    
   230  116  237 1    
   231  116  238 1    
   232  116  239 1    
   233  117  118 2    
   234  117  119 am   BACKBONE|DICT|INTERRES
   235  119  120 1    
   236  119  240 1    
   237  120  121 1    
   238  120  124 1    
   239  120  241 1    
   240  121  122 am   BACKBONE|DICT|INTERRES
   241  121  123 2    
   242  122  242 1    
   243  122  243 1    
   244  124  125 1    
   245  124  244 1    
   246  124  245 1    
   247  125  126 1    
   248  126  246 1    
   249  126  247 1    
@<TRIPOS>SUBSTRUCTURE
     1 UNK         1 GROUP             0       ****    0 ROOT    
