@<TRIPOS>MOLECULE
3R540
247   249    1
SMALL
USER_CHARGES


@<TRIPOS>ATOM
      1 CA         -6.0560  -14.3129  -50.5281 C.3       0 UNK        -0.1800 
      2 C          -4.7249  -13.6315  -50.2541 C.2       0 UNK         0.5000 
      3 O          -4.5374  -12.4812  -50.6498 O.2       0 UNK        -0.5000 
      4 N          -3.8074  -14.3369  -49.5803 N.am      1 UNK        -0.5000 
      5 CA         -2.5077  -13.8224  -49.1322 C.3       1 UNK         0.1400 
      6 C6         -1.5813  -14.9203  -48.5585 C.3       23 UNK        -0.0398 
      7 S7         -1.0926  -16.1567  -49.8048 S.3       23 UNK        -0.2404 
      8 C8          0.7066  -15.8941  -49.8429 C.3       23 UNK        -0.0205 
      9 C9          1.4222  -17.0241  -50.5631 C.ar      23 UNK        -0.0193 
     10 C10         1.9420  -16.8403  -51.8464 C.ar      23 UNK        -0.1150 
     11 C11         2.6468  -17.8667  -52.4828 C.ar      23 UNK        -0.0193 
     12 C12         2.8230  -19.0846  -51.8145 C.ar      23 UNK        -0.1150 
     13 C13         2.2741  -19.3015  -50.5465 C.ar      23 UNK        -0.0193 
     14 C14         1.5865  -18.2538  -49.9237 C.ar      23 UNK        -0.1150 
     15 C15         2.4122  -20.6856  -49.9092 C.3       23 UNK        -0.0205 
     16 S16         2.5726  -20.6977  -48.0909 S.3       23 UNK        -0.2404 
     17 C17         0.8259  -20.7114  -47.5588 C.3       23 UNK        -0.0398 
     18 CA          0.2883  -22.1262  -47.2646 C.3       11 UNK         0.1400 
     19 N           1.0410  -22.8023  -46.2099 N.am      11 UNK        -0.5000 
     20 C           1.0461  -24.1266  -46.0131 C.2       10 UNK         0.5000 
     21 O           0.4386  -24.9184  -46.7329 O.2       10 UNK        -0.5000 
     22 CA          1.8234  -24.6532  -44.7876 C.3       10 UNK         0.1400 
     23 CB          3.2674  -24.9995  -45.1780 C.3       10 UNK        -0.1800 
     24 N           1.8436  -23.7119  -43.6648 N.am      10 UNK        -0.5000 
     25 C           0.7539  -23.2567  -43.0327 C.2       9 UNK         0.5000 
     26 O          -0.3804  -23.6792  -43.2603 O.2       9 UNK        -0.5000 
     27 CA          0.9383  -22.1175  -42.0096 C.3       9 UNK         0.1400 
     28 CB          0.9562  -22.6856  -40.5831 C.3       9 UNK        -0.1800 
     29 N           2.1038  -21.2374  -42.1786 N.am      9 UNK        -0.5000 
     30 C           2.5215  -20.6224  -43.2956 C.2       8 UNK         0.5000 
     31 O           2.1160  -20.8875  -44.4271 O.2       8 UNK        -0.5000 
     32 CA          3.5368  -19.4821  -43.0924 C.3       8 UNK         0.1400 
     33 CB          4.1038  -18.9541  -44.4230 C.3       8 UNK        -0.1800 
     34 N           2.8981  -18.3783  -42.3739 N.am      8 UNK        -0.5000 
     35 C           2.7661  -18.3036  -41.0423 C.2       7 UNK         0.5000 
     36 O           3.2518  -19.1276  -40.2657 O.2       7 UNK        -0.5000 
     37 CA          1.8988  -17.1558  -40.4924 C.3       7 UNK         0.1400 
     38 CB          2.5679  -15.7889  -40.7068 C.3       7 UNK        -0.1800 
     39 N           0.5648  -17.1512  -41.0918 N.am      7 UNK        -0.5000 
     40 C          -0.3681  -18.0959  -40.8949 C.2       6 UNK         0.5000 
     41 O          -0.2436  -19.0311  -40.1040 O.2       6 UNK        -0.5000 
     42 CA         -1.6418  -17.9968  -41.7558 C.3       6 UNK         0.1400 
     43 CB         -2.6732  -17.0480  -41.1264 C.3       6 UNK        -0.1800 
     44 N          -1.3284  -17.5625  -43.1174 N.am      6 UNK        -0.5000 
     45 C          -0.7107  -18.3432  -44.0142 C.2       5 UNK         0.5000 
     46 O          -0.4905  -19.5375  -43.8331 O.2       5 UNK        -0.5000 
     47 CA         -0.2469  -17.6951  -45.3264 C.3       5 UNK         0.1400 
     48 CB         -1.2424  -17.9964  -46.4525 C.3       5 UNK        -0.1800 
     49 N          -0.0448  -16.2519  -45.2090 N.am      5 UNK        -0.5000 
     50 C           1.0541  -15.6978  -44.6763 C.2       4 UNK         0.5000 
     51 O           2.0098  -16.3484  -44.2563 O.2       4 UNK        -0.5000 
     52 CA          1.0680  -14.1636  -44.5379 C.3       4 UNK         0.1400 
     53 CB          1.6169  -13.5077  -45.8133 C.3       4 UNK        -0.1800 
     54 N          -0.2517  -13.6091  -44.2314 N.am      4 UNK        -0.5000 
     55 C          -0.9359  -13.8711  -43.1091 C.2       3 UNK         0.5000 
     56 O          -0.4976  -14.5709  -42.1961 O.2       3 UNK        -0.5000 
     57 CA         -2.3669  -13.3087  -43.0153 C.3       3 UNK         0.1400 
     58 CB         -2.3626  -11.9513  -42.2975 C.3       3 UNK        -0.1800 
     59 N          -3.0423  -13.1684  -44.3111 N.am      3 UNK        -0.5000 
     60 C          -3.3276  -14.1803  -45.1463 C.2       2 UNK         0.5000 
     61 O          -2.9766  -15.3432  -44.9492 O.2       2 UNK        -0.5000 
     62 CA         -4.0663  -13.8236  -46.4468 C.3       2 UNK         0.1400 
     63 CB         -5.5436  -13.5081  -46.1703 C.3       2 UNK        -0.1800 
     64 N          -3.4289  -12.6647  -47.0796 N.am      2 UNK        -0.5000 
     65 C          -2.6343  -12.6186  -48.1621 C.2       1 UNK         0.5000 
     66 O          -2.0122  -11.5921  -48.4297 O.2       1 UNK        -0.5000 
     67 C          -1.2174  -22.0759  -46.9362 C.2       11 UNK         0.5000 
     68 O          -2.0313  -22.1970  -47.8523 O.2       11 UNK        -0.5000 
     69 N          -1.5786  -21.9312  -45.6518 N.am      12 UNK        -0.5000 
     70 CA         -2.9649  -22.0207  -45.1812 C.3       12 UNK         0.1400 
     71 CB         -3.1049  -21.4279  -43.7715 C.3       12 UNK        -0.1800 
     72 C          -3.5161  -23.4519  -45.2375 C.2       12 UNK         0.5000 
     73 O          -4.6928  -23.6320  -45.5520 O.2       12 UNK        -0.5000 
     74 N          -2.6488  -24.4426  -44.9875 N.am      13 UNK        -0.5000 
     75 CA         -2.9413  -25.8612  -45.1949 C.3       13 UNK         0.1400 
     76 CB         -1.8078  -26.7149  -44.6073 C.3       13 UNK        -0.1800 
     77 C          -3.1830  -26.2008  -46.6802 C.2       13 UNK         0.5000 
     78 O          -3.9935  -27.0817  -46.9699 O.2       13 UNK        -0.5000 
     79 N          -2.5069  -25.4801  -47.5889 N.am      14 UNK        -0.5000 
     80 CA         -2.7469  -25.5348  -49.0287 C.3       14 UNK         0.1400 
     81 CB         -1.5510  -24.9517  -49.8002 C.3       14 UNK        -0.1800 
     82 C          -4.0740  -24.8510  -49.4092 C.2       14 UNK         0.5000 
     83 O          -4.9351  -25.5201  -49.9823 O.2       14 UNK        -0.5000 
     84 N          -4.2377  -23.5618  -49.0637 N.am      15 UNK        -0.5000 
     85 CA         -5.4717  -22.8032  -49.3154 C.3       15 UNK         0.1400 
     86 CB         -5.6908  -22.5970  -50.8318 C.3       15 UNK        -0.1800 
     87 C          -5.5323  -21.4216  -48.6381 C.2       15 UNK         0.5000 
     88 O          -6.6342  -20.9579  -48.3490 O.2       15 UNK        -0.5000 
     89 N          -4.3840  -20.7380  -48.5093 N.am      16 UNK        -0.5000 
     90 CA         -4.1969  -19.3008  -48.2160 C.3       16 UNK         0.1400 
     91 CB         -4.7474  -18.8971  -46.8304 C.3       16 UNK        -0.1800 
     92 C          -4.7041  -18.3266  -49.3052 C.2       16 UNK         0.5000 
     93 O          -4.4071  -17.1324  -49.2310 O.2       16 UNK        -0.5000 
     94 N          -5.4342  -18.8288  -50.3075 N.am      17 UNK        -0.5000 
     95 CA         -6.0633  -18.0652  -51.3819 C.3       17 UNK         0.1400 
     96 CB         -7.3337  -18.8047  -51.8373 C.3       17 UNK        -0.1800 
     97 C          -5.0865  -17.7508  -52.5334 C.2       17 UNK         0.5000 
     98 O          -5.3471  -18.1137  -53.6825 O.2       17 UNK        -0.5000 
     99 N          -3.9792  -17.0732  -52.1961 N.am      18 UNK        -0.5000 
    100 CA        -2.9576  -16.5251  -53.0948 C.3       18 UNK         0.1400 
    101 CB        -3.5098  -15.2758  -53.8157 C.3       18 UNK        -0.1800 
    102 C         -2.3747  -17.5890  -54.0460 C.2       18 UNK         0.5000 
    103 O         -1.6546  -18.4772  -53.5899 O.2       18 UNK        -0.5000 
    104 N         -2.7182  -17.5128  -55.3387 N.am      19 UNK        -0.5000 
    105 CA        -2.2940  -18.4421  -56.3873 C.3       19 UNK         0.1400 
    106 CB        -2.8486  -17.9639  -57.7369 C.3       19 UNK        -0.1800 
    107 C         -2.6920  -19.9086  -56.1303 C.2       19 UNK         0.5000 
    108 O         -1.9588  -20.8066  -56.5438 O.2       19 UNK        -0.5000 
    109 N         -3.8087  -20.1350  -55.4225 N.am      20 UNK        -0.5000 
    110 CA        -4.2549  -21.4706  -55.0190 C.3       20 UNK         0.1400 
    111 CB        -5.7209  -21.4076  -54.5732 C.3       20 UNK        -0.1800 
    112 C         -3.3809  -22.0809  -53.9066 C.2       20 UNK         0.5000 
    113 O         -3.2746  -23.3049  -53.8299 O.2       20 UNK        -0.5000 
    114 N         -2.7664  -21.2267  -53.0752 N.am      21 UNK        -0.5000 
    115 CA        -1.7849  -21.6306  -52.0703 C.3       21 UNK         0.1400 
    116 CB        -1.7268  -20.5762  -50.9545 C.3       21 UNK        -0.1800 
    117 C         -0.3997  -21.8190  -52.7090 C.2       21 UNK         0.5000 
    118 O          0.3084  -22.7635  -52.3602 O.2       21 UNK        -0.5000 
    119 N         -0.0484  -20.9109  -53.6287 N.am      22 UNK        -0.5000 
    120 CA         1.2162  -20.9115  -54.3730 C.3       22 UNK         0.1400 
    121 C          1.3622  -22.0813  -55.3869 C.2       22 UNK         0.5000 
    122 N          0.3145  -22.4514  -56.1121 N.am      22 UNK        -0.7600 
    123 O          2.4338  -22.6682  -55.5097 O.2       22 UNK        -0.5000 
    124 C124        1.4782  -19.5330  -55.0392 C.3       23 UNK        -0.0398 
    125 S125        3.2428  -19.0707  -54.9869 S.3       23 UNK        -0.2404 
    126 C126        3.2286  -17.6181  -53.8754 C.3       23 UNK        -0.0205 
    127 H127       -6.0617  -14.7366  -51.5321 H         1 UNK         0.0600 
    128 H128       -6.2488  -15.1062  -49.8060 H         1 UNK         0.0600 
    129 H129       -6.8714  -13.5931  -50.4558 H         1 UNK         0.0600 
    130 H130       -4.0127  -15.3005  -49.3260 H         1 UNK         0.3000 
    131 H131       -2.0150  -13.4339  -50.0266 H         1 UNK         0.0600 
    132 H132       -2.0596  -15.4550  -47.7404 H         1 UNK         0.0800 
    133 H133       -0.6831  -14.4702  -48.1358 H         1 UNK         0.0800 
    134 H134        0.9215  -14.9341  -50.3149 H         1 UNK         0.0800 
    135 H135        1.0916  -15.8333  -48.8236 H         1 UNK         0.0800 
    136 H136        1.8115  -15.8893  -52.3434 H         1 UNK         0.1150 
    137 H137        3.3815  -19.8776  -52.2893 H         1 UNK         0.1150 
    138 H138        1.1741  -18.3736  -48.9352 H         1 UNK         0.1150 
    139 H139        1.5614  -21.2998  -50.2061 H         1 UNK         0.0800 
    140 H140        3.2964  -21.1820  -50.3118 H         1 UNK         0.0800 
    141 H141        0.2084  -20.2244  -48.3133 H         1 UNK         0.0800 
    142 H142        0.7589  -20.1015  -46.6604 H         1 UNK         0.0800 
    143 H143        0.3928  -22.7117  -48.1807 H         1 UNK         0.0600 
    144 H144        1.5465  -22.1970  -45.5642 H         1 UNK         0.3000 
    145 H145        1.3295  -25.5660  -44.4492 H         1 UNK         0.0600 
    146 H146        3.8069  -25.4451  -44.3421 H         1 UNK         0.0600 
    147 H147        3.2881  -25.7188  -45.9978 H         1 UNK         0.0600 
    148 H148        3.8184  -24.1156  -45.5024 H         1 UNK         0.0600 
    149 H149        2.7327  -23.2918  -43.4381 H         1 UNK         0.3000 
    150 H150        0.0578  -21.4793  -42.0986 H         1 UNK         0.0600 
    151 H151        0.0880  -23.3207  -40.4012 H         1 UNK         0.0600 
    152 H152        0.9315  -21.8866  -39.8414 H         1 UNK         0.0600 
    153 H153        1.8482  -23.2865  -40.4023 H         1 UNK         0.0600 
    154 H154        2.5114  -20.9027  -41.3139 H         1 UNK         0.3000 
    155 H155        4.3709  -19.8724  -42.5058 H         1 UNK         0.0600 
    156 H156        3.3180  -18.5715  -45.0756 H         1 UNK         0.0600 
    157 H157        4.6216  -19.7450  -44.9668 H         1 UNK         0.0600 
    158 H158        4.8196  -18.1495  -44.2554 H         1 UNK         0.0600 
    159 H159        2.4679  -17.6636  -42.9554 H         1 UNK         0.3000 
    160 H160        1.7851  -17.3087  -39.4171 H         1 UNK         0.0600 
    161 H161        1.9798  -14.9895  -40.2555 H         1 UNK         0.0600 
    162 H162        2.6889  -15.5544  -41.7642 H         1 UNK         0.0600 
    163 H163        3.5577  -15.7637  -40.2495 H         1 UNK         0.0600 
    164 H164        0.3447  -16.3787  -41.7107 H         1 UNK         0.3000 
    165 H165       -2.0904  -18.9913  -41.8058 H         1 UNK         0.0600 
    166 H166       -3.5638  -16.9631  -41.7495 H         1 UNK         0.0600 
    167 H167       -2.9917  -17.4180  -40.1513 H         1 UNK         0.0600 
    168 H168       -2.2710  -16.0468  -40.9764 H         1 UNK         0.0600 
    169 H169       -1.5100  -16.5968  -43.3508 H         1 UNK         0.3000 
    170 H170        0.7086  -18.1540  -45.5856 H         1 UNK         0.0600 
    171 H171       -1.4900  -19.0573  -46.4800 H         1 UNK         0.0600 
    172 H172       -2.1764  -17.4506  -46.3265 H         1 UNK         0.0600 
    173 H173       -0.8217  -17.7389  -47.4221 H         1 UNK         0.0600 
    174 H174       -0.8336  -15.6642  -45.4414 H         1 UNK         0.3000 
    175 H175        1.7372  -13.9141  -43.7116 H         1 UNK         0.0600 
    176 H176        0.9750  -13.6932  -46.6737 H         1 UNK         0.0600 
    177 H177        1.7112  -12.4284  -45.6918 H         1 UNK         0.0600 
    178 H178        2.6082  -13.8940  -46.0545 H         1 UNK         0.0600 
    179 H179       -0.6763  -13.0146  -44.9273 H         1 UNK         0.3000 
    180 H180       -2.9507  -14.0091  -42.4145 H         1 UNK         0.0600 
    181 H181       -1.8199  -11.1959  -42.8672 H         1 UNK         0.0600 
    182 H182       -1.8873  -12.0285  -41.3185 H         1 UNK         0.0600 
    183 H183       -3.3771  -11.5868  -42.1356 H         1 UNK         0.0600 
    184 H184       -3.3599  -12.2396  -44.5418 H         1 UNK         0.3000 
    185 H185       -4.0444  -14.7069  -47.0806 H         1 UNK         0.0600 
    186 H186       -6.0367  -14.3480  -45.6787 H         1 UNK         0.0600 
    187 H187       -5.6635  -12.6342  -45.5290 H         1 UNK         0.0600 
    188 H188       -6.0811  -13.3160  -47.0992 H         1 UNK         0.0600 
    189 H189       -3.5137  -11.8047  -46.5602 H         1 UNK         0.3000 
    190 H190       -0.8653  -21.8104  -44.9449 H         1 UNK         0.3000 
    191 H191       -3.5890  -21.4368  -45.8545 H         1 UNK         0.0600 
    192 H192       -2.3746  -21.8453  -43.0786 H         1 UNK         0.0600 
    193 H193       -4.0966  -21.6197  -43.3598 H         1 UNK         0.0600 
    194 H194       -2.9769  -20.3469  -43.7905 H         1 UNK         0.0600 
    195 H195       -1.7235  -24.2043  -44.6446 H         1 UNK         0.3000 
    196 H196       -3.8575  -26.0945  -44.6484 H         1 UNK         0.0600 
    197 H197       -0.8693  -26.5632  -45.1386 H         1 UNK         0.0600 
    198 H198       -2.0496  -27.7764  -44.6707 H         1 UNK         0.0600 
    199 H199       -1.6399  -26.4806  -43.5559 H         1 UNK         0.0600 
    200 H200       -1.8155  -24.8184  -47.2639 H         1 UNK         0.3000 
    201 H201       -2.8258  -26.5865  -49.3127 H         1 UNK         0.0600 
    202 H202       -1.3987  -23.8935  -49.6005 H         1 UNK         0.0600 
    203 H203       -1.6965  -25.0584  -50.8758 H         1 UNK         0.0600 
    204 H204       -0.6278  -25.4723  -49.5449 H         1 UNK         0.0600 
    205 H205       -3.4962  -23.0948  -48.5479 H         1 UNK         0.3000 
    206 H206       -6.3055  -23.3853  -48.9172 H         1 UNK         0.0600 
    207 H207       -6.5952  -22.0184  -51.0246 H         1 UNK         0.0600 
    208 H208       -4.8564  -22.0603  -51.2820 H         1 UNK         0.0600 
    209 H209       -5.8070  -23.5377  -51.3680 H         1 UNK         0.0600 
    210 H210       -3.5204  -21.2329  -48.7027 H         1 UNK         0.3000 
    211 H211       -3.1179  -19.1520  -48.1969 H         1 UNK         0.0600 
    212 H212       -5.8023  -19.1427  -46.7139 H         1 UNK         0.0600 
    213 H213       -4.6534  -17.8224  -46.6677 H         1 UNK         0.0600 
    214 H214       -4.1976  -19.3712  -46.0218 H         1 UNK         0.0600 
    215 H215       -5.6370  -19.8157  -50.2868 H         1 UNK         0.3000 
    216 H216       -6.3911  -17.1063  -50.9821 H         1 UNK         0.0600 
    217 H217       -7.8199  -18.2859  -52.6645 H         1 UNK         0.0600 
    218 H218       -8.0591  -18.8648  -51.0256 H         1 UNK         0.0600 
    219 H219       -7.1219  -19.8216  -52.1613 H         1 UNK         0.0600 
    220 H220       -3.8326  -16.8951  -51.2089 H         1 UNK         0.3000 
    221 H221       -2.1264  -16.1982  -52.4715 H         1 UNK         0.0600 
    222 H222       -4.3969  -15.4983  -54.4096 H         1 UNK         0.0600 
    223 H223       -3.7836  -14.5048  -53.0957 H         1 UNK         0.0600 
    224 H224       -2.7617  -14.8387  -54.4784 H         1 UNK         0.0600 
    225 H225       -3.3472  -16.7751  -55.6199 H         1 UNK         0.3000 
    226 H226       -1.2040  -18.4054  -56.4343 H         1 UNK         0.0600 
    227 H227       -2.4945  -16.9612  -57.9769 H         1 UNK         0.0600 
    228 H228       -2.5290  -18.6220  -58.5462 H         1 UNK         0.0600 
    229 H229       -3.9392  -17.9459  -57.7393 H         1 UNK         0.0600 
    230 H230       -4.3471  -19.3469  -55.0773 H         1 UNK         0.3000 
    231 H231       -4.1946  -22.1296  -55.8879 H         1 UNK         0.0600 
    232 H232       -6.3576  -20.9896  -55.3531 H         1 UNK         0.0600 
    233 H233       -5.8317  -20.7946  -53.6817 H         1 UNK         0.0600 
    234 H234       -6.1012  -22.4020  -54.3361 H         1 UNK         0.0600 
    235 H235       -2.8526  -20.2328  -53.2448 H         1 UNK         0.3000 
    236 H236       -2.0990  -22.5775  -51.6267 H         1 UNK         0.0600 
    237 H237       -1.1516  -20.9487  -50.1083 H         1 UNK         0.0600 
    238 H238       -1.2562  -19.6487  -51.2825 H         1 UNK         0.0600 
    239 H239       -2.7238  -20.3299  -50.5985 H         1 UNK         0.0600 
    240 H240       -0.6734  -20.1284  -53.7933 H         1 UNK         0.3000 
    241 H241        1.9873  -21.0797  -53.6209 H         1 UNK         0.0600 
    242 H242        0.4107  -23.2157  -56.7610 H         1 UNK         0.3800 
    243 H243       -0.5543  -21.9223  -56.0919 H         1 UNK         0.3800 
    244 H244        1.1331  -19.5137  -56.0745 H         1 UNK         0.0800 
    245 H245        0.9101  -18.7500  -54.5354 H         1 UNK         0.0800 
    246 H246        4.2524  -17.2607  -53.7602 H         1 UNK         0.0800 
    247 H247        2.6785  -16.8182  -54.3736 H         1 UNK         0.0800 
@<TRIPOS>BOND
     1    1    2 1    
     2    1  127 1    
     3    1  128 1    
     4    1  129 1    
     5    2    3 2    
     6    2    4 am   BACKBONE|DICT|INTERRES
     7    4    5 1    
     8    4  130 1    
     9    5    6 1    
    10    5   65 1    
    11    5  131 1    
    12    6    7 1    
    13    6  132 1    
    14    6  133 1    
    15    7    8 1    
    16    8    9 1    
    17    8  134 1    
    18    8  135 1    
    19    9   10 ar   
    20    9   14 ar   
    21   10   11 ar   
    22   10  136 1    
    23   11   12 ar   
    24   11  126 1    
    25   12   13 ar   
    26   12  137 1    
    27   13   14 ar   
    28   13   15 1    
    29   14  138 1    
    30   15   16 1    
    31   15  139 1    
    32   15  140 1    
    33   16   17 1    
    34   17   18 1    
    35   17  141 1    
    36   17  142 1    
    37   18   19 1    
    38   18   67 1    
    39   18  143 1    
    40   19   20 am   BACKBONE|DICT|INTERRES
    41   19  144 1    
    42   20   21 2    
    43   20   22 1    
    44   22   23 1    
    45   22   24 1    
    46   22  145 1    
    47   23  146 1    
    48   23  147 1    
    49   23  148 1    
    50   24   25 am   BACKBONE|DICT|INTERRES
    51   24  149 1    
    52   25   26 2    
    53   25   27 1    
    54   27   28 1    
    55   27   29 1    
    56   27  150 1    
    57   28  151 1    
    58   28  152 1    
    59   28  153 1    
    60   29   30 am   BACKBONE|DICT|INTERRES
    61   29  154 1    
    62   30   31 2    
    63   30   32 1    
    64   32   33 1    
    65   32   34 1    
    66   32  155 1    
    67   33  156 1    
    68   33  157 1    
    69   33  158 1    
    70   34   35 am   BACKBONE|DICT|INTERRES
    71   34  159 1    
    72   35   36 2    
    73   35   37 1    
    74   37   38 1    
    75   37   39 1    
    76   37  160 1    
    77   38  161 1    
    78   38  162 1    
    79   38  163 1    
    80   39   40 am   BACKBONE|DICT|INTERRES
    81   39  164 1    
    82   40   41 2    
    83   40   42 1    
    84   42   43 1    
    85   42   44 1    
    86   42  165 1    
    87   43  166 1    
    88   43  167 1    
    89   43  168 1    
    90   44   45 am   BACKBONE|DICT|INTERRES
    91   44  169 1    
    92   45   46 2    
    93   45   47 1    
    94   47   48 1    
    95   47   49 1    
    96   47  170 1    
    97   48  171 1    
    98   48  172 1    
    99   48  173 1    
   100   49   50 am   BACKBONE|DICT|INTERRES
   101   49  174 1    
   102   50   51 2    
   103   50   52 1    
   104   52   53 1    
   105   52   54 1    
   106   52  175 1    
   107   53  176 1    
   108   53  177 1    
   109   53  178 1    
   110   54   55 am   BACKBONE|DICT|INTERRES
   111   54  179 1    
   112   55   56 2    
   113   55   57 1    
   114   57   58 1    
   115   57   59 1    
   116   57  180 1    
   117   58  181 1    
   118   58  182 1    
   119   58  183 1    
   120   59   60 am   BACKBONE|DICT|INTERRES
   121   59  184 1    
   122   60   61 2    
   123   60   62 1    
   124   62   63 1    
   125   62   64 1    
   126   62  185 1    
   127   63  186 1    
   128   63  187 1    
   129   63  188 1    
   130   64   65 am   BACKBONE|DICT|INTERRES
   131   64  189 1    
   132   65   66 2    
   133   67   68 2    
   134   67   69 am   BACKBONE|DICT|INTERRES
   135   69   70 1    
   136   69  190 1    
   137   70   71 1    
   138   70   72 1    
   139   70  191 1    
   140   71  192 1    
   141   71  193 1    
   142   71  194 1    
   143   72   73 2    
   144   72   74 am   BACKBONE|DICT|INTERRES
   145   74   75 1    
   146   74  195 1    
   147   75   76 1    
   148   75   77 1    
   149   75  196 1    
   150   76  197 1    
   151   76  198 1    
   152   76  199 1    
   153   77   78 2    
   154   77   79 am   BACKBONE|DICT|INTERRES
   155   79   80 1    
   156   79  200 1    
   157   80   81 1    
   158   80   82 1    
   159   80  201 1    
   160   81  202 1    
   161   81  203 1    
   162   81  204 1    
   163   82   83 2    
   164   82   84 am   BACKBONE|DICT|INTERRES
   165   84   85 1    
   166   84  205 1    
   167   85   86 1    
   168   85   87 1    
   169   85  206 1    
   170   86  207 1    
   171   86  208 1    
   172   86  209 1    
   173   87   88 2    
   174   87   89 am   BACKBONE|DICT|INTERRES
   175   89   90 1    
   176   89  210 1    
   177   90   91 1    
   178   90   92 1    
   179   90  211 1    
   180   91  212 1    
   181   91  213 1    
   182   91  214 1    
   183   92   93 2    
   184   92   94 am   BACKBONE|DICT|INTERRES
   185   94   95 1    
   186   94  215 1    
   187   95   96 1    
   188   95   97 1    
   189   95  216 1    
   190   96  217 1    
   191   96  218 1    
   192   96  219 1    
   193   97   98 2    
   194   97   99 am   BACKBONE|DICT|INTERRES
   195   99  100 1    
   196   99  220 1    
   197  100  101 1    
   198  100  102 1    
   199  100  221 1    
   200  101  222 1    
   201  101  223 1    
   202  101  224 1    
   203  102  103 2    
   204  102  104 am   BACKBONE|DICT|INTERRES
   205  104  105 1    
   206  104  225 1    
   207  105  106 1    
   208  105  107 1    
   209  105  226 1    
   210  106  227 1    
   211  106  228 1    
   212  106  229 1    
   213  107  108 2    
   214  107  109 am   BACKBONE|DICT|INTERRES
   215  109  110 1    
   216  109  230 1    
   217  110  111 1    
   218  110  112 1    
   219  110  231 1    
   220  111  232 1    
   221  111  233 1    
   222  111  234 1    
   223  112  113 2    
   224  112  114 am   BACKBONE|DICT|INTERRES
   225  114  115 1    
   226  114  235 1    
   227  115  116 1    
   228  115  117 1    
   229  115  236 1    
   230  116  237 1    
   231  116  238 1    
   232  116  239 1    
   233  117  118 2    
   234  117  119 am   BACKBONE|DICT|INTERRES
   235  119  120 1    
   236  119  240 1    
   237  120  121 1    
   238  120  124 1    
   239  120  241 1    
   240  121  122 am   BACKBONE|DICT|INTERRES
   241  121  123 2    
   242  122  242 1    
   243  122  243 1    
   244  124  125 1    
   245  124  244 1    
   246  124  245 1    
   247  125  126 1    
   248  126  246 1    
   249  126  247 1    
@<TRIPOS>SUBSTRUCTURE
     1 UNK         1 GROUP             0       ****    0 ROOT    
