@<TRIPOS>MOLECULE
3R540
247   249    1
SMALL
USER_CHARGES


@<TRIPOS>ATOM
      1 CA          5.1765   -8.1647  -47.4538 C.3       0 UNK        -0.1800 
      2 C           4.6033   -9.5742  -47.4619 C.2       0 UNK         0.5000 
      3 O           3.6635   -9.8559  -46.7208 O.2       0 UNK        -0.5000 
      4 N           5.1694  -10.4631  -48.2889 N.am      1 UNK        -0.5000 
      5 CA          4.8101  -11.8781  -48.4694 C.3       1 UNK         0.1400 
      6 C6          3.3035  -12.1072  -48.7716 C.3       23 UNK        -0.0398 
      7 S7          3.0019  -13.6030  -49.7688 S.3       23 UNK        -0.2404 
      8 C8          2.0734  -14.6458  -48.6004 C.3       23 UNK        -0.0205 
      9 C9          1.5678  -15.9002  -49.2952 C.ar      23 UNK        -0.0193 
     10 C10         0.4636  -15.8236  -50.1476 C.ar      23 UNK        -0.1150 
     11 C11        -0.0025  -16.9567  -50.8217 C.ar      23 UNK        -0.0193 
     12 C12         0.6561  -18.1774  -50.6388 C.ar      23 UNK        -0.1150 
     13 C13         1.7692  -18.2667  -49.7948 C.ar      23 UNK        -0.0193 
     14 C14         2.2142  -17.1263  -49.1184 C.ar      23 UNK        -0.1150 
     15 C15         2.5295  -19.5783  -49.6536 C.3       23 UNK        -0.0205 
     16 S16         1.9777  -20.5510  -48.2193 S.3       23 UNK        -0.2404 
     17 C17         0.3837  -21.1926  -48.8244 C.3       23 UNK        -0.0398 
     18 CA         -0.1342  -22.3910  -47.9946 C.3       11 UNK         0.1400 
     19 N          -0.3921  -22.0457  -46.5934 N.am      11 UNK        -0.5000 
     20 C          -0.7467  -22.9162  -45.6374 C.2       10 UNK         0.5000 
     21 O          -0.8384  -24.1302  -45.8137 O.2       10 UNK        -0.5000 
     22 CA         -1.1187  -22.3276  -44.2673 C.3       10 UNK         0.1400 
     23 CB          0.1321  -22.0735  -43.4121 C.3       10 UNK        -0.1800 
     24 N          -1.8933  -21.0947  -44.4034 N.am      10 UNK        -0.5000 
     25 C          -3.1652  -21.0489  -44.8236 C.2       9 UNK         0.5000 
     26 O          -3.8280  -22.0476  -45.1028 O.2       9 UNK        -0.5000 
     27 CA         -3.7928  -19.6530  -44.9916 C.3       9 UNK         0.1400 
     28 CB         -4.3512  -19.1461  -43.6537 C.3       9 UNK        -0.1800 
     29 N          -2.8580  -18.6651  -45.5318 N.am      9 UNK        -0.5000 
     30 C          -2.3434  -18.7108  -46.7684 C.2       8 UNK         0.5000 
     31 O          -2.6004  -19.5969  -47.5826 O.2       8 UNK        -0.5000 
     32 CA         -1.3382  -17.6034  -47.1356 C.3       8 UNK         0.1400 
     33 CB         -2.0824  -16.2977  -47.4516 C.3       8 UNK        -0.1800 
     34 N          -0.3263  -17.3268  -46.1117 N.am      8 UNK        -0.5000 
     35 C           0.4306  -18.2175  -45.4598 C.2       7 UNK         0.5000 
     36 O           0.3025  -19.4343  -45.5741 O.2       7 UNK        -0.5000 
     37 CA          1.4899  -17.6782  -44.4807 C.3       7 UNK         0.1400 
     38 CB          2.8296  -17.4425  -45.2018 C.3       7 UNK        -0.1800 
     39 N           1.0766  -16.5058  -43.6930 N.am      7 UNK        -0.5000 
     40 C           0.8303  -15.2515  -44.0989 C.2       6 UNK         0.5000 
     41 O           0.9002  -14.8993  -45.2778 O.2       6 UNK        -0.5000 
     42 CA          0.4073  -14.2371  -43.0105 C.3       6 UNK         0.1400 
     43 CB          0.7727  -14.6766  -41.5784 C.3       6 UNK        -0.1800 
     44 N           0.9891  -12.9180  -43.2506 N.am      6 UNK        -0.5000 
     45 C           0.4955  -11.9915  -44.0848 C.2       5 UNK         0.5000 
     46 O          -0.5542  -12.1299  -44.7161 O.2       5 UNK        -0.5000 
     47 CA          1.3134  -10.6881  -44.2200 C.3       5 UNK         0.1400 
     48 CB          0.5075   -9.5185  -44.8220 C.3       5 UNK        -0.1800 
     49 N           1.9712  -10.2838  -42.9725 N.am      5 UNK        -0.5000 
     50 C           1.3868  -10.0005  -41.7961 C.2       4 UNK         0.5000 
     51 O           0.1660   -9.9590  -41.6347 O.2       4 UNK        -0.5000 
     52 CA          2.3226   -9.7224  -40.5943 C.3       4 UNK         0.1400 
     53 CB          1.7115  -10.1860  -39.2549 C.3       4 UNK        -0.1800 
     54 N           3.6812  -10.2612  -40.7527 N.am      4 UNK        -0.5000 
     55 C           4.0238  -11.5453  -40.9270 C.2       3 UNK         0.5000 
     56 O           3.2229  -12.4824  -40.9475 O.2       3 UNK        -0.5000 
     57 CA          5.5132  -11.8191  -41.2081 C.3       3 UNK         0.1400 
     58 CB          6.1441  -12.6370  -40.0710 C.3       3 UNK        -0.1800 
     59 N           5.6870  -12.5344  -42.4742 N.am      3 UNK        -0.5000 
     60 C           5.2649  -12.0922  -43.6662 C.2       2 UNK         0.5000 
     61 O           4.7596  -10.9792  -43.8426 O.2       2 UNK        -0.5000 
     62 CA          5.4000  -13.0681  -44.8431 C.3       2 UNK         0.1400 
     63 CB          4.4844  -14.2916  -44.6527 C.3       2 UNK        -0.1800 
     64 N           5.0412  -12.3743  -46.0741 N.am      2 UNK        -0.5000 
     65 C           5.3134  -12.7755  -47.3184 C.2       1 UNK         0.5000 
     66 O           5.9537  -13.7951  -47.5789 O.2       1 UNK        -0.5000 
     67 C          -1.3811  -23.0083  -48.6576 C.2       11 UNK         0.5000 
     68 O          -1.2761  -24.0705  -49.2716 O.2       11 UNK        -0.5000 
     69 N          -2.5415  -22.3598  -48.4788 N.am      12 UNK        -0.5000 
     70 CA         -3.8406  -22.8355  -48.9524 C.3       12 UNK         0.1400 
     71 CB         -4.9122  -21.7726  -48.6716 C.3       12 UNK        -0.1800 
     72 C          -4.2399  -24.1839  -48.3291 C.2       12 UNK         0.5000 
     73 O          -4.6954  -25.0675  -49.0533 O.2       12 UNK        -0.5000 
     74 N          -4.0347  -24.3325  -47.0117 N.am      13 UNK        -0.5000 
     75 CA         -4.2961  -25.5653  -46.2670 C.3       13 UNK         0.1400 
     76 CB         -4.1489  -25.3091  -44.7600 C.3       13 UNK        -0.1800 
     77 C          -3.4020  -26.7357  -46.7130 C.2       13 UNK         0.5000 
     78 O          -3.9119  -27.8372  -46.9187 O.2       13 UNK        -0.5000 
     79 N          -2.1002  -26.4741  -46.9001 N.am      14 UNK        -0.5000 
     80 CA         -1.1169  -27.4416  -47.3974 C.3       14 UNK         0.1400 
     81 CB          0.2908  -26.8335  -47.3075 C.3       14 UNK        -0.1800 
     82 C          -1.4124  -27.9150  -48.8333 C.2       14 UNK         0.5000 
     83 O          -1.2081  -29.0885  -49.1448 O.2       14 UNK        -0.5000 
     84 N          -1.9272  -27.0015  -49.6647 N.am      15 UNK        -0.5000 
     85 CA         -2.3936  -27.2618  -51.0260 C.3       15 UNK         0.1400 
     86 CB         -2.2923  -25.9534  -51.8215 C.3       15 UNK        -0.1800 
     87 C          -3.8273  -27.8334  -51.0897 C.2       15 UNK         0.5000 
     88 O          -4.3304  -28.0559  -52.1917 O.2       15 UNK        -0.5000 
     89 N          -4.4777  -28.0325  -49.9315 N.am      16 UNK        -0.5000 
     90 CA         -5.8454  -28.5369  -49.7469 C.3       16 UNK         0.1400 
     91 CB         -5.9178  -30.0310  -50.1236 C.3       16 UNK        -0.1800 
     92 C          -6.9194  -27.6877  -50.4641 C.2       16 UNK         0.5000 
     93 O          -7.9329  -28.2240  -50.9147 O.2       16 UNK        -0.5000 
     94 N          -6.6529  -26.3786  -50.5816 N.am      17 UNK        -0.5000 
     95 CA         -7.4177  -25.3496  -51.2927 C.3       17 UNK         0.1400 
     96 CB         -8.7931  -25.1340  -50.6300 C.3       17 UNK        -0.1800 
     97 C          -7.5273  -25.5597  -52.8209 C.2       17 UNK         0.5000 
     98 O          -8.2844  -24.8372  -53.4710 O.2       17 UNK        -0.5000 
     99 N          -6.7626  -26.5068  -53.3864 N.am      18 UNK        -0.5000 
    100 CA        -6.6898  -26.7601  -54.8293 C.3       18 UNK         0.1400 
    101 CB        -6.1886  -28.1931  -55.0644 C.3       18 UNK        -0.1800 
    102 C         -5.7870  -25.7433  -55.5552 C.2       18 UNK         0.5000 
    103 O         -5.9009  -25.5797  -56.7706 O.2       18 UNK        -0.5000 
    104 N         -4.9195  -25.0743  -54.7920 N.am      19 UNK        -0.5000 
    105 CA        -4.0388  -23.9899  -55.1953 C.3       19 UNK         0.1400 
    106 CB        -2.7425  -24.5670  -55.7930 C.3       19 UNK        -0.1800 
    107 C         -3.7625  -23.1336  -53.9495 C.2       19 UNK         0.5000 
    108 O         -4.1758  -23.5056  -52.8477 O.2       19 UNK        -0.5000 
    109 N         -3.0786  -21.9983  -54.1467 N.am      20 UNK        -0.5000 
    110 CA        -2.5809  -21.0707  -53.1182 C.3       20 UNK         0.1400 
    111 CB        -1.5042  -21.7552  -52.2521 C.3       20 UNK        -0.1800 
    112 C         -3.6630  -20.3883  -52.2512 C.2       20 UNK         0.5000 
    113 O         -3.3218  -19.7159  -51.2784 O.2       20 UNK        -0.5000 
    114 N         -4.9407  -20.5234  -52.6281 N.am      21 UNK        -0.5000 
    115 CA        -6.1039  -19.9422  -51.9577 C.3       21 UNK         0.1400 
    116 CB        -7.3393  -20.7986  -52.2900 C.3       21 UNK        -0.1800 
    117 C         -6.2805  -18.4533  -52.3221 C.2       21 UNK         0.5000 
    118 O         -7.3178  -18.0583  -52.8574 O.2       21 UNK        -0.5000 
    119 N         -5.2394  -17.6601  -52.0506 N.am      22 UNK        -0.5000 
    120 CA        -5.1596  -16.2195  -52.3321 C.3       22 UNK         0.1400 
    121 C         -5.9506  -15.3050  -51.3487 C.2       22 UNK         0.5000 
    122 N         -6.4909  -15.8158  -50.2486 N.am      22 UNK        -0.7600 
    123 O         -6.0923  -14.1111  -51.5993 O.2       22 UNK        -0.5000 
    124 C124       -3.6884  -15.7611  -52.5074 C.3       23 UNK        -0.0398 
    125 S125       -2.6365  -16.0640  -51.0429 S.3       23 UNK        -0.2404 
    126 C126       -1.1715  -16.8447  -51.7946 C.3       23 UNK        -0.0205 
    127 H127        6.0052   -8.0590  -48.1544 H         1 UNK         0.0600 
    128 H128        4.4049   -7.4453  -47.7275 H         1 UNK         0.0600 
    129 H129        5.5391   -7.9148  -46.4567 H         1 UNK         0.0600 
    130 H130        5.9549  -10.1596  -48.8481 H         1 UNK         0.3000 
    131 H131        5.3715  -12.1772  -49.3565 H         1 UNK         0.0600 
    132 H132        2.7088  -12.1301  -47.8564 H         1 UNK         0.0800 
    133 H133        2.9142  -11.2696  -49.3517 H         1 UNK         0.0800 
    134 H134        2.7102  -14.9010  -47.7518 H         1 UNK         0.0800 
    135 H135        1.2260  -14.0894  -48.1962 H         1 UNK         0.0800 
    136 H136       -0.0258  -14.8717  -50.2992 H         1 UNK         0.1150 
    137 H137        0.3180  -19.0541  -51.1723 H         1 UNK         0.1150 
    138 H138        3.0786  -17.1896  -48.4725 H         1 UNK         0.1150 
    139 H139        2.4389  -20.1736  -50.5634 H         1 UNK         0.0800 
    140 H140        3.5941  -19.3688  -49.5398 H         1 UNK         0.0800 
    141 H141        0.5222  -21.4953  -49.8632 H         1 UNK         0.0800 
    142 H142       -0.3414  -20.3776  -48.8303 H         1 UNK         0.0800 
    143 H143        0.6414  -23.1600  -47.9965 H         1 UNK         0.0600 
    144 H144       -0.2830  -21.0666  -46.3402 H         1 UNK         0.3000 
    145 H145       -1.7360  -23.0611  -43.7445 H         1 UNK         0.0600 
    146 H146       -0.1339  -21.6791  -42.4314 H         1 UNK         0.0600 
    147 H147        0.6840  -23.0003  -43.2509 H         1 UNK         0.0600 
    148 H148        0.8149  -21.3675  -43.8844 H         1 UNK         0.0600 
    149 H149       -1.3849  -20.2282  -44.2955 H         1 UNK         0.3000 
    150 H150       -4.6242  -19.7478  -45.6935 H         1 UNK         0.0600 
    151 H151       -5.0667  -19.8558  -43.2361 H         1 UNK         0.0600 
    152 H152       -4.8723  -18.1966  -43.7782 H         1 UNK         0.0600 
    153 H153       -3.5617  -19.0025  -42.9150 H         1 UNK         0.0600 
    154 H154       -2.5801  -17.9114  -44.9210 H         1 UNK         0.3000 
    155 H155       -0.8110  -17.9272  -48.0344 H         1 UNK         0.0600 
    156 H156       -1.4134  -15.5600  -47.8947 H         1 UNK         0.0600 
    157 H157       -2.5203  -15.8559  -46.5560 H         1 UNK         0.0600 
    158 H158       -2.8939  -16.4700  -48.1590 H         1 UNK         0.0600 
    159 H159       -0.0956  -16.3489  -45.9588 H         1 UNK         0.3000 
    160 H160        1.6564  -18.4716  -43.7502 H         1 UNK         0.0600 
    161 H161        2.7573  -16.6543  -45.9507 H         1 UNK         0.0600 
    162 H162        3.1571  -18.3466  -45.7171 H         1 UNK         0.0600 
    163 H163        3.6131  -17.1695  -44.4956 H         1 UNK         0.0600 
    164 H164        0.9642  -16.6895  -42.7058 H         1 UNK         0.3000 
    165 H165       -0.6802  -14.1548  -43.0620 H         1 UNK         0.0600 
    166 H166        1.8418  -14.8685  -41.4748 H         1 UNK         0.0600 
    167 H167        0.5076  -13.9053  -40.8545 H         1 UNK         0.0600 
    168 H168        0.2364  -15.5799  -41.2855 H         1 UNK         0.0600 
    169 H169        1.8381  -12.7078  -42.7407 H         1 UNK         0.3000 
    170 H170        2.1166  -10.9249  -44.9172 H         1 UNK         0.0600 
    171 H171       -0.3521   -9.2565  -44.2048 H         1 UNK         0.0600 
    172 H172        0.1341   -9.7725  -45.8146 H         1 UNK         0.0600 
    173 H173        1.1291   -8.6297  -44.9308 H         1 UNK         0.0600 
    174 H174        2.9852  -10.3040  -43.0089 H         1 UNK         0.3000 
    175 H175        2.4312   -8.6380  -40.5475 H         1 UNK         0.0600 
    176 H176        2.3827   -9.9780  -38.4218 H         1 UNK         0.0600 
    177 H177        0.7742   -9.6674  -39.0502 H         1 UNK         0.0600 
    178 H178        1.4985  -11.2554  -39.2558 H         1 UNK         0.0600 
    179 H179        4.4138   -9.5658  -40.7918 H         1 UNK         0.3000 
    180 H180        6.0458  -10.8690  -41.2849 H         1 UNK         0.0600 
    181 H181        5.6706  -13.6142  -39.9669 H         1 UNK         0.0600 
    182 H182        6.0419  -12.1197  -39.1161 H         1 UNK         0.0600 
    183 H183        7.2090  -12.7956  -40.2417 H         1 UNK         0.0600 
    184 H184        6.0679  -13.4667  -42.4076 H         1 UNK         0.3000 
    185 H185        6.4420  -13.3885  -44.9019 H         1 UNK         0.0600 
    186 H186        4.6022  -15.0050  -45.4677 H         1 UNK         0.0600 
    187 H187        4.7066  -14.8237  -43.7273 H         1 UNK         0.0600 
    188 H188        3.4368  -13.9950  -44.6196 H         1 UNK         0.0600 
    189 H189        4.5603  -11.4878  -45.9367 H         1 UNK         0.3000 
    190 H190       -2.5373  -21.4620  -48.0006 H         1 UNK         0.3000 
    191 H191       -3.7705  -22.9719  -50.0336 H         1 UNK         0.0600 
    192 H192       -4.6345  -20.8128  -49.1057 H         1 UNK         0.0600 
    193 H193       -5.8718  -22.0634  -49.1009 H         1 UNK         0.0600 
    194 H194       -5.0594  -21.6194  -47.6022 H         1 UNK         0.0600 
    195 H195       -3.7000  -23.5401  -46.4733 H         1 UNK         0.3000 
    196 H196       -5.3322  -25.8518  -46.4588 H         1 UNK         0.0600 
    197 H197       -4.3529  -26.2149  -44.1878 H         1 UNK         0.0600 
    198 H198       -4.8494  -24.5463  -44.4201 H         1 UNK         0.0600 
    199 H199       -3.1427  -24.9781  -44.5034 H         1 UNK         0.0600 
    200 H200       -1.7462  -25.5483  -46.6697 H         1 UNK         0.3000 
    201 H201       -1.1524  -28.3174  -46.7465 H         1 UNK         0.0600 
    202 H202        0.5442  -26.5782  -46.2785 H         1 UNK         0.0600 
    203 H203        0.3754  -25.9263  -47.9070 H         1 UNK         0.0600 
    204 H204        1.0451  -27.5361  -47.6638 H         1 UNK         0.0600 
    205 H205       -2.0110  -26.0439  -49.3393 H         1 UNK         0.3000 
    206 H206       -1.7352  -27.9953  -51.4955 H         1 UNK         0.0600 
    207 H207       -1.2637  -25.5955  -51.8670 H         1 UNK         0.0600 
    208 H208       -2.6386  -26.0813  -52.8472 H         1 UNK         0.0600 
    209 H209       -2.8948  -25.1706  -51.3611 H         1 UNK         0.0600 
    210 H210       -3.9966  -27.7890  -49.0744 H         1 UNK         0.3000 
    211 H211       -6.0587  -28.4532  -48.6806 H         1 UNK         0.0600 
    212 H212       -5.7701  -30.1856  -51.1929 H         1 UNK         0.0600 
    213 H213       -6.8875  -30.4557  -49.8617 H         1 UNK         0.0600 
    214 H214       -5.1595  -30.6073  -49.5933 H         1 UNK         0.0600 
    215 H215       -5.8056  -26.0350  -50.1306 H         1 UNK         0.3000 
    216 H216       -6.8471  -24.4281  -51.1662 H         1 UNK         0.0600 
    217 H217       -8.6907  -24.9586  -49.5591 H         1 UNK         0.0600 
    218 H218       -9.4493  -25.9934  -50.7692 H         1 UNK         0.0600 
    219 H219       -9.2999  -24.2652  -51.0516 H         1 UNK         0.0600 
    220 H220       -6.1464  -27.0589  -52.8002 H         1 UNK         0.3000 
    221 H221       -7.6927  -26.6782  -55.2535 H         1 UNK         0.0600 
    222 H222       -5.1638  -28.3244  -54.7160 H         1 UNK         0.0600 
    223 H223       -6.8149  -28.9211  -54.5483 H         1 UNK         0.0600 
    224 H224       -6.2064  -28.4419  -56.1261 H         1 UNK         0.0600 
    225 H225       -4.9367  -25.2253  -53.7907 H         1 UNK         0.3000 
    226 H226       -4.5451  -23.3664  -55.9350 H         1 UNK         0.0600 
    227 H227       -2.9526  -25.1983  -56.6565 H         1 UNK         0.0600 
    228 H228       -2.0744  -23.7741  -56.1304 H         1 UNK         0.0600 
    229 H229       -2.1968  -25.1687  -55.0657 H         1 UNK         0.0600 
    230 H230       -2.8154  -21.7634  -55.0939 H         1 UNK         0.3000 
    231 H231       -2.0925  -20.2595  -53.6598 H         1 UNK         0.0600 
    232 H232       -1.0591  -21.0482  -51.5531 H         1 UNK         0.0600 
    233 H233       -0.6976  -22.1545  -52.8665 H         1 UNK         0.0600 
    234 H234       -1.9167  -22.5771  -51.6672 H         1 UNK         0.0600 
    235 H235       -5.1294  -21.0763  -53.4502 H         1 UNK         0.3000 
    236 H236       -5.9526  -19.9895  -50.8784 H         1 UNK         0.0600 
    237 H237       -8.2254  -20.4245  -51.7758 H         1 UNK         0.0600 
    238 H238       -7.5539  -20.8001  -53.3593 H         1 UNK         0.0600 
    239 H239       -7.1964  -21.8333  -51.9766 H         1 UNK         0.0600 
    240 H240       -4.4235  -18.0771  -51.6120 H         1 UNK         0.3000 
    241 H241       -5.6422  -16.0636  -53.2988 H         1 UNK         0.0600 
    242 H242       -6.3776  -16.7920  -50.0303 H         1 UNK         0.3800 
    243 H243       -7.0069  -15.2165  -49.6240 H         1 UNK         0.3800 
    244 H244       -3.2588  -16.2765  -53.3673 H         1 UNK         0.0800 
    245 H245       -3.6416  -14.6989  -52.7530 H         1 UNK         0.0800 
    246 H246       -0.8480  -16.2542  -52.6528 H         1 UNK         0.0800 
    247 H247       -1.4535  -17.8270  -52.1759 H         1 UNK         0.0800 
@<TRIPOS>BOND
     1    1    2 1    
     2    1  127 1    
     3    1  128 1    
     4    1  129 1    
     5    2    3 2    
     6    2    4 am   BACKBONE|DICT|INTERRES
     7    4    5 1    
     8    4  130 1    
     9    5    6 1    
    10    5   65 1    
    11    5  131 1    
    12    6    7 1    
    13    6  132 1    
    14    6  133 1    
    15    7    8 1    
    16    8    9 1    
    17    8  134 1    
    18    8  135 1    
    19    9   10 ar   
    20    9   14 ar   
    21   10   11 ar   
    22   10  136 1    
    23   11   12 ar   
    24   11  126 1    
    25   12   13 ar   
    26   12  137 1    
    27   13   14 ar   
    28   13   15 1    
    29   14  138 1    
    30   15   16 1    
    31   15  139 1    
    32   15  140 1    
    33   16   17 1    
    34   17   18 1    
    35   17  141 1    
    36   17  142 1    
    37   18   19 1    
    38   18   67 1    
    39   18  143 1    
    40   19   20 am   BACKBONE|DICT|INTERRES
    41   19  144 1    
    42   20   21 2    
    43   20   22 1    
    44   22   23 1    
    45   22   24 1    
    46   22  145 1    
    47   23  146 1    
    48   23  147 1    
    49   23  148 1    
    50   24   25 am   BACKBONE|DICT|INTERRES
    51   24  149 1    
    52   25   26 2    
    53   25   27 1    
    54   27   28 1    
    55   27   29 1    
    56   27  150 1    
    57   28  151 1    
    58   28  152 1    
    59   28  153 1    
    60   29   30 am   BACKBONE|DICT|INTERRES
    61   29  154 1    
    62   30   31 2    
    63   30   32 1    
    64   32   33 1    
    65   32   34 1    
    66   32  155 1    
    67   33  156 1    
    68   33  157 1    
    69   33  158 1    
    70   34   35 am   BACKBONE|DICT|INTERRES
    71   34  159 1    
    72   35   36 2    
    73   35   37 1    
    74   37   38 1    
    75   37   39 1    
    76   37  160 1    
    77   38  161 1    
    78   38  162 1    
    79   38  163 1    
    80   39   40 am   BACKBONE|DICT|INTERRES
    81   39  164 1    
    82   40   41 2    
    83   40   42 1    
    84   42   43 1    
    85   42   44 1    
    86   42  165 1    
    87   43  166 1    
    88   43  167 1    
    89   43  168 1    
    90   44   45 am   BACKBONE|DICT|INTERRES
    91   44  169 1    
    92   45   46 2    
    93   45   47 1    
    94   47   48 1    
    95   47   49 1    
    96   47  170 1    
    97   48  171 1    
    98   48  172 1    
    99   48  173 1    
   100   49   50 am   BACKBONE|DICT|INTERRES
   101   49  174 1    
   102   50   51 2    
   103   50   52 1    
   104   52   53 1    
   105   52   54 1    
   106   52  175 1    
   107   53  176 1    
   108   53  177 1    
   109   53  178 1    
   110   54   55 am   BACKBONE|DICT|INTERRES
   111   54  179 1    
   112   55   56 2    
   113   55   57 1    
   114   57   58 1    
   115   57   59 1    
   116   57  180 1    
   117   58  181 1    
   118   58  182 1    
   119   58  183 1    
   120   59   60 am   BACKBONE|DICT|INTERRES
   121   59  184 1    
   122   60   61 2    
   123   60   62 1    
   124   62   63 1    
   125   62   64 1    
   126   62  185 1    
   127   63  186 1    
   128   63  187 1    
   129   63  188 1    
   130   64   65 am   BACKBONE|DICT|INTERRES
   131   64  189 1    
   132   65   66 2    
   133   67   68 2    
   134   67   69 am   BACKBONE|DICT|INTERRES
   135   69   70 1    
   136   69  190 1    
   137   70   71 1    
   138   70   72 1    
   139   70  191 1    
   140   71  192 1    
   141   71  193 1    
   142   71  194 1    
   143   72   73 2    
   144   72   74 am   BACKBONE|DICT|INTERRES
   145   74   75 1    
   146   74  195 1    
   147   75   76 1    
   148   75   77 1    
   149   75  196 1    
   150   76  197 1    
   151   76  198 1    
   152   76  199 1    
   153   77   78 2    
   154   77   79 am   BACKBONE|DICT|INTERRES
   155   79   80 1    
   156   79  200 1    
   157   80   81 1    
   158   80   82 1    
   159   80  201 1    
   160   81  202 1    
   161   81  203 1    
   162   81  204 1    
   163   82   83 2    
   164   82   84 am   BACKBONE|DICT|INTERRES
   165   84   85 1    
   166   84  205 1    
   167   85   86 1    
   168   85   87 1    
   169   85  206 1    
   170   86  207 1    
   171   86  208 1    
   172   86  209 1    
   173   87   88 2    
   174   87   89 am   BACKBONE|DICT|INTERRES
   175   89   90 1    
   176   89  210 1    
   177   90   91 1    
   178   90   92 1    
   179   90  211 1    
   180   91  212 1    
   181   91  213 1    
   182   91  214 1    
   183   92   93 2    
   184   92   94 am   BACKBONE|DICT|INTERRES
   185   94   95 1    
   186   94  215 1    
   187   95   96 1    
   188   95   97 1    
   189   95  216 1    
   190   96  217 1    
   191   96  218 1    
   192   96  219 1    
   193   97   98 2    
   194   97   99 am   BACKBONE|DICT|INTERRES
   195   99  100 1    
   196   99  220 1    
   197  100  101 1    
   198  100  102 1    
   199  100  221 1    
   200  101  222 1    
   201  101  223 1    
   202  101  224 1    
   203  102  103 2    
   204  102  104 am   BACKBONE|DICT|INTERRES
   205  104  105 1    
   206  104  225 1    
   207  105  106 1    
   208  105  107 1    
   209  105  226 1    
   210  106  227 1    
   211  106  228 1    
   212  106  229 1    
   213  107  108 2    
   214  107  109 am   BACKBONE|DICT|INTERRES
   215  109  110 1    
   216  109  230 1    
   217  110  111 1    
   218  110  112 1    
   219  110  231 1    
   220  111  232 1    
   221  111  233 1    
   222  111  234 1    
   223  112  113 2    
   224  112  114 am   BACKBONE|DICT|INTERRES
   225  114  115 1    
   226  114  235 1    
   227  115  116 1    
   228  115  117 1    
   229  115  236 1    
   230  116  237 1    
   231  116  238 1    
   232  116  239 1    
   233  117  118 2    
   234  117  119 am   BACKBONE|DICT|INTERRES
   235  119  120 1    
   236  119  240 1    
   237  120  121 1    
   238  120  124 1    
   239  120  241 1    
   240  121  122 am   BACKBONE|DICT|INTERRES
   241  121  123 2    
   242  122  242 1    
   243  122  243 1    
   244  124  125 1    
   245  124  244 1    
   246  124  245 1    
   247  125  126 1    
   248  126  246 1    
   249  126  247 1    
@<TRIPOS>SUBSTRUCTURE
     1 UNK         1 GROUP             0       ****    0 ROOT    
