@<TRIPOS>MOLECULE
3R540
247   249    1
SMALL
USER_CHARGES


@<TRIPOS>ATOM
      1 CA          0.5494  -11.6182  -45.4445 C.3       0 UNK        -0.1800 
      2 C           1.6987  -11.8305  -46.4197 C.2       0 UNK         0.5000 
      3 O           2.6958  -11.1123  -46.3545 O.2       0 UNK        -0.5000 
      4 N           1.5731  -12.8239  -47.3122 N.am      1 UNK        -0.5000 
      5 CA          2.5823  -13.2113  -48.3107 C.3       1 UNK         0.1400 
      6 C6          2.0339  -14.3153  -49.2492 C.3       23 UNK        -0.0398 
      7 S7          3.0763  -14.6060  -50.7198 S.3       23 UNK        -0.2404 
      8 C8          1.8631  -15.2591  -51.9094 C.3       23 UNK        -0.0205 
      9 C9          1.1630  -16.5164  -51.4102 C.ar      23 UNK        -0.0193 
     10 C10        -0.2277  -16.5315  -51.2676 C.ar      23 UNK        -0.1150 
     11 C11        -0.8868  -17.6950  -50.8631 C.ar      23 UNK        -0.0193 
     12 C12        -0.1428  -18.8403  -50.5719 C.ar      23 UNK        -0.1150 
     13 C13         1.2485  -18.8356  -50.6940 C.ar      23 UNK        -0.0193 
     14 C14         1.8960  -17.6732  -51.1227 C.ar      23 UNK        -0.1150 
     15 C15         2.0422  -20.0991  -50.3965 C.3       23 UNK        -0.0205 
     16 S16         2.9239  -20.0312  -48.8022 S.3       23 UNK        -0.2404 
     17 C17         1.5904  -19.7785  -47.5813 C.3       23 UNK        -0.0398 
     18 CA          0.9132  -21.0967  -47.1166 C.3       11 UNK         0.1400 
     19 N           0.6378  -21.1011  -45.6759 N.am      11 UNK        -0.5000 
     20 C           0.1924  -22.1558  -44.9782 C.2       10 UNK         0.5000 
     21 O           0.0386  -23.2768  -45.4617 O.2       10 UNK        -0.5000 
     22 CA         -0.2064  -21.9037  -43.5109 C.3       10 UNK         0.1400 
     23 CB          1.0118  -21.9955  -42.5805 C.3       10 UNK        -0.1800 
     24 N          -0.8829  -20.6170  -43.3286 N.am      10 UNK        -0.5000 
     25 C          -2.0747  -20.3152  -43.8645 C.2       9 UNK         0.5000 
     26 O          -2.7558  -21.1198  -44.4979 O.2       9 UNK        -0.5000 
     27 CA         -2.5683  -18.8643  -43.7226 C.3       9 UNK         0.1400 
     28 CB         -3.2615  -18.6521  -42.3691 C.3       9 UNK        -0.1800 
     29 N          -1.4962  -17.8831  -43.8950 N.am      9 UNK        -0.5000 
     30 C          -0.8037  -17.7024  -45.0290 C.2       8 UNK         0.5000 
     31 O          -1.0373  -18.3084  -46.0745 O.2       8 UNK        -0.5000 
     32 CA          0.3920  -16.7326  -44.9686 C.3       8 UNK         0.1400 
     33 CB         -0.0658  -15.2747  -45.1076 C.3       8 UNK        -0.1800 
     34 N           1.1719  -16.8865  -43.7399 N.am      8 UNK        -0.5000 
     35 C           1.8428  -17.9988  -43.4072 C.2       7 UNK         0.5000 
     36 O           1.9275  -18.9843  -44.1380 O.2       7 UNK        -0.5000 
     37 CA          2.4790  -18.0383  -42.0077 C.3       7 UNK         0.1400 
     38 CB          3.8496  -17.3476  -41.9937 C.3       7 UNK        -0.1800 
     39 N           1.6088  -17.4315  -41.0021 N.am      7 UNK        -0.5000 
     40 C           0.4716  -17.9884  -40.5628 C.2       6 UNK         0.5000 
     41 O           0.0635  -19.0889  -40.9332 O.2       6 UNK        -0.5000 
     42 CA         -0.3673  -17.1565  -39.5757 C.3       6 UNK         0.1400 
     43 CB          0.1423  -17.3453  -38.1392 C.3       6 UNK        -0.1800 
     44 N          -0.3710  -15.7302  -39.9062 N.am      6 UNK        -0.5000 
     45 C          -0.9380  -15.2096  -41.0039 C.2       5 UNK         0.5000 
     46 O          -1.5472  -15.8759  -41.8385 O.2       5 UNK        -0.5000 
     47 CA         -0.7473  -13.6996  -41.2335 C.3       5 UNK         0.1400 
     48 CB         -1.8388  -12.8989  -40.5086 C.3       5 UNK        -0.1800 
     49 N           0.5715  -13.2201  -40.8131 N.am      5 UNK        -0.5000 
     50 C           1.7263  -13.5999  -41.3736 C.2       4 UNK         0.5000 
     51 O           1.8049  -14.4164  -42.2956 O.2       4 UNK        -0.5000 
     52 CA          3.0079  -13.0070  -40.7695 C.3       4 UNK         0.1400 
     53 CB          3.6682  -14.0084  -39.8101 C.3       4 UNK        -0.1800 
     54 N           3.9500  -12.6627  -41.8282 N.am      4 UNK        -0.5000 
     55 C           3.8910  -11.5470  -42.5620 C.2       3 UNK         0.5000 
     56 O           3.0822  -10.6403  -42.3594 O.2       3 UNK        -0.5000 
     57 CA          4.8899  -11.4235  -43.7259 C.3       3 UNK         0.1400 
     58 CB          6.3245  -11.1657  -43.2251 C.3       3 UNK        -0.1800 
     59 N           4.8298  -12.5432  -44.6725 N.am      3 UNK        -0.5000 
     60 C           5.1925  -13.8244  -44.5065 C.2       2 UNK         0.5000 
     61 O           5.6683  -14.2671  -43.4597 O.2       2 UNK        -0.5000 
     62 CA          4.9662  -14.7684  -45.7078 C.3       2 UNK         0.1400 
     63 CB          4.7181  -16.2229  -45.2798 C.3       2 UNK        -0.1800 
     64 N           3.8345  -14.3336  -46.5263 N.am      2 UNK        -0.5000 
     65 C           3.9229  -13.6301  -47.6617 C.2       1 UNK         0.5000 
     66 O           4.9894  -13.2718  -48.1625 O.2       1 UNK        -0.5000 
     67 C          -0.3630  -21.3954  -47.9330 C.2       11 UNK         0.5000 
     68 O          -0.3318  -22.2332  -48.8337 O.2       11 UNK        -0.5000 
     69 N          -1.4760  -20.7348  -47.5807 N.am      12 UNK        -0.5000 
     70 CA         -2.7932  -20.9577  -48.1782 C.3       12 UNK         0.1400 
     71 CB         -3.7839  -19.8968  -47.6786 C.3       12 UNK        -0.1800 
     72 C          -3.3283  -22.3770  -47.9222 C.2       12 UNK         0.5000 
     73 O          -3.8609  -22.9923  -48.8449 O.2       12 UNK        -0.5000 
     74 N          -3.1412  -22.8926  -46.6995 N.am      13 UNK        -0.5000 
     75 CA         -3.4777  -24.2636  -46.3110 C.3       13 UNK         0.1400 
     76 CB         -3.2986  -24.4386  -44.7963 C.3       13 UNK        -0.1800 
     77 C          -2.6666  -25.3173  -47.0877 C.2       13 UNK         0.5000 
     78 O          -3.2406  -26.3138  -47.5267 O.2       13 UNK        -0.5000 
     79 N          -1.3690  -25.0541  -47.3036 N.am      14 UNK        -0.5000 
     80 CA         -0.4825  -25.8626  -48.1478 C.3       14 UNK         0.1400 
     81 CB          0.9692  -25.3922  -47.9727 C.3       14 UNK        -0.1800 
     82 C          -0.8914  -25.8539  -49.6359 C.2       14 UNK         0.5000 
     83 O          -0.6834  -26.8504  -50.3278 O.2       14 UNK        -0.5000 
     84 N          -1.5232  -24.7598  -50.0822 N.am      15 UNK        -0.5000 
     85 CA         -2.1690  -24.6097  -51.3886 C.3       15 UNK         0.1400 
     86 CB         -2.1131  -23.1271  -51.8049 C.3       15 UNK        -0.1800 
     87 C          -3.6149  -25.1629  -51.4136 C.2       15 UNK         0.5000 
     88 O          -4.3803  -24.8066  -52.3105 O.2       15 UNK        -0.5000 
     89 N          -3.9746  -26.0061  -50.4322 N.am      16 UNK        -0.5000 
     90 CA         -5.2637  -26.6827  -50.2512 C.3       16 UNK         0.1400 
     91 CB         -5.5123  -27.7005  -51.3833 C.3       16 UNK        -0.1800 
     92 C          -6.4301  -25.6975  -50.0374 C.2       16 UNK         0.5000 
     93 O          -7.4946  -25.8530  -50.6370 O.2       16 UNK        -0.5000 
     94 N          -6.1842  -24.6911  -49.1861 N.am      17 UNK        -0.5000 
     95 CA         -7.0443  -23.5398  -48.8905 C.3       17 UNK         0.1400 
     96 CB         -8.3853  -23.9753  -48.2628 C.3       17 UNK        -0.1800 
     97 C          -7.2013  -22.6222  -50.1201 C.2       17 UNK         0.5000 
     98 O          -8.3005  -22.1406  -50.3995 O.2       17 UNK        -0.5000 
     99 N          -6.0795  -22.4155  -50.8280 N.am      18 UNK        -0.5000 
    100 CA        -5.9356  -21.6744  -52.0844 C.3       18 UNK         0.1400 
    101 CB        -6.1134  -20.1619  -51.8392 C.3       18 UNK        -0.1800 
    102 C         -6.8509  -22.2293  -53.1969 C.2       18 UNK         0.5000 
    103 O         -7.6592  -21.4930  -53.7694 O.2       18 UNK        -0.5000 
    104 N         -6.7222  -23.5367  -53.4612 N.am      19 UNK        -0.5000 
    105 CA        -7.4562  -24.2578  -54.4995 C.3       19 UNK         0.1400 
    106 CB        -7.2142  -25.7667  -54.3435 C.3       19 UNK        -0.1800 
    107 C         -7.0443  -23.7665  -55.8985 C.2       19 UNK         0.5000 
    108 O         -5.8986  -23.9757  -56.3017 O.2       19 UNK        -0.5000 
    109 N         -7.9837  -23.1013  -56.5871 N.am      20 UNK        -0.5000 
    110 CA        -7.7952  -22.3619  -57.8420 C.3       20 UNK         0.1400 
    111 CB        -7.4125  -23.3050  -59.0030 C.3       20 UNK        -0.1800 
    112 C         -6.8299  -21.1666  -57.6725 C.2       20 UNK         0.5000 
    113 O         -6.0006  -20.9088  -58.5473 O.2       20 UNK        -0.5000 
    114 N         -6.9764  -20.4644  -56.5381 N.am      21 UNK        -0.5000 
    115 CA        -6.1497  -19.3600  -56.0430 C.3       21 UNK         0.1400 
    116 CB        -6.0969  -18.1886  -57.0496 C.3       21 UNK        -0.1800 
    117 C         -4.7575  -19.8349  -55.5750 C.2       21 UNK         0.5000 
    118 O         -4.5336  -21.0341  -55.3991 O.2       21 UNK        -0.5000 
    119 N         -3.8597  -18.8810  -55.3163 N.am      22 UNK        -0.5000 
    120 CA        -2.5266  -19.1249  -54.7436 C.3       22 UNK         0.1400 
    121 C         -1.4178  -18.1808  -55.2944 C.2       22 UNK         0.5000 
    122 N         -1.6713  -17.3905  -56.3318 N.am      22 UNK        -0.7600 
    123 O         -0.2946  -18.1853  -54.8000 O.2       22 UNK        -0.5000 
    124 C124       -2.5746  -19.2048  -53.1936 C.3       23 UNK        -0.0398 
    125 S125       -3.2007  -17.6756  -52.4045 S.3       23 UNK        -0.2404 
    126 C126       -2.4044  -17.7266  -50.7671 C.3       23 UNK        -0.0205 
    127 H127        0.8693  -11.8645  -44.4314 H         1 UNK         0.0600 
    128 H128       -0.3130  -12.2378  -45.6909 H         1 UNK         0.0600 
    129 H129        0.2324  -10.5755  -45.4586 H         1 UNK         0.0600 
    130 H130        0.7158  -13.3567  -47.3286 H         1 UNK         0.3000 
    131 H131        2.7799  -12.3227  -48.9144 H         1 UNK         0.0600 
    132 H132        1.9086  -15.2592  -48.7149 H         1 UNK         0.0800 
    133 H133        1.0397  -14.0318  -49.5977 H         1 UNK         0.0800 
    134 H134        2.3754  -15.4901  -52.8443 H         1 UNK         0.0800 
    135 H135        1.1399  -14.4762  -52.1431 H         1 UNK         0.0800 
    136 H136       -0.8055  -15.6483  -51.5012 H         1 UNK         0.1150 
    137 H137       -0.6507  -19.7444  -50.2707 H         1 UNK         0.1150 
    138 H138        2.9713  -17.6685  -51.2338 H         1 UNK         0.1150 
    139 H139        1.3951  -20.9765  -50.4173 H         1 UNK         0.0800 
    140 H140        2.7741  -20.2531  -51.1906 H         1 UNK         0.0800 
    141 H141        0.8722  -19.0407  -47.9416 H         1 UNK         0.0800 
    142 H142        2.0758  -19.2951  -46.7336 H         1 UNK         0.0800 
    143 H143        1.6055  -21.9235  -47.2894 H         1 UNK         0.0600 
    144 H144        0.7992  -20.2310  -45.1785 H         1 UNK         0.3000 
    145 H145       -0.9068  -22.6886  -43.2191 H         1 UNK         0.0600 
    146 H146        0.7229  -21.8583  -41.5383 H         1 UNK         0.0600 
    147 H147        1.4879  -22.9734  -42.6606 H         1 UNK         0.0600 
    148 H148        1.7649  -21.2459  -42.8199 H         1 UNK         0.0600 
    149 H149       -0.4067  -19.9223  -42.7637 H         1 UNK         0.3000 
    150 H150       -3.3053  -18.6887  -44.5088 H         1 UNK         0.0600 
    151 H151       -4.0786  -19.3619  -42.2337 H         1 UNK         0.0600 
    152 H152       -3.6859  -17.6506  -42.2968 H         1 UNK         0.0600 
    153 H153       -2.5711  -18.7837  -41.5363 H         1 UNK         0.0600 
    154 H154       -1.2895  -17.2923  -43.0944 H         1 UNK         0.3000 
    155 H155        1.0496  -16.9621  -45.8098 H         1 UNK         0.0600 
    156 H156       -0.7653  -14.9945  -44.3202 H         1 UNK         0.0600 
    157 H157       -0.5653  -15.1126  -46.0633 H         1 UNK         0.0600 
    158 H158        0.7821  -14.5928  -45.0549 H         1 UNK         0.0600 
    159 H159        1.1974  -16.0918  -43.1078 H         1 UNK         0.3000 
    160 H160        2.6307  -19.0862  -41.7403 H         1 UNK         0.0600 
    161 H161        3.7791  -16.2969  -42.2754 H         1 UNK         0.0600 
    162 H162        4.5329  -17.8306  -42.6928 H         1 UNK         0.0600 
    163 H163        4.3083  -17.4009  -41.0064 H         1 UNK         0.0600 
    164 H164        1.8514  -16.5048  -40.6867 H         1 UNK         0.3000 
    165 H165       -1.3960  -17.5198  -39.6239 H         1 UNK         0.0600 
    166 H166       -0.4915  -16.8205  -37.4241 H         1 UNK         0.0600 
    167 H167        0.1403  -18.3999  -37.8604 H         1 UNK         0.0600 
    168 H168        1.1616  -16.9759  -38.0196 H         1 UNK         0.0600 
    169 H169        0.1076  -15.1103  -39.2698 H         1 UNK         0.3000 
    170 H170       -0.8446  -13.5136  -42.3051 H         1 UNK         0.0600 
    171 H171       -2.8325  -13.2245  -40.8194 H         1 UNK         0.0600 
    172 H172       -1.7772  -13.0194  -39.4263 H         1 UNK         0.0600 
    173 H173       -1.7623  -11.8349  -40.7335 H         1 UNK         0.0600 
    174 H174        0.5874  -12.5494  -40.0581 H         1 UNK         0.3000 
    175 H175        2.7564  -12.1062  -40.2055 H         1 UNK         0.0600 
    176 H176        3.9812  -14.9166  -40.3241 H         1 UNK         0.0600 
    177 H177        4.5500  -13.5745  -39.3385 H         1 UNK         0.0600 
    178 H178        2.9838  -14.2992  -39.0121 H         1 UNK         0.0600 
    179 H179        4.5988  -13.3854  -42.1268 H         1 UNK         0.3000 
    180 H180        4.5899  -10.5453  -44.3000 H         1 UNK         0.0600 
    181 H181        6.7038  -11.9865  -42.6162 H         1 UNK         0.0600 
    182 H182        6.3631  -10.2645  -42.6121 H         1 UNK         0.0600 
    183 H183        7.0120  -11.0211  -44.0586 H         1 UNK         0.0600 
    184 H184        4.3964  -12.3021  -45.5556 H         1 UNK         0.3000 
    185 H185        5.8858  -14.7507  -46.2960 H         1 UNK         0.0600 
    186 H186        5.5450  -16.6106  -44.6838 H         1 UNK         0.0600 
    187 H187        3.8094  -16.3041  -44.6875 H         1 UNK         0.0600 
    188 H188        4.6099  -16.8761  -46.1459 H         1 UNK         0.0600 
    189 H189        2.9168  -14.5353  -46.1585 H         1 UNK         0.3000 
    190 H190       -1.4114  -20.0172  -46.8634 H         1 UNK         0.3000 
    191 H191       -2.6890  -20.8393  -49.2580 H         1 UNK         0.0600 
    192 H192       -3.9701  -19.9883  -46.6088 H         1 UNK         0.0600 
    193 H193       -4.7438  -19.9924  -48.1879 H         1 UNK         0.0600 
    194 H194       -3.4134  -18.8888  -47.8654 H         1 UNK         0.0600 
    195 H195       -2.7607  -22.2930  -45.9714 H         1 UNK         0.3000 
    196 H196       -4.5328  -24.4212  -46.5430 H         1 UNK         0.0600 
    197 H197       -3.5977  -25.4393  -44.4820 H         1 UNK         0.0600 
    198 H198       -3.9104  -23.7268  -44.2419 H         1 UNK         0.0600 
    199 H199       -2.2620  -24.2968  -44.4929 H         1 UNK         0.0600 
    200 H200       -0.9547  -24.2402  -46.8581 H         1 UNK         0.3000 
    201 H201       -0.5457  -26.8951  -47.7983 H         1 UNK         0.0600 
    202 H202        1.2802  -25.4533  -46.9297 H         1 UNK         0.0600 
    203 H203        1.1046  -24.3623  -48.3013 H         1 UNK         0.0600 
    204 H204        1.6527  -26.0132  -48.5531 H         1 UNK         0.0600 
    205 H205       -1.6130  -23.9736  -49.4499 H         1 UNK         0.3000 
    206 H206       -1.6027  -25.1803  -52.1271 H         1 UNK         0.0600 
    207 H207       -1.0904  -22.7499  -51.7820 H         1 UNK         0.0600 
    208 H208       -2.4853  -22.9885  -52.8207 H         1 UNK         0.0600 
    209 H209       -2.7126  -22.4976  -51.1490 H         1 UNK         0.0600 
    210 H210       -3.2983  -26.1898  -49.7019 H         1 UNK         0.3000 
    211 H211       -5.1814  -27.2493  -49.3228 H         1 UNK         0.0600 
    212 H212       -5.6028  -27.2153  -52.3539 H         1 UNK         0.0600 
    213 H213       -6.4302  -28.2636  -51.2110 H         1 UNK         0.0600 
    214 H214       -4.6977  -28.4219  -51.4468 H         1 UNK         0.0600 
    215 H215       -5.2411  -24.6128  -48.8251 H         1 UNK         0.3000 
    216 H216       -6.5165  -22.9502  -48.1398 H         1 UNK         0.0600 
    217 H217       -8.9456  -23.1099  -47.9075 H         1 UNK         0.0600 
    218 H218       -8.2253  -24.6314  -47.4073 H         1 UNK         0.0600 
    219 H219       -9.0204  -24.5009  -48.9760 H         1 UNK         0.0600 
    220 H220       -5.2362  -22.8565  -50.4800 H         1 UNK         0.3000 
    221 H221       -4.9118  -21.8348  -52.4247 H         1 UNK         0.0600 
    222 H222       -7.1251  -19.9187  -51.5138 H         1 UNK         0.0600 
    223 H223       -5.4206  -19.8030  -51.0779 H         1 UNK         0.0600 
    224 H224       -5.9171  -19.5927  -52.7475 H         1 UNK         0.0600 
    225 H225       -5.9908  -24.0573  -52.9826 H         1 UNK         0.3000 
    226 H226       -8.5221  -24.0720  -54.3519 H         1 UNK         0.0600 
    227 H227       -7.5773  -26.1245  -53.3804 H         1 UNK         0.0600 
    228 H228       -7.7380  -26.3286  -55.1176 H         1 UNK         0.0600 
    229 H229       -6.1542  -26.0131  -54.4172 H         1 UNK         0.0600 
    230 H230       -8.8901  -22.9858  -56.1549 H         1 UNK         0.3000 
    231 H231       -8.7662  -21.9288  -58.0863 H         1 UNK         0.0600 
    232 H232       -8.1143  -24.1349  -59.0849 H         1 UNK         0.0600 
    233 H233       -6.4125  -23.7212  -58.8797 H         1 UNK         0.0600 
    234 H234       -7.4268  -22.7737  -59.9552 H         1 UNK         0.0600 
    235 H235       -7.6211  -20.8325  -55.8484 H         1 UNK         0.3000 
    236 H236       -6.6592  -18.9988  -55.1486 H         1 UNK         0.0600 
    237 H237       -5.7159  -17.2807  -56.5815 H         1 UNK         0.0600 
    238 H238       -5.4541  -18.4110  -57.9018 H         1 UNK         0.0600 
    239 H239       -7.0901  -17.9537  -57.4326 H         1 UNK         0.0600 
    240 H240       -4.1151  -17.9108  -55.4289 H         1 UNK         0.3000 
    241 H241       -2.1957  -20.1052  -55.0919 H         1 UNK         0.0600 
    242 H242       -0.9370  -16.7944  -56.6807 H         1 UNK         0.3800 
    243 H243       -2.5572  -17.4156  -56.8093 H         1 UNK         0.3800 
    244 H244       -3.2191  -20.0291  -52.8881 H         1 UNK         0.0800 
    245 H245       -1.5865  -19.4554  -52.8101 H         1 UNK         0.0800 
    246 H246       -2.7425  -18.6180  -50.2393 H         1 UNK         0.0800 
    247 H247       -2.7454  -16.8739  -50.1786 H         1 UNK         0.0800 
@<TRIPOS>BOND
     1    1    2 1    
     2    1  127 1    
     3    1  128 1    
     4    1  129 1    
     5    2    3 2    
     6    2    4 am   BACKBONE|DICT|INTERRES
     7    4    5 1    
     8    4  130 1    
     9    5    6 1    
    10    5   65 1    
    11    5  131 1    
    12    6    7 1    
    13    6  132 1    
    14    6  133 1    
    15    7    8 1    
    16    8    9 1    
    17    8  134 1    
    18    8  135 1    
    19    9   10 ar   
    20    9   14 ar   
    21   10   11 ar   
    22   10  136 1    
    23   11   12 ar   
    24   11  126 1    
    25   12   13 ar   
    26   12  137 1    
    27   13   14 ar   
    28   13   15 1    
    29   14  138 1    
    30   15   16 1    
    31   15  139 1    
    32   15  140 1    
    33   16   17 1    
    34   17   18 1    
    35   17  141 1    
    36   17  142 1    
    37   18   19 1    
    38   18   67 1    
    39   18  143 1    
    40   19   20 am   BACKBONE|DICT|INTERRES
    41   19  144 1    
    42   20   21 2    
    43   20   22 1    
    44   22   23 1    
    45   22   24 1    
    46   22  145 1    
    47   23  146 1    
    48   23  147 1    
    49   23  148 1    
    50   24   25 am   BACKBONE|DICT|INTERRES
    51   24  149 1    
    52   25   26 2    
    53   25   27 1    
    54   27   28 1    
    55   27   29 1    
    56   27  150 1    
    57   28  151 1    
    58   28  152 1    
    59   28  153 1    
    60   29   30 am   BACKBONE|DICT|INTERRES
    61   29  154 1    
    62   30   31 2    
    63   30   32 1    
    64   32   33 1    
    65   32   34 1    
    66   32  155 1    
    67   33  156 1    
    68   33  157 1    
    69   33  158 1    
    70   34   35 am   BACKBONE|DICT|INTERRES
    71   34  159 1    
    72   35   36 2    
    73   35   37 1    
    74   37   38 1    
    75   37   39 1    
    76   37  160 1    
    77   38  161 1    
    78   38  162 1    
    79   38  163 1    
    80   39   40 am   BACKBONE|DICT|INTERRES
    81   39  164 1    
    82   40   41 2    
    83   40   42 1    
    84   42   43 1    
    85   42   44 1    
    86   42  165 1    
    87   43  166 1    
    88   43  167 1    
    89   43  168 1    
    90   44   45 am   BACKBONE|DICT|INTERRES
    91   44  169 1    
    92   45   46 2    
    93   45   47 1    
    94   47   48 1    
    95   47   49 1    
    96   47  170 1    
    97   48  171 1    
    98   48  172 1    
    99   48  173 1    
   100   49   50 am   BACKBONE|DICT|INTERRES
   101   49  174 1    
   102   50   51 2    
   103   50   52 1    
   104   52   53 1    
   105   52   54 1    
   106   52  175 1    
   107   53  176 1    
   108   53  177 1    
   109   53  178 1    
   110   54   55 am   BACKBONE|DICT|INTERRES
   111   54  179 1    
   112   55   56 2    
   113   55   57 1    
   114   57   58 1    
   115   57   59 1    
   116   57  180 1    
   117   58  181 1    
   118   58  182 1    
   119   58  183 1    
   120   59   60 am   BACKBONE|DICT|INTERRES
   121   59  184 1    
   122   60   61 2    
   123   60   62 1    
   124   62   63 1    
   125   62   64 1    
   126   62  185 1    
   127   63  186 1    
   128   63  187 1    
   129   63  188 1    
   130   64   65 am   BACKBONE|DICT|INTERRES
   131   64  189 1    
   132   65   66 2    
   133   67   68 2    
   134   67   69 am   BACKBONE|DICT|INTERRES
   135   69   70 1    
   136   69  190 1    
   137   70   71 1    
   138   70   72 1    
   139   70  191 1    
   140   71  192 1    
   141   71  193 1    
   142   71  194 1    
   143   72   73 2    
   144   72   74 am   BACKBONE|DICT|INTERRES
   145   74   75 1    
   146   74  195 1    
   147   75   76 1    
   148   75   77 1    
   149   75  196 1    
   150   76  197 1    
   151   76  198 1    
   152   76  199 1    
   153   77   78 2    
   154   77   79 am   BACKBONE|DICT|INTERRES
   155   79   80 1    
   156   79  200 1    
   157   80   81 1    
   158   80   82 1    
   159   80  201 1    
   160   81  202 1    
   161   81  203 1    
   162   81  204 1    
   163   82   83 2    
   164   82   84 am   BACKBONE|DICT|INTERRES
   165   84   85 1    
   166   84  205 1    
   167   85   86 1    
   168   85   87 1    
   169   85  206 1    
   170   86  207 1    
   171   86  208 1    
   172   86  209 1    
   173   87   88 2    
   174   87   89 am   BACKBONE|DICT|INTERRES
   175   89   90 1    
   176   89  210 1    
   177   90   91 1    
   178   90   92 1    
   179   90  211 1    
   180   91  212 1    
   181   91  213 1    
   182   91  214 1    
   183   92   93 2    
   184   92   94 am   BACKBONE|DICT|INTERRES
   185   94   95 1    
   186   94  215 1    
   187   95   96 1    
   188   95   97 1    
   189   95  216 1    
   190   96  217 1    
   191   96  218 1    
   192   96  219 1    
   193   97   98 2    
   194   97   99 am   BACKBONE|DICT|INTERRES
   195   99  100 1    
   196   99  220 1    
   197  100  101 1    
   198  100  102 1    
   199  100  221 1    
   200  101  222 1    
   201  101  223 1    
   202  101  224 1    
   203  102  103 2    
   204  102  104 am   BACKBONE|DICT|INTERRES
   205  104  105 1    
   206  104  225 1    
   207  105  106 1    
   208  105  107 1    
   209  105  226 1    
   210  106  227 1    
   211  106  228 1    
   212  106  229 1    
   213  107  108 2    
   214  107  109 am   BACKBONE|DICT|INTERRES
   215  109  110 1    
   216  109  230 1    
   217  110  111 1    
   218  110  112 1    
   219  110  231 1    
   220  111  232 1    
   221  111  233 1    
   222  111  234 1    
   223  112  113 2    
   224  112  114 am   BACKBONE|DICT|INTERRES
   225  114  115 1    
   226  114  235 1    
   227  115  116 1    
   228  115  117 1    
   229  115  236 1    
   230  116  237 1    
   231  116  238 1    
   232  116  239 1    
   233  117  118 2    
   234  117  119 am   BACKBONE|DICT|INTERRES
   235  119  120 1    
   236  119  240 1    
   237  120  121 1    
   238  120  124 1    
   239  120  241 1    
   240  121  122 am   BACKBONE|DICT|INTERRES
   241  121  123 2    
   242  122  242 1    
   243  122  243 1    
   244  124  125 1    
   245  124  244 1    
   246  124  245 1    
   247  125  126 1    
   248  126  246 1    
   249  126  247 1    
@<TRIPOS>SUBSTRUCTURE
     1 UNK         1 GROUP             0       ****    0 ROOT    
