@<TRIPOS>MOLECULE
3R540
247   249    1
SMALL
USER_CHARGES


@<TRIPOS>ATOM
      1 CA         -1.7672   -7.8526  -48.3460 C.3       0 UNK        -0.1800 
      2 C          -1.4144   -8.8728  -49.4190 C.2       0 UNK         0.5000 
      3 O          -0.5804   -8.5933  -50.2802 O.2       0 UNK        -0.5000 
      4 N          -2.0482  -10.0510  -49.3708 N.am      1 UNK        -0.5000 
      5 CA         -1.8293  -11.1785  -50.2866 C.3       1 UNK         0.1400 
      6 C6         -2.9555  -12.2519  -50.2008 C.3       23 UNK        -0.0398 
      7 S7         -3.7164  -12.5115  -48.5509 S.3       23 UNK        -0.2404 
      8 C8         -2.5719  -13.6276  -47.6780 C.3       23 UNK        -0.0205 
      9 C9         -2.5798  -15.0469  -48.2208 C.ar      23 UNK        -0.0193 
     10 C10        -1.7271  -15.4103  -49.2619 C.ar      23 UNK        -0.1150 
     11 C11        -1.6880  -16.7250  -49.7289 C.ar      23 UNK        -0.0193 
     12 C12        -2.4861  -17.6965  -49.1140 C.ar      23 UNK        -0.1150 
     13 C13        -3.3408  -17.3500  -48.0557 C.ar      23 UNK        -0.0193 
     14 C14        -3.3928  -16.0178  -47.6357 C.ar      23 UNK        -0.1150 
     15 C15        -4.1833  -18.3599  -47.2777 C.3       23 UNK        -0.0205 
     16 S16        -4.2613  -20.0507  -47.9582 S.3       23 UNK        -0.2404 
     17 C17        -4.6068  -21.0148  -46.4403 C.3       23 UNK        -0.0398 
     18 CA         -3.7466  -22.2975  -46.3495 C.3       11 UNK         0.1400 
     19 N          -2.3157  -22.0198  -46.4857 N.am      11 UNK        -0.5000 
     20 C          -1.4940  -22.8116  -47.1802 C.2       10 UNK         0.5000 
     21 O          -1.7725  -23.9703  -47.4870 O.2       10 UNK        -0.5000 
     22 CA         -0.1747  -22.1863  -47.6639 C.3       10 UNK         0.1400 
     23 CB         -0.4356  -20.9099  -48.4826 C.3       10 UNK        -0.1800 
     24 N           0.7350  -21.8793  -46.5692 N.am      10 UNK        -0.5000 
     25 C           1.3336  -22.7924  -45.7959 C.2       9 UNK         0.5000 
     26 O           1.2248  -24.0080  -45.9534 O.2       9 UNK        -0.5000 
     27 CA          2.1472  -22.2488  -44.6074 C.3       9 UNK         0.1400 
     28 CB          3.5321  -21.7681  -45.0649 C.3       9 UNK        -0.1800 
     29 N           1.4512  -21.1782  -43.8900 N.am      9 UNK        -0.5000 
     30 C           0.2391  -21.3096  -43.3305 C.2       8 UNK         0.5000 
     31 O          -0.4065  -22.3585  -43.3433 O.2       8 UNK        -0.5000 
     32 CA         -0.3777  -20.0543  -42.6907 C.3       8 UNK         0.1400 
     33 CB          0.2489  -19.7750  -41.3170 C.3       8 UNK        -0.1800 
     34 N          -0.2513  -18.8734  -43.5439 N.am      8 UNK        -0.5000 
     35 C          -0.8459  -18.7350  -44.7381 C.2       7 UNK         0.5000 
     36 O          -1.6102  -19.5692  -45.2232 O.2       7 UNK        -0.5000 
     37 CA         -0.4900  -17.4733  -45.5448 C.3       7 UNK         0.1400 
     38 CB         -1.2397  -16.2484  -45.0012 C.3       7 UNK        -0.1800 
     39 N           0.9460  -17.1994  -45.5484 N.am      7 UNK        -0.5000 
     40 C           1.8838  -18.0231  -46.0362 C.2       6 UNK         0.5000 
     41 O           1.6388  -19.0916  -46.5955 O.2       6 UNK        -0.5000 
     42 CA          3.3462  -17.6056  -45.8089 C.3       6 UNK         0.1400 
     43 CB          3.8002  -16.5832  -46.8613 C.3       6 UNK        -0.1800 
     44 N           3.5562  -17.0585  -44.4681 N.am      6 UNK        -0.5000 
     45 C           3.5036  -17.7794  -43.3391 C.2       5 UNK         0.5000 
     46 O           3.2995  -18.9922  -43.3101 O.2       5 UNK        -0.5000 
     47 CA          3.6686  -17.0068  -42.0180 C.3       5 UNK         0.1400 
     48 CB          5.1541  -16.7638  -41.7125 C.3       5 UNK        -0.1800 
     49 N           2.9580  -15.7278  -42.0256 N.am      5 UNK        -0.5000 
     50 C           1.6236  -15.6060  -42.0624 C.2       4 UNK         0.5000 
     51 O           0.8498  -16.5631  -42.0531 O.2       4 UNK        -0.5000 
     52 CA          1.0632  -14.1749  -42.1763 C.3       4 UNK         0.1400 
     53 CB          0.9009  -13.5473  -40.7839 C.3       4 UNK        -0.1800 
     54 N           1.8746  -13.2884  -43.0186 N.am      4 UNK        -0.5000 
     55 C           2.1317  -13.5003  -44.3159 C.2       3 UNK         0.5000 
     56 O           1.7557  -14.5024  -44.9288 O.2       3 UNK        -0.5000 
     57 CA          2.9992  -12.4465  -45.0315 C.3       3 UNK         0.1400 
     58 CB          4.4888  -12.7435  -44.7976 C.3       3 UNK        -0.1800 
     59 N           2.7451  -12.4339  -46.4729 N.am      3 UNK        -0.5000 
     60 C           1.5993  -12.0299  -47.0343 C.2       2 UNK         0.5000 
     61 O           0.6948  -11.4613  -46.4130 O.2       2 UNK        -0.5000 
     62 CA          1.4252  -12.3397  -48.5312 C.3       2 UNK         0.1400 
     63 CB          1.4887  -13.8666  -48.7693 C.3       2 UNK        -0.1800 
     64 N           0.1387  -11.7850  -48.9446 N.am      2 UNK        -0.5000 
     65 C          -0.4224  -11.8050  -50.1582 C.2       1 UNK         0.5000 
     66 O           0.1199  -12.2763  -51.1581 O.2       1 UNK        -0.5000 
     67 C          -4.0945  -23.1173  -45.0942 C.2       11 UNK         0.5000 
     68 O          -5.1930  -23.6725  -45.0499 O.2       11 UNK        -0.5000 
     69 N          -3.1892  -23.1990  -44.1081 N.am      12 UNK        -0.5000 
     70 CA         -3.4006  -23.9737  -42.8835 C.3       12 UNK         0.1400 
     71 CB         -3.1427  -23.1018  -41.6421 C.3       12 UNK        -0.1800 
     72 C          -2.5347  -25.2412  -42.8767 C.2       12 UNK         0.5000 
     73 O          -3.0754  -26.3300  -42.6821 O.2       12 UNK        -0.5000 
     74 N          -1.2180  -25.0921  -43.0853 N.am      13 UNK        -0.5000 
     75 CA         -0.2587  -26.1969  -42.9999 C.3       13 UNK         0.1400 
     76 CB          1.1630  -25.6594  -42.7826 C.3       13 UNK        -0.1800 
     77 C          -0.3343  -27.1339  -44.2177 C.2       13 UNK         0.5000 
     78 O          -0.5679  -28.3307  -44.0430 O.2       13 UNK        -0.5000 
     79 N          -0.1646  -26.5805  -45.4281 N.am      14 UNK        -0.5000 
     80 CA         -0.2989  -27.3241  -46.6866 C.3       14 UNK         0.1400 
     81 CB          0.4980  -26.6166  -47.7939 C.3       14 UNK        -0.1800 
     82 C          -1.7682  -27.5377  -47.1062 C.2       14 UNK         0.5000 
     83 O          -2.0295  -28.3795  -47.9665 O.2       14 UNK        -0.5000 
     84 N          -2.6907  -26.7886  -46.4831 N.am      15 UNK        -0.5000 
     85 CA         -4.1458  -26.8216  -46.6638 C.3       15 UNK         0.1400 
     86 CB         -4.7247  -28.1707  -46.1891 C.3       15 UNK        -0.1800 
     87 C          -4.5983  -26.4308  -48.0877 C.2       15 UNK         0.5000 
     88 O          -5.5772  -26.9787  -48.5995 O.2       15 UNK        -0.5000 
     89 N          -3.8750  -25.4861  -48.7012 N.am      16 UNK        -0.5000 
     90 CA         -4.1832  -24.8972  -50.0025 C.3       16 UNK         0.1400 
     91 CB         -2.8625  -24.4213  -50.6396 C.3       16 UNK        -0.1800 
     92 C          -5.2168  -23.7548  -49.8784 C.2       16 UNK         0.5000 
     93 O          -5.8888  -23.6184  -48.8533 O.2       16 UNK        -0.5000 
     94 N          -5.3181  -22.9415  -50.9316 N.am      17 UNK        -0.5000 
     95 CA         -6.0759  -21.6976  -50.9781 C.3       17 UNK         0.1400 
     96 CB         -7.4117  -21.9362  -51.6993 C.3       17 UNK        -0.1800 
     97 C          -5.2222  -20.6766  -51.7372 C.2       17 UNK         0.5000 
     98 O          -4.4300  -21.0759  -52.5960 O.2       17 UNK        -0.5000 
     99 N          -5.4118  -19.3842  -51.4418 N.am      18 UNK        -0.5000 
    100 CA        -4.6421  -18.2676  -52.0049 C.3       18 UNK         0.1400 
    101 CB        -5.1463  -16.9480  -51.4011 C.3       18 UNK        -0.1800 
    102 C         -4.6661  -18.1960  -53.5431 C.2       18 UNK         0.5000 
    103 O         -3.6579  -17.8425  -54.1489 O.2       18 UNK        -0.5000 
    104 N         -5.7958  -18.5881  -54.1476 N.am      19 UNK        -0.5000 
    105 CA        -5.9869  -18.6611  -55.5978 C.3       19 UNK         0.1400 
    106 CB        -7.4713  -18.9346  -55.8857 C.3       19 UNK        -0.1800 
    107 C         -5.1007  -19.7123  -56.2998 C.2       19 UNK         0.5000 
    108 O         -4.8557  -19.5809  -57.4998 O.2       19 UNK        -0.5000 
    109 N         -4.6502  -20.7309  -55.5553 N.am      20 UNK        -0.5000 
    110 CA        -3.7549  -21.7816  -56.0351 C.3       20 UNK         0.1400 
    111 CB        -4.2817  -23.1440  -55.5550 C.3       20 UNK        -0.1800 
    112 C         -2.3172  -21.5583  -55.5381 C.2       20 UNK         0.5000 
    113 O         -1.3723  -21.7620  -56.3013 O.2       20 UNK        -0.5000 
    114 N         -2.1753  -21.1672  -54.2650 N.am      21 UNK        -0.5000 
    115 CA        -0.8957  -21.0196  -53.5749 C.3       21 UNK         0.1400 
    116 CB        -1.1495  -21.0222  -52.0611 C.3       21 UNK        -0.1800 
    117 C         -0.1002  -19.7662  -53.9780 C.2       21 UNK         0.5000 
    118 O          1.1274  -19.7812  -53.8748 O.2       21 UNK        -0.5000 
    119 N         -0.7903  -18.7062  -54.4078 N.am      22 UNK        -0.5000 
    120 CA        -0.1977  -17.4115  -54.7592 C.3       22 UNK         0.1400 
    121 C         -1.0326  -16.6732  -55.8465 C.2       22 UNK         0.5000 
    122 N         -1.0156  -15.3471  -55.8972 N.am      22 UNK        -0.7600 
    123 O         -1.6533  -17.2994  -56.7032 O.2       22 UNK        -0.5000 
    124 C124        0.1884  -16.5770  -53.5019 C.3       23 UNK        -0.0398 
    125 S125       -1.2133  -16.1791  -52.3983 S.3       23 UNK        -0.2404 
    126 C126       -0.7572  -17.0783  -50.8796 C.3       23 UNK        -0.0205 
    127 H127       -2.5240   -8.2322  -47.6589 H         1 UNK         0.0600 
    128 H128       -2.1512   -6.9418  -48.8053 H         1 UNK         0.0600 
    129 H129       -0.8803   -7.5964  -47.7664 H         1 UNK         0.0600 
    130 H130       -2.7307  -10.2218  -48.6447 H         1 UNK         0.3000 
    131 H131       -1.8675  -10.7662  -51.2975 H         1 UNK         0.0600 
    132 H132       -2.6478  -13.2057  -50.6304 H         1 UNK         0.0800 
    133 H133       -3.7727  -11.9238  -50.8443 H         1 UNK         0.0800 
    134 H134       -1.5610  -13.2300  -47.6872 H         1 UNK         0.0800 
    135 H135       -2.8591  -13.6439  -46.6256 H         1 UNK         0.0800 
    136 H136       -1.0891  -14.6689  -49.7184 H         1 UNK         0.1150 
    137 H137       -2.4257  -18.7182  -49.4575 H         1 UNK         0.1150 
    138 H138       -4.0408  -15.7416  -46.8155 H         1 UNK         0.1150 
    139 H139       -3.7774  -18.3951  -46.2670 H         1 UNK         0.0800 
    140 H140       -5.2038  -17.9852  -47.1878 H         1 UNK         0.0800 
    141 H141       -5.6682  -21.2692  -46.4463 H         1 UNK         0.0800 
    142 H142       -4.4460  -20.3983  -45.5549 H         1 UNK         0.0800 
    143 H143       -4.0497  -22.9200  -47.1913 H         1 UNK         0.0600 
    144 H144       -2.0093  -21.0906  -46.2033 H         1 UNK         0.3000 
    145 H145        0.3108  -22.9126  -48.3191 H         1 UNK         0.0600 
    146 H146       -0.7804  -20.0866  -47.8559 H         1 UNK         0.0600 
    147 H147        0.4682  -20.5783  -48.9936 H         1 UNK         0.0600 
    148 H148       -1.2008  -21.0811  -49.2397 H         1 UNK         0.0600 
    149 H149        0.9081  -20.8950  -46.3851 H         1 UNK         0.3000 
    150 H150        2.2985  -23.0635  -43.8996 H         1 UNK         0.0600 
    151 H151        4.1444  -21.4645  -44.2158 H         1 UNK         0.0600 
    152 H152        3.4611  -20.9216  -45.7472 H         1 UNK         0.0600 
    153 H153        4.0686  -22.5634  -45.5837 H         1 UNK         0.0600 
    154 H154        1.9426  -20.2929  -43.8076 H         1 UNK         0.3000 
    155 H155       -1.4424  -20.2480  -42.5437 H         1 UNK         0.0600 
    156 H156        0.1569  -20.6422  -40.6619 H         1 UNK         0.0600 
    157 H157        1.3091  -19.5334  -41.3980 H         1 UNK         0.0600 
    158 H158       -0.2462  -18.9392  -40.8223 H         1 UNK         0.0600 
    159 H159        0.3262  -18.1163  -43.1916 H         1 UNK         0.3000 
    160 H160       -0.7988  -17.6374  -46.5788 H         1 UNK         0.0600 
    161 H161       -1.0403  -15.3649  -45.6077 H         1 UNK         0.0600 
    162 H162       -0.9517  -16.0200  -43.9761 H         1 UNK         0.0600 
    163 H163       -2.3168  -16.4161  -45.0051 H         1 UNK         0.0600 
    164 H164        1.2415  -16.3097  -45.1546 H         1 UNK         0.3000 
    165 H165        3.9681  -18.4968  -45.9146 H         1 UNK         0.0600 
    166 H166        4.8595  -16.3505  -46.7532 H         1 UNK         0.0600 
    167 H167        3.6524  -16.9699  -47.8704 H         1 UNK         0.0600 
    168 H168        3.2433  -15.6505  -46.7829 H         1 UNK         0.0600 
    169 H169        3.6603  -16.0575  -44.3989 H         1 UNK         0.3000 
    170 H170        3.2519  -17.6227  -41.2180 H         1 UNK         0.0600 
    171 H171        5.6234  -16.1281  -42.4645 H         1 UNK         0.0600 
    172 H172        5.2836  -16.2865  -40.7410 H         1 UNK         0.0600 
    173 H173        5.7056  -17.7046  -41.6872 H         1 UNK         0.0600 
    174 H174        3.5193  -14.8893  -42.0349 H         1 UNK         0.3000 
    175 H175        0.0741  -14.2464  -42.6326 H         1 UNK         0.0600 
    176 H176        0.4148  -12.5734  -40.8441 H         1 UNK         0.0600 
    177 H177        1.8626  -13.4135  -40.2869 H         1 UNK         0.0600 
    178 H178        0.2840  -14.1772  -40.1414 H         1 UNK         0.0600 
    179 H179        2.2290  -12.4514  -42.5785 H         1 UNK         0.3000 
    180 H180        2.7635  -11.4602  -44.6263 H         1 UNK         0.0600 
    181 H181        4.7717  -13.7218  -45.1888 H         1 UNK         0.0600 
    182 H182        4.7304  -12.7328  -43.7340 H         1 UNK         0.0600 
    183 H183        5.1196  -11.9955  -45.2784 H         1 UNK         0.0600 
    184 H184        3.4259  -12.9079  -47.0470 H         1 UNK         0.3000 
    185 H185        2.2168  -11.8392  -49.0915 H         1 UNK         0.0600 
    186 H186        0.7826  -14.4026  -48.1335 H         1 UNK         0.0600 
    187 H187        1.2831  -14.1367  -49.8041 H         1 UNK         0.0600 
    188 H188        2.4823  -14.2541  -48.5474 H         1 UNK         0.0600 
    189 H189       -0.3554  -11.3363  -48.1817 H         1 UNK         0.3000 
    190 H190       -2.2892  -22.7435  -44.2121 H         1 UNK         0.3000 
    191 H191       -4.4399  -24.3016  -42.8149 H         1 UNK         0.0600 
    192 H192       -3.7470  -22.1950  -41.6666 H         1 UNK         0.0600 
    193 H193       -3.4074  -23.6428  -40.7329 H         1 UNK         0.0600 
    194 H194       -2.1002  -22.8054  -41.5438 H         1 UNK         0.0600 
    195 H195       -0.8433  -24.1568  -43.2285 H         1 UNK         0.3000 
    196 H196       -0.5122  -26.7862  -42.1157 H         1 UNK         0.0600 
    197 H197        1.8477  -26.4724  -42.5387 H         1 UNK         0.0600 
    198 H198        1.1986  -24.9443  -41.9606 H         1 UNK         0.0600 
    199 H199        1.5518  -25.1718  -43.6726 H         1 UNK         0.0600 
    200 H200        0.0876  -25.5992  -45.5068 H         1 UNK         0.3000 
    201 H201        0.1408  -28.3147  -46.5533 H         1 UNK         0.0600 
    202 H202        1.5501  -26.5259  -47.5237 H         1 UNK         0.0600 
    203 H203        0.1196  -25.6155  -47.9928 H         1 UNK         0.0600 
    204 H204        0.4492  -27.1754  -48.7292 H         1 UNK         0.0600 
    205 H205       -2.3443  -26.1038  -45.8272 H         1 UNK         0.3000 
    206 H206       -4.5465  -26.0537  -46.0033 H         1 UNK         0.0600 
    207 H207       -4.3983  -28.4029  -45.1751 H         1 UNK         0.0600 
    208 H208       -5.8150  -28.1467  -46.1798 H         1 UNK         0.0600 
    209 H209       -4.4214  -28.9935  -46.8369 H         1 UNK         0.0600 
    210 H210       -3.0932  -25.0689  -48.2007 H         1 UNK         0.3000 
    211 H211       -4.6151  -25.6649  -50.6476 H         1 UNK         0.0600 
    212 H212       -2.4527  -23.5587  -50.1133 H         1 UNK         0.0600 
    213 H213       -2.9982  -24.1398  -51.6843 H         1 UNK         0.0600 
    214 H214       -2.1092  -25.2094  -50.6198 H         1 UNK         0.0600 
    215 H215       -4.6962  -23.0665  -51.7197 H         1 UNK         0.3000 
    216 H216       -6.2602  -21.3218  -49.9695 H         1 UNK         0.0600 
    217 H217       -7.9996  -21.0190  -51.7499 H         1 UNK         0.0600 
    218 H218       -8.0129  -22.6792  -51.1749 H         1 UNK         0.0600 
    219 H219       -7.2607  -22.2888  -52.7207 H         1 UNK         0.0600 
    220 H220       -6.0853  -19.1427  -50.7294 H         1 UNK         0.3000 
    221 H221       -3.6020  -18.4059  -51.7051 H         1 UNK         0.0600 
    222 H222       -6.1779  -16.7411  -51.6875 H         1 UNK         0.0600 
    223 H223       -5.0985  -16.9639  -50.3128 H         1 UNK         0.0600 
    224 H224       -4.5344  -16.1094  -51.7371 H         1 UNK         0.0600 
    225 H225       -6.5720  -18.8767  -53.5710 H         1 UNK         0.3000 
    226 H226       -5.7294  -17.6866  -56.0182 H         1 UNK         0.0600 
    227 H227       -8.1057  -18.1526  -55.4680 H         1 UNK         0.0600 
    228 H228       -7.6623  -18.9667  -56.9592 H         1 UNK         0.0600 
    229 H229       -7.7923  -19.8892  -55.4665 H         1 UNK         0.0600 
    230 H230       -4.8663  -20.7428  -54.5657 H         1 UNK         0.3000 
    231 H231       -3.7319  -21.7976  -57.1268 H         1 UNK         0.0600 
    232 H232       -4.3330  -23.1996  -54.4670 H         1 UNK         0.0600 
    233 H233       -3.6359  -23.9544  -55.8955 H         1 UNK         0.0600 
    234 H234       -5.2805  -23.3381  -55.9462 H         1 UNK         0.0600 
    235 H235       -3.0072  -21.0527  -53.6910 H         1 UNK         0.3000 
    236 H236       -0.2777  -21.8879  -53.8133 H         1 UNK         0.0600 
    237 H237       -1.6049  -21.9584  -51.7422 H         1 UNK         0.0600 
    238 H238       -0.2158  -20.9089  -51.5092 H         1 UNK         0.0600 
    239 H239       -1.8135  -20.2107  -51.7624 H         1 UNK         0.0600 
    240 H240       -1.8021  -18.7429  -54.4789 H         1 UNK         0.3000 
    241 H241        0.7359  -17.6260  -55.2825 H         1 UNK         0.0600 
    242 H242       -1.5413  -14.8814  -56.6201 H         1 UNK         0.3800 
    243 H243       -0.5280  -14.7979  -55.2077 H         1 UNK         0.3800 
    244 H244        0.9440  -17.1194  -52.9326 H         1 UNK         0.0800 
    245 H245        0.6768  -15.6458  -53.7902 H         1 UNK         0.0800 
    246 H246        0.2639  -16.8206  -50.5949 H         1 UNK         0.0800 
    247 H247       -0.7677  -18.1502  -51.0777 H         1 UNK         0.0800 
@<TRIPOS>BOND
     1    1    2 1    
     2    1  127 1    
     3    1  128 1    
     4    1  129 1    
     5    2    3 2    
     6    2    4 am   BACKBONE|DICT|INTERRES
     7    4    5 1    
     8    4  130 1    
     9    5    6 1    
    10    5   65 1    
    11    5  131 1    
    12    6    7 1    
    13    6  132 1    
    14    6  133 1    
    15    7    8 1    
    16    8    9 1    
    17    8  134 1    
    18    8  135 1    
    19    9   10 ar   
    20    9   14 ar   
    21   10   11 ar   
    22   10  136 1    
    23   11   12 ar   
    24   11  126 1    
    25   12   13 ar   
    26   12  137 1    
    27   13   14 ar   
    28   13   15 1    
    29   14  138 1    
    30   15   16 1    
    31   15  139 1    
    32   15  140 1    
    33   16   17 1    
    34   17   18 1    
    35   17  141 1    
    36   17  142 1    
    37   18   19 1    
    38   18   67 1    
    39   18  143 1    
    40   19   20 am   BACKBONE|DICT|INTERRES
    41   19  144 1    
    42   20   21 2    
    43   20   22 1    
    44   22   23 1    
    45   22   24 1    
    46   22  145 1    
    47   23  146 1    
    48   23  147 1    
    49   23  148 1    
    50   24   25 am   BACKBONE|DICT|INTERRES
    51   24  149 1    
    52   25   26 2    
    53   25   27 1    
    54   27   28 1    
    55   27   29 1    
    56   27  150 1    
    57   28  151 1    
    58   28  152 1    
    59   28  153 1    
    60   29   30 am   BACKBONE|DICT|INTERRES
    61   29  154 1    
    62   30   31 2    
    63   30   32 1    
    64   32   33 1    
    65   32   34 1    
    66   32  155 1    
    67   33  156 1    
    68   33  157 1    
    69   33  158 1    
    70   34   35 am   BACKBONE|DICT|INTERRES
    71   34  159 1    
    72   35   36 2    
    73   35   37 1    
    74   37   38 1    
    75   37   39 1    
    76   37  160 1    
    77   38  161 1    
    78   38  162 1    
    79   38  163 1    
    80   39   40 am   BACKBONE|DICT|INTERRES
    81   39  164 1    
    82   40   41 2    
    83   40   42 1    
    84   42   43 1    
    85   42   44 1    
    86   42  165 1    
    87   43  166 1    
    88   43  167 1    
    89   43  168 1    
    90   44   45 am   BACKBONE|DICT|INTERRES
    91   44  169 1    
    92   45   46 2    
    93   45   47 1    
    94   47   48 1    
    95   47   49 1    
    96   47  170 1    
    97   48  171 1    
    98   48  172 1    
    99   48  173 1    
   100   49   50 am   BACKBONE|DICT|INTERRES
   101   49  174 1    
   102   50   51 2    
   103   50   52 1    
   104   52   53 1    
   105   52   54 1    
   106   52  175 1    
   107   53  176 1    
   108   53  177 1    
   109   53  178 1    
   110   54   55 am   BACKBONE|DICT|INTERRES
   111   54  179 1    
   112   55   56 2    
   113   55   57 1    
   114   57   58 1    
   115   57   59 1    
   116   57  180 1    
   117   58  181 1    
   118   58  182 1    
   119   58  183 1    
   120   59   60 am   BACKBONE|DICT|INTERRES
   121   59  184 1    
   122   60   61 2    
   123   60   62 1    
   124   62   63 1    
   125   62   64 1    
   126   62  185 1    
   127   63  186 1    
   128   63  187 1    
   129   63  188 1    
   130   64   65 am   BACKBONE|DICT|INTERRES
   131   64  189 1    
   132   65   66 2    
   133   67   68 2    
   134   67   69 am   BACKBONE|DICT|INTERRES
   135   69   70 1    
   136   69  190 1    
   137   70   71 1    
   138   70   72 1    
   139   70  191 1    
   140   71  192 1    
   141   71  193 1    
   142   71  194 1    
   143   72   73 2    
   144   72   74 am   BACKBONE|DICT|INTERRES
   145   74   75 1    
   146   74  195 1    
   147   75   76 1    
   148   75   77 1    
   149   75  196 1    
   150   76  197 1    
   151   76  198 1    
   152   76  199 1    
   153   77   78 2    
   154   77   79 am   BACKBONE|DICT|INTERRES
   155   79   80 1    
   156   79  200 1    
   157   80   81 1    
   158   80   82 1    
   159   80  201 1    
   160   81  202 1    
   161   81  203 1    
   162   81  204 1    
   163   82   83 2    
   164   82   84 am   BACKBONE|DICT|INTERRES
   165   84   85 1    
   166   84  205 1    
   167   85   86 1    
   168   85   87 1    
   169   85  206 1    
   170   86  207 1    
   171   86  208 1    
   172   86  209 1    
   173   87   88 2    
   174   87   89 am   BACKBONE|DICT|INTERRES
   175   89   90 1    
   176   89  210 1    
   177   90   91 1    
   178   90   92 1    
   179   90  211 1    
   180   91  212 1    
   181   91  213 1    
   182   91  214 1    
   183   92   93 2    
   184   92   94 am   BACKBONE|DICT|INTERRES
   185   94   95 1    
   186   94  215 1    
   187   95   96 1    
   188   95   97 1    
   189   95  216 1    
   190   96  217 1    
   191   96  218 1    
   192   96  219 1    
   193   97   98 2    
   194   97   99 am   BACKBONE|DICT|INTERRES
   195   99  100 1    
   196   99  220 1    
   197  100  101 1    
   198  100  102 1    
   199  100  221 1    
   200  101  222 1    
   201  101  223 1    
   202  101  224 1    
   203  102  103 2    
   204  102  104 am   BACKBONE|DICT|INTERRES
   205  104  105 1    
   206  104  225 1    
   207  105  106 1    
   208  105  107 1    
   209  105  226 1    
   210  106  227 1    
   211  106  228 1    
   212  106  229 1    
   213  107  108 2    
   214  107  109 am   BACKBONE|DICT|INTERRES
   215  109  110 1    
   216  109  230 1    
   217  110  111 1    
   218  110  112 1    
   219  110  231 1    
   220  111  232 1    
   221  111  233 1    
   222  111  234 1    
   223  112  113 2    
   224  112  114 am   BACKBONE|DICT|INTERRES
   225  114  115 1    
   226  114  235 1    
   227  115  116 1    
   228  115  117 1    
   229  115  236 1    
   230  116  237 1    
   231  116  238 1    
   232  116  239 1    
   233  117  118 2    
   234  117  119 am   BACKBONE|DICT|INTERRES
   235  119  120 1    
   236  119  240 1    
   237  120  121 1    
   238  120  124 1    
   239  120  241 1    
   240  121  122 am   BACKBONE|DICT|INTERRES
   241  121  123 2    
   242  122  242 1    
   243  122  243 1    
   244  124  125 1    
   245  124  244 1    
   246  124  245 1    
   247  125  126 1    
   248  126  246 1    
   249  126  247 1    
@<TRIPOS>SUBSTRUCTURE
     1 UNK         1 GROUP             0       ****    0 ROOT    
