@<TRIPOS>MOLECULE
3R540
247   249    1
SMALL
USER_CHARGES


@<TRIPOS>ATOM
      1 CA         -6.3950   -9.1507  -47.0245 C.3       0 UNK        -0.1800 
      2 C          -5.7017  -10.2898  -47.7595 C.2       0 UNK         0.5000 
      3 O          -5.7813  -10.3616  -48.9859 O.2       0 UNK        -0.5000 
      4 N          -5.0345  -11.1774  -47.0121 N.am      1 UNK        -0.5000 
      5 CA         -4.2444  -12.2992  -47.5311 C.3       1 UNK         0.1400 
      6 C6         -4.2715  -13.4985  -46.5430 C.3       23 UNK        -0.0398 
      7 S7         -4.1589  -15.0990  -47.4095 S.3       23 UNK        -0.2404 
      8 C8         -5.9195  -15.5219  -47.5690 C.3       23 UNK        -0.0205 
      9 C9         -6.1158  -16.6101  -48.6092 C.ar      23 UNK        -0.0193 
     10 C10        -6.5062  -16.2757  -49.9102 C.ar      23 UNK        -0.1150 
     11 C11        -6.6356  -17.2675  -50.8865 C.ar      23 UNK        -0.0193 
     12 C12        -6.4110  -18.6015  -50.5425 C.ar      23 UNK        -0.1150 
     13 C13        -6.0278  -18.9473  -49.2447 C.ar      23 UNK        -0.0193 
     14 C14        -5.8811  -17.9484  -48.2792 C.ar      23 UNK        -0.1150 
     15 C15        -5.7642  -20.4025  -48.9065 C.3       23 UNK        -0.0205 
     16 S16        -4.2001  -20.9686  -49.6419 S.3       23 UNK        -0.2404 
     17 C17        -3.0128  -20.7540  -48.2721 C.3       23 UNK        -0.0398 
     18 CA         -2.7369  -22.0956  -47.5489 C.3       11 UNK         0.1400 
     19 N          -1.4909  -22.0939  -46.7807 N.am      11 UNK        -0.5000 
     20 C          -0.9385  -23.1896  -46.2381 C.2       10 UNK         0.5000 
     21 O          -1.3681  -24.3290  -46.4242 O.2       10 UNK        -0.5000 
     22 CA          0.2468  -22.9805  -45.2753 C.3       10 UNK         0.1400 
     23 CB          1.5878  -22.9534  -46.0203 C.3       10 UNK        -0.1800 
     24 N           0.1100  -21.7725  -44.4595 N.am      10 UNK        -0.5000 
     25 C          -0.8520  -21.5871  -43.5450 C.2       9 UNK         0.5000 
     26 O          -1.6823  -22.4457  -43.2532 O.2       9 UNK        -0.5000 
     27 CA         -0.9344  -20.2034  -42.8765 C.3       9 UNK         0.1400 
     28 CB          0.0791  -20.0929  -41.7285 C.3       9 UNK        -0.1800 
     29 N          -0.7378  -19.1035  -43.8217 N.am      9 UNK        -0.5000 
     30 C          -1.5541  -18.8217  -44.8484 C.2       8 UNK         0.5000 
     31 O          -2.5947  -19.4386  -45.0805 O.2       8 UNK        -0.5000 
     32 CA         -1.0965  -17.7063  -45.8109 C.3       8 UNK         0.1400 
     33 CB         -1.3828  -16.3154  -45.2252 C.3       8 UNK        -0.1800 
     34 N           0.3244  -17.8162  -46.1489 N.am      8 UNK        -0.5000 
     35 C           0.8659  -18.8639  -46.7872 C.2       7 UNK         0.5000 
     36 O           0.2111  -19.8120  -47.2168 O.2       7 UNK        -0.5000 
     37 CA          2.3992  -18.8923  -46.9000 C.3       7 UNK         0.1400 
     38 CB          2.8904  -18.0575  -48.0914 C.3       7 UNK        -0.1800 
     39 N           3.0317  -18.4242  -45.6667 N.am      7 UNK        -0.5000 
     40 C           3.0872  -19.1413  -44.5349 C.2       6 UNK         0.5000 
     41 O           2.6360  -20.2806  -44.4294 O.2       6 UNK        -0.5000 
     42 CA          3.7208  -18.4658  -43.3040 C.3       6 UNK         0.1400 
     43 CB          5.2432  -18.6679  -43.3027 C.3       6 UNK        -0.1800 
     44 N           3.4235  -17.0362  -43.2236 N.am      6 UNK        -0.5000 
     45 C           2.2001  -16.5236  -43.0308 C.2       5 UNK         0.5000 
     46 O           1.1958  -17.2076  -42.8415 O.2       5 UNK        -0.5000 
     47 CA          2.0683  -14.9919  -43.1224 C.3       5 UNK         0.1400 
     48 CB          2.2702  -14.3491  -41.7427 C.3       5 UNK        -0.1800 
     49 N           2.9916  -14.3798  -44.0825 N.am      5 UNK        -0.5000 
     50 C           3.0362  -14.6636  -45.3904 C.2       4 UNK         0.5000 
     51 O           2.3078  -15.4966  -45.9340 O.2       4 UNK        -0.5000 
     52 CA          4.0496  -13.8649  -46.2276 C.3       4 UNK         0.1400 
     53 CB          4.6053  -14.6914  -47.4000 C.3       4 UNK        -0.1800 
     54 N           3.3977  -12.6733  -46.7546 N.am      4 UNK        -0.5000 
     55 C           3.1172  -11.5697  -46.0487 C.2       3 UNK         0.5000 
     56 O           3.5380  -11.3583  -44.9105 O.2       3 UNK        -0.5000 
     57 CA          2.1806  -10.5474  -46.7219 C.3       3 UNK         0.1400 
     58 CB          2.9937   -9.4611  -47.4420 C.3       3 UNK        -0.1800 
     59 N           1.2565  -11.1710  -47.6753 N.am      3 UNK        -0.5000 
     60 C           0.2558  -11.9947  -47.3335 C.2       2 UNK         0.5000 
     61 O          -0.0303  -12.2850  -46.1691 O.2       2 UNK        -0.5000 
     62 CA         -0.5183  -12.6378  -48.4998 C.3       2 UNK         0.1400 
     63 CB          0.1018  -14.0027  -48.8437 C.3       2 UNK        -0.1800 
     64 N          -1.9389  -12.8234  -48.2047 N.am      2 UNK        -0.5000 
     65 C          -2.8069  -11.8505  -47.8955 C.2       1 UNK         0.5000 
     66 O          -2.5049  -10.6529  -47.8866 O.2       1 UNK        -0.5000 
     67 C          -3.9341  -22.5352  -46.6820 C.2       11 UNK         0.5000 
     68 O          -4.6882  -23.4133  -47.1003 O.2       11 UNK        -0.5000 
     69 N          -4.0641  -21.9595  -45.4776 N.am      12 UNK        -0.5000 
     70 CA         -5.1016  -22.3065  -44.5001 C.3       12 UNK         0.1400 
     71 CB         -5.0418  -21.3266  -43.3190 C.3       12 UNK        -0.1800 
     72 C          -5.0175  -23.7686  -44.0131 C.2       12 UNK         0.5000 
     73 O          -6.0527  -24.3986  -43.7954 O.2       12 UNK        -0.5000 
     74 N          -3.7903  -24.2940  -43.9004 N.am      13 UNK        -0.5000 
     75 CA         -3.4853  -25.6964  -43.6068 C.3       13 UNK         0.1400 
     76 CB         -2.0351  -25.7896  -43.1060 C.3       13 UNK        -0.1800 
     77 C          -3.7032  -26.6471  -44.8052 C.2       13 UNK         0.5000 
     78 O          -3.6082  -27.8618  -44.6248 O.2       13 UNK        -0.5000 
     79 N          -3.9814  -26.0915  -45.9945 N.am      14 UNK        -0.5000 
     80 CA         -4.2142  -26.7687  -47.2727 C.3       14 UNK         0.1400 
     81 CB         -5.4798  -27.6494  -47.2125 C.3       14 UNK        -0.1800 
     82 C          -2.9763  -27.5182  -47.8070 C.2       14 UNK         0.5000 
     83 O          -3.1170  -28.5512  -48.4654 O.2       14 UNK        -0.5000 
     84 N          -1.7784  -26.9724  -47.5552 N.am      15 UNK        -0.5000 
     85 CA         -0.5004  -27.4940  -48.0415 C.3       15 UNK         0.1400 
     86 CB          0.6229  -27.0099  -47.1083 C.3       15 UNK        -0.1800 
     87 C          -0.2763  -27.0744  -49.5077 C.2       15 UNK         0.5000 
     88 O           0.5158  -26.1706  -49.7813 O.2       15 UNK        -0.5000 
     89 N          -1.0467  -27.6891  -50.4196 N.am      16 UNK        -0.5000 
     90 CA         -1.1015  -27.4254  -51.8675 C.3       16 UNK         0.1400 
     91 CB          0.2058  -27.8811  -52.5477 C.3       16 UNK        -0.1800 
     92 C          -1.4621  -25.9593  -52.1990 C.2       16 UNK         0.5000 
     93 O          -0.9649  -25.3967  -53.1777 O.2       16 UNK        -0.5000 
     94 N          -2.2672  -25.3456  -51.3162 N.am      17 UNK        -0.5000 
     95 CA         -2.6375  -23.9255  -51.2698 C.3       17 UNK         0.1400 
     96 CB         -3.5463  -23.5705  -52.4650 C.3       17 UNK        -0.1800 
     97 C          -1.4299  -22.9640  -51.1571 C.2       17 UNK         0.5000 
     98 O          -1.5720  -21.7788  -51.4594 O.2       17 UNK        -0.5000 
     99 N          -0.2495  -23.4896  -50.7891 N.am      18 UNK        -0.5000 
    100 CA         1.0579  -22.8271  -50.8252 C.3       18 UNK         0.1400 
    101 CB         1.1630  -21.8159  -49.6717 C.3       18 UNK        -0.1800 
    102 C          1.3890  -22.2220  -52.2106 C.2       18 UNK         0.5000 
    103 O          1.9842  -21.1468  -52.2884 O.2       18 UNK        -0.5000 
    104 N          0.9612  -22.9218  -53.2757 N.am      19 UNK        -0.5000 
    105 CA         0.9876  -22.5025  -54.6820 C.3       19 UNK         0.1400 
    106 CB         2.4337  -22.3176  -55.1893 C.3       19 UNK        -0.1800 
    107 C          0.0755  -21.2850  -54.9600 C.2       19 UNK         0.5000 
    108 O          0.4350  -20.4100  -55.7493 O.2       19 UNK        -0.5000 
    109 N         -1.0982  -21.2760  -54.3096 N.am      20 UNK        -0.5000 
    110 CA        -2.1529  -20.2579  -54.3468 C.3       20 UNK         0.1400 
    111 CB        -2.7578  -20.1265  -55.7601 C.3       20 UNK        -0.1800 
    112 C         -1.6783  -18.9182  -53.7540 C.2       20 UNK         0.5000 
    113 O         -1.7051  -17.8869  -54.4303 O.2       20 UNK        -0.5000 
    114 N         -1.2396  -18.9617  -52.4896 N.am      21 UNK        -0.5000 
    115 CA        -0.7278  -17.8168  -51.7318 C.3       21 UNK         0.1400 
    116 CB         0.1478  -18.3286  -50.5783 C.3       21 UNK        -0.1800 
    117 C         -1.8450  -16.8736  -51.2356 C.2       21 UNK         0.5000 
    118 O         -1.9862  -16.6636  -50.0302 O.2       21 UNK        -0.5000 
    119 N         -2.6153  -16.3137  -52.1745 N.am      22 UNK        -0.5000 
    120 CA        -3.6862  -15.3433  -51.8973 C.3       22 UNK         0.1400 
    121 C         -3.1853  -13.9022  -51.5922 C.2       22 UNK         0.5000 
    122 N         -1.9390  -13.5520  -51.8872 N.am      22 UNK        -0.7600 
    123 O         -3.9452  -13.0848  -51.0827 O.2       22 UNK        -0.5000 
    124 C124       -4.7596  -15.3077  -53.0162 C.3       23 UNK        -0.0398 
    125 S125       -5.5114  -16.9296  -53.3886 S.3       23 UNK        -0.2404 
    126 C126       -6.9890  -16.9109  -52.3213 C.3       23 UNK        -0.0205 
    127 H127       -5.9580   -8.1957  -47.3165 H         1 UNK         0.0600 
    128 H128       -7.4558   -9.1324  -47.2748 H         1 UNK         0.0600 
    129 H129       -6.3038   -9.2502  -45.9425 H         1 UNK         0.0600 
    130 H130       -4.9783  -11.0303  -46.0146 H         1 UNK         0.3000 
    131 H131       -4.7108  -12.6212  -48.4648 H         1 UNK         0.0600 
    132 H132       -5.1964  -13.4988  -45.9640 H         1 UNK         0.0800 
    133 H133       -3.4694  -13.4309  -45.8052 H         1 UNK         0.0800 
    134 H134       -6.4879  -14.6325  -47.8464 H         1 UNK         0.0800 
    135 H135       -6.3056  -15.8508  -46.6031 H         1 UNK         0.0800 
    136 H136       -6.6717  -15.2400  -50.1721 H         1 UNK         0.1150 
    137 H137       -6.5054  -19.3718  -51.2953 H         1 UNK         0.1150 
    138 H138       -5.5683  -18.2067  -47.2771 H         1 UNK         0.1150 
    139 H139       -5.7653  -20.5601  -47.8275 H         1 UNK         0.0800 
    140 H140       -6.5767  -21.0135  -49.3023 H         1 UNK         0.0800 
    141 H141       -3.3542  -19.9772  -47.5864 H         1 UNK         0.0800 
    142 H142       -2.0884  -20.3789  -48.7133 H         1 UNK         0.0800 
    143 H143       -2.6024  -22.8610  -48.3143 H         1 UNK         0.0600 
    144 H144       -1.0315  -21.1971  -46.6496 H         1 UNK         0.3000 
    145 H145        0.2648  -23.8374  -44.5995 H         1 UNK         0.0600 
    146 H146        2.4220  -23.0216  -45.3219 H         1 UNK         0.0600 
    147 H147        1.6769  -23.7881  -46.7159 H         1 UNK         0.0600 
    148 H148        1.7115  -22.0330  -46.5877 H         1 UNK         0.0600 
    149 H149        0.8040  -21.0460  -44.6026 H         1 UNK         0.3000 
    150 H150       -1.9355  -20.1000  -42.4533 H         1 UNK         0.0600 
    151 H151       -0.0642  -20.8939  -41.0023 H         1 UNK         0.0600 
    152 H152       -0.0304  -19.1480  -41.1960 H         1 UNK         0.0600 
    153 H153        1.1056  -20.1563  -42.0896 H         1 UNK         0.0600 
    154 H154        0.0701  -18.5081  -43.6604 H         1 UNK         0.3000 
    155 H155       -1.6679  -17.8082  -46.7365 H         1 UNK         0.0600 
    156 H156       -0.8326  -16.1433  -44.3007 H         1 UNK         0.0600 
    157 H157       -2.4437  -16.2005  -45.0002 H         1 UNK         0.0600 
    158 H158       -1.1126  -15.5266  -45.9276 H         1 UNK         0.0600 
    159 H159        0.9330  -17.0589  -45.8578 H         1 UNK         0.3000 
    160 H160        2.7090  -19.9250  -47.0713 H         1 UNK         0.0600 
    161 H161        3.9778  -17.9834  -48.1043 H         1 UNK         0.0600 
    162 H162        2.4832  -17.0464  -48.0783 H         1 UNK         0.0600 
    163 H163        2.5895  -18.5202  -49.0309 H         1 UNK         0.0600 
    164 H164        3.3394  -17.4618  -45.6555 H         1 UNK         0.3000 
    165 H165        3.3117  -18.9468  -42.4132 H         1 UNK         0.0600 
    166 H166        5.6943  -18.2610  -42.3975 H         1 UNK         0.0600 
    167 H167        5.4955  -19.7285  -43.3417 H         1 UNK         0.0600 
    168 H168        5.7154  -18.1863  -44.1599 H         1 UNK         0.0600 
    169 H169        4.1929  -16.3994  -43.3684 H         1 UNK         0.3000 
    170 H170        1.0533  -14.7694  -43.4576 H         1 UNK         0.0600 
    171 H171        1.5785  -14.7693  -41.0112 H         1 UNK         0.0600 
    172 H172        3.2820  -14.5084  -41.3679 H         1 UNK         0.0600 
    173 H173        2.0899  -13.2744  -41.7783 H         1 UNK         0.0600 
    174 H174        3.5842  -13.6406  -43.7301 H         1 UNK         0.3000 
    175 H175        4.8870  -13.5739  -45.5898 H         1 UNK         0.0600 
    176 H176        3.8258  -14.9606  -48.1138 H         1 UNK         0.0600 
    177 H177        5.3734  -14.1378  -47.9403 H         1 UNK         0.0600 
    178 H178        5.0607  -15.6168  -47.0451 H         1 UNK         0.0600 
    179 H179        2.9861  -12.7613  -47.6711 H         1 UNK         0.3000 
    180 H180        1.5909  -10.0709  -45.9358 H         1 UNK         0.0600 
    181 H181        3.5945   -9.8767  -48.2520 H         1 UNK         0.0600 
    182 H182        3.6747   -8.9617  -46.7514 H         1 UNK         0.0600 
    183 H183        2.3426   -8.6954  -47.8643 H         1 UNK         0.0600 
    184 H184        1.4217  -10.9758  -48.6524 H         1 UNK         0.3000 
    185 H185       -0.4456  -11.9875  -49.3736 H         1 UNK         0.0600 
    186 H186        1.1567  -13.9039  -49.1017 H         1 UNK         0.0600 
    187 H187        0.0353  -14.6992  -48.0065 H         1 UNK         0.0600 
    188 H188       -0.3964  -14.4608  -49.6968 H         1 UNK         0.0600 
    189 H189       -2.2671  -13.7798  -48.1820 H         1 UNK         0.3000 
    190 H190       -3.4201  -21.2176  -45.2168 H         1 UNK         0.3000 
    191 H191       -6.0681  -22.1814  -44.9925 H         1 UNK         0.0600 
    192 H192       -5.8455  -21.5237  -42.6086 H         1 UNK         0.0600 
    193 H193       -5.1497  -20.2953  -43.6559 H         1 UNK         0.0600 
    194 H194       -4.0999  -21.4040  -42.7767 H         1 UNK         0.0600 
    195 H195       -2.9935  -23.6726  -44.0062 H         1 UNK         0.3000 
    196 H196       -4.1448  -26.0300  -42.8032 H         1 UNK         0.0600 
    197 H197       -1.7904  -26.8069  -42.7982 H         1 UNK         0.0600 
    198 H198       -1.8708  -25.1418  -42.2446 H         1 UNK         0.0600 
    199 H199       -1.3254  -25.5035  -43.8820 H         1 UNK         0.0600 
    200 H200       -4.0317  -25.0804  -46.0405 H         1 UNK         0.3000 
    201 H201       -4.4096  -25.9764  -47.9961 H         1 UNK         0.0600 
    202 H202       -6.3350  -27.0842  -46.8418 H         1 UNK         0.0600 
    203 H203       -5.3427  -28.5155  -46.5646 H         1 UNK         0.0600 
    204 H204       -5.7442  -28.0223  -48.2026 H         1 UNK         0.0600 
    205 H205       -1.7363  -26.0903  -47.0490 H         1 UNK         0.3000 
    206 H206       -0.5158  -28.5852  -48.0019 H         1 UNK         0.0600 
    207 H207        0.4509  -27.3359  -46.0823 H         1 UNK         0.0600 
    208 H208        1.5884  -27.4089  -47.4210 H         1 UNK         0.0600 
    209 H209        0.7036  -25.9236  -47.1035 H         1 UNK         0.0600 
    210 H210       -1.7163  -28.3668  -50.0706 H         1 UNK         0.3000 
    211 H211       -1.9138  -28.0359  -52.2642 H         1 UNK         0.0600 
    212 H212        1.0561  -27.2713  -52.2408 H         1 UNK         0.0600 
    213 H213        0.1281  -27.8107  -53.6333 H         1 UNK         0.0600 
    214 H214        0.4338  -28.9195  -52.3073 H         1 UNK         0.0600 
    215 H215       -2.6003  -25.9042  -50.5443 H         1 UNK         0.3000 
    216 H216       -3.2238  -23.7947  -50.3605 H         1 UNK         0.0600 
    217 H217       -3.9494  -22.5621  -52.3663 H         1 UNK         0.0600 
    218 H218       -4.3964  -24.2495  -52.5276 H         1 UNK         0.0600 
    219 H219       -3.0099  -23.6175  -53.4130 H         1 UNK         0.0600 
    220 H220       -0.2122  -24.4751  -50.5472 H         1 UNK         0.3000 
    221 H221        1.8017  -23.6057  -50.6503 H         1 UNK         0.0600 
    222 H222        0.4337  -21.0159  -49.7747 H         1 UNK         0.0600 
    223 H223        0.9710  -22.3049  -48.7199 H         1 UNK         0.0600 
    224 H224        2.1535  -21.3633  -49.6183 H         1 UNK         0.0600 
    225 H225        0.4663  -23.7903  -53.0999 H         1 UNK         0.3000 
    226 H226        0.5538  -23.3307  -55.2442 H         1 UNK         0.0600 
    227 H227        2.4503  -22.1689  -56.2695 H         1 UNK         0.0600 
    228 H228        2.9186  -21.4529  -54.7361 H         1 UNK         0.0600 
    229 H229        3.0425  -23.1958  -54.9746 H         1 UNK         0.0600 
    230 H230       -1.2376  -21.9905  -53.6081 H         1 UNK         0.3000 
    231 H231       -2.9470  -20.6157  -53.6898 H         1 UNK         0.0600 
    232 H232       -3.1134  -21.0892  -56.1271 H         1 UNK         0.0600 
    233 H233       -2.0381  -19.7370  -56.4804 H         1 UNK         0.0600 
    234 H234       -3.6104  -19.4463  -55.7531 H         1 UNK         0.0600 
    235 H235       -1.2765  -19.8518  -52.0006 H         1 UNK         0.3000 
    236 H236       -0.0841  -17.2301  -52.3903 H         1 UNK         0.0600 
    237 H237        0.9626  -18.9515  -50.9459 H         1 UNK         0.0600 
    238 H238        0.5941  -17.4970  -50.0319 H         1 UNK         0.0600 
    239 H239       -0.4357  -18.9104  -49.8646 H         1 UNK         0.0600 
    240 H240       -2.4619  -16.5743  -53.1432 H         1 UNK         0.3000 
    241 H241       -4.1773  -15.6710  -50.9825 H         1 UNK         0.0600 
    242 H242       -1.6359  -12.6102  -51.7014 H         1 UNK         0.3800 
    243 H243       -1.3107  -14.2066  -52.3233 H         1 UNK         0.3800 
    244 H244       -5.5552  -14.6052  -52.7616 H         1 UNK         0.0800 
    245 H245       -4.3175  -14.9322  -53.9406 H         1 UNK         0.0800 
    246 H246       -7.4841  -15.9402  -52.3744 H         1 UNK         0.0800 
    247 H247       -7.7068  -17.6375  -52.7049 H         1 UNK         0.0800 
@<TRIPOS>BOND
     1    1    2 1    
     2    1  127 1    
     3    1  128 1    
     4    1  129 1    
     5    2    3 2    
     6    2    4 am   BACKBONE|DICT|INTERRES
     7    4    5 1    
     8    4  130 1    
     9    5    6 1    
    10    5   65 1    
    11    5  131 1    
    12    6    7 1    
    13    6  132 1    
    14    6  133 1    
    15    7    8 1    
    16    8    9 1    
    17    8  134 1    
    18    8  135 1    
    19    9   10 ar   
    20    9   14 ar   
    21   10   11 ar   
    22   10  136 1    
    23   11   12 ar   
    24   11  126 1    
    25   12   13 ar   
    26   12  137 1    
    27   13   14 ar   
    28   13   15 1    
    29   14  138 1    
    30   15   16 1    
    31   15  139 1    
    32   15  140 1    
    33   16   17 1    
    34   17   18 1    
    35   17  141 1    
    36   17  142 1    
    37   18   19 1    
    38   18   67 1    
    39   18  143 1    
    40   19   20 am   BACKBONE|DICT|INTERRES
    41   19  144 1    
    42   20   21 2    
    43   20   22 1    
    44   22   23 1    
    45   22   24 1    
    46   22  145 1    
    47   23  146 1    
    48   23  147 1    
    49   23  148 1    
    50   24   25 am   BACKBONE|DICT|INTERRES
    51   24  149 1    
    52   25   26 2    
    53   25   27 1    
    54   27   28 1    
    55   27   29 1    
    56   27  150 1    
    57   28  151 1    
    58   28  152 1    
    59   28  153 1    
    60   29   30 am   BACKBONE|DICT|INTERRES
    61   29  154 1    
    62   30   31 2    
    63   30   32 1    
    64   32   33 1    
    65   32   34 1    
    66   32  155 1    
    67   33  156 1    
    68   33  157 1    
    69   33  158 1    
    70   34   35 am   BACKBONE|DICT|INTERRES
    71   34  159 1    
    72   35   36 2    
    73   35   37 1    
    74   37   38 1    
    75   37   39 1    
    76   37  160 1    
    77   38  161 1    
    78   38  162 1    
    79   38  163 1    
    80   39   40 am   BACKBONE|DICT|INTERRES
    81   39  164 1    
    82   40   41 2    
    83   40   42 1    
    84   42   43 1    
    85   42   44 1    
    86   42  165 1    
    87   43  166 1    
    88   43  167 1    
    89   43  168 1    
    90   44   45 am   BACKBONE|DICT|INTERRES
    91   44  169 1    
    92   45   46 2    
    93   45   47 1    
    94   47   48 1    
    95   47   49 1    
    96   47  170 1    
    97   48  171 1    
    98   48  172 1    
    99   48  173 1    
   100   49   50 am   BACKBONE|DICT|INTERRES
   101   49  174 1    
   102   50   51 2    
   103   50   52 1    
   104   52   53 1    
   105   52   54 1    
   106   52  175 1    
   107   53  176 1    
   108   53  177 1    
   109   53  178 1    
   110   54   55 am   BACKBONE|DICT|INTERRES
   111   54  179 1    
   112   55   56 2    
   113   55   57 1    
   114   57   58 1    
   115   57   59 1    
   116   57  180 1    
   117   58  181 1    
   118   58  182 1    
   119   58  183 1    
   120   59   60 am   BACKBONE|DICT|INTERRES
   121   59  184 1    
   122   60   61 2    
   123   60   62 1    
   124   62   63 1    
   125   62   64 1    
   126   62  185 1    
   127   63  186 1    
   128   63  187 1    
   129   63  188 1    
   130   64   65 am   BACKBONE|DICT|INTERRES
   131   64  189 1    
   132   65   66 2    
   133   67   68 2    
   134   67   69 am   BACKBONE|DICT|INTERRES
   135   69   70 1    
   136   69  190 1    
   137   70   71 1    
   138   70   72 1    
   139   70  191 1    
   140   71  192 1    
   141   71  193 1    
   142   71  194 1    
   143   72   73 2    
   144   72   74 am   BACKBONE|DICT|INTERRES
   145   74   75 1    
   146   74  195 1    
   147   75   76 1    
   148   75   77 1    
   149   75  196 1    
   150   76  197 1    
   151   76  198 1    
   152   76  199 1    
   153   77   78 2    
   154   77   79 am   BACKBONE|DICT|INTERRES
   155   79   80 1    
   156   79  200 1    
   157   80   81 1    
   158   80   82 1    
   159   80  201 1    
   160   81  202 1    
   161   81  203 1    
   162   81  204 1    
   163   82   83 2    
   164   82   84 am   BACKBONE|DICT|INTERRES
   165   84   85 1    
   166   84  205 1    
   167   85   86 1    
   168   85   87 1    
   169   85  206 1    
   170   86  207 1    
   171   86  208 1    
   172   86  209 1    
   173   87   88 2    
   174   87   89 am   BACKBONE|DICT|INTERRES
   175   89   90 1    
   176   89  210 1    
   177   90   91 1    
   178   90   92 1    
   179   90  211 1    
   180   91  212 1    
   181   91  213 1    
   182   91  214 1    
   183   92   93 2    
   184   92   94 am   BACKBONE|DICT|INTERRES
   185   94   95 1    
   186   94  215 1    
   187   95   96 1    
   188   95   97 1    
   189   95  216 1    
   190   96  217 1    
   191   96  218 1    
   192   96  219 1    
   193   97   98 2    
   194   97   99 am   BACKBONE|DICT|INTERRES
   195   99  100 1    
   196   99  220 1    
   197  100  101 1    
   198  100  102 1    
   199  100  221 1    
   200  101  222 1    
   201  101  223 1    
   202  101  224 1    
   203  102  103 2    
   204  102  104 am   BACKBONE|DICT|INTERRES
   205  104  105 1    
   206  104  225 1    
   207  105  106 1    
   208  105  107 1    
   209  105  226 1    
   210  106  227 1    
   211  106  228 1    
   212  106  229 1    
   213  107  108 2    
   214  107  109 am   BACKBONE|DICT|INTERRES
   215  109  110 1    
   216  109  230 1    
   217  110  111 1    
   218  110  112 1    
   219  110  231 1    
   220  111  232 1    
   221  111  233 1    
   222  111  234 1    
   223  112  113 2    
   224  112  114 am   BACKBONE|DICT|INTERRES
   225  114  115 1    
   226  114  235 1    
   227  115  116 1    
   228  115  117 1    
   229  115  236 1    
   230  116  237 1    
   231  116  238 1    
   232  116  239 1    
   233  117  118 2    
   234  117  119 am   BACKBONE|DICT|INTERRES
   235  119  120 1    
   236  119  240 1    
   237  120  121 1    
   238  120  124 1    
   239  120  241 1    
   240  121  122 am   BACKBONE|DICT|INTERRES
   241  121  123 2    
   242  122  242 1    
   243  122  243 1    
   244  124  125 1    
   245  124  244 1    
   246  124  245 1    
   247  125  126 1    
   248  126  246 1    
   249  126  247 1    
@<TRIPOS>SUBSTRUCTURE
     1 UNK         1 GROUP             0       ****    0 ROOT    
