@<TRIPOS>MOLECULE
3R540
247   249    1
SMALL
USER_CHARGES


@<TRIPOS>ATOM
      1 CA          5.3480   -8.9555  -51.9230 C.3       0 UNK        -0.1800 
      2 C           5.0848  -10.4456  -52.0889 C.2       0 UNK         0.5000 
      3 O           4.6343  -10.8746  -53.1511 O.2       0 UNK        -0.5000 
      4 N           5.3651  -11.2314  -51.0449 N.am      1 UNK        -0.5000 
      5 CA          5.2170  -12.6861  -51.0084 C.3       1 UNK         0.1400 
      6 C6          3.7407  -13.1681  -50.9473 C.3       23 UNK        -0.0398 
      7 S7          3.5286  -14.9434  -51.3092 S.3       23 UNK        -0.2404 
      8 C8          3.0642  -15.5824  -49.6692 C.3       23 UNK        -0.0205 
      9 C9          2.4469  -16.9667  -49.7778 C.ar      23 UNK        -0.0193 
     10 C10         1.0963  -17.0953  -50.1132 C.ar      23 UNK        -0.1150 
     11 C11         0.5062  -18.3572  -50.2120 C.ar      23 UNK        -0.0193 
     12 C12         1.2752  -19.4958  -49.9621 C.ar      23 UNK        -0.1150 
     13 C13         2.6243  -19.3824  -49.6132 C.ar      23 UNK        -0.0193 
     14 C14         3.2091  -18.1138  -49.5326 C.ar      23 UNK        -0.1150 
     15 C15         3.4361  -20.6363  -49.3119 C.3       23 UNK        -0.0205 
     16 S16         3.9161  -20.7796  -47.5554 S.3       23 UNK        -0.2404 
     17 C17         2.3251  -20.6056  -46.6756 C.3       23 UNK        -0.0398 
     18 CA          1.7015  -21.9325  -46.1806 C.3       11 UNK         0.1400 
     19 N           0.6600  -21.6709  -45.1815 N.am      11 UNK        -0.5000 
     20 C           0.0522  -22.5974  -44.4304 C.2       10 UNK         0.5000 
     21 O           0.3775  -23.7829  -44.4301 O.2       10 UNK        -0.5000 
     22 CA         -1.1409  -22.1349  -43.5700 C.3       10 UNK         0.1400 
     23 CB         -0.6658  -21.6071  -42.2084 C.3       10 UNK        -0.1800 
     24 N          -1.9609  -21.1186  -44.2347 N.am      10 UNK        -0.5000 
     25 C          -2.7101  -21.3459  -45.3242 C.2       9 UNK         0.5000 
     26 O          -2.8397  -22.4538  -45.8423 O.2       9 UNK        -0.5000 
     27 CA         -3.3906  -20.1266  -45.9757 C.3       9 UNK         0.1400 
     28 CB         -4.7256  -19.8044  -45.2891 C.3       9 UNK        -0.1800 
     29 N          -2.5370  -18.9374  -45.9847 N.am      9 UNK        -0.5000 
     30 C          -1.3750  -18.8547  -46.6493 C.2       8 UNK         0.5000 
     31 O          -0.9214  -19.7695  -47.3351 O.2       8 UNK        -0.5000 
     32 CA         -0.5393  -17.5764  -46.4453 C.3       8 UNK         0.1400 
     33 CB         -1.0991  -16.3974  -47.2513 C.3       8 UNK        -0.1800 
     34 N          -0.4714  -17.1838  -45.0417 N.am      8 UNK        -0.5000 
     35 C           0.0627  -17.9061  -44.0511 C.2       7 UNK         0.5000 
     36 O           0.6416  -18.9767  -44.2211 O.2       7 UNK        -0.5000 
     37 CA         -0.1371  -17.3641  -42.6256 C.3       7 UNK         0.1400 
     38 CB          0.9270  -16.3141  -42.2728 C.3       7 UNK        -0.1800 
     39 N          -1.4708  -16.7899  -42.4430 N.am      7 UNK        -0.5000 
     40 C          -2.6026  -17.5055  -42.3971 C.2       6 UNK         0.5000 
     41 O          -2.6361  -18.7341  -42.4703 O.2       6 UNK        -0.5000 
     42 CA         -3.9163  -16.7099  -42.2780 C.3       6 UNK         0.1400 
     43 CB         -4.1805  -16.3160  -40.8170 C.3       6 UNK        -0.1800 
     44 N          -3.9271  -15.5074  -43.1148 N.am      6 UNK        -0.5000 
     45 C          -3.9922  -15.5259  -44.4533 C.2       5 UNK         0.5000 
     46 O          -4.0725  -16.5592  -45.1163 O.2       5 UNK        -0.5000 
     47 CA         -3.9081  -14.1665  -45.1788 C.3       5 UNK         0.1400 
     48 CB         -5.2989  -13.5238  -45.2834 C.3       5 UNK        -0.1800 
     49 N          -2.9676  -13.2061  -44.5844 N.am      5 UNK        -0.5000 
     50 C          -1.6678  -13.4482  -44.3690 C.2       4 UNK         0.5000 
     51 O          -1.1498  -14.5521  -44.5391 O.2       4 UNK        -0.5000 
     52 CA         -0.8027  -12.2889  -43.8410 C.3       4 UNK         0.1400 
     53 CB         -0.9939  -12.1300  -42.3247 C.3       4 UNK        -0.1800 
     54 N           0.6117  -12.5584  -44.1100 N.am      4 UNK        -0.5000 
     55 C           1.1818  -12.4611  -45.3168 C.2       3 UNK         0.5000 
     56 O           0.6560  -11.9121  -46.2894 O.2       3 UNK        -0.5000 
     57 CA          2.5525  -13.1326  -45.4721 C.3       3 UNK         0.1400 
     58 CB          2.3827  -14.6376  -45.7676 C.3       3 UNK        -0.1800 
     59 N           3.2760  -12.4883  -46.5633 N.am      3 UNK        -0.5000 
     60 C           4.5892  -12.5940  -46.7820 C.2       2 UNK         0.5000 
     61 O           5.3570  -13.2386  -46.0627 O.2       2 UNK        -0.5000 
     62 CA          5.1480  -11.8636  -48.0111 C.3       2 UNK         0.1400 
     63 CB          5.8721  -10.5738  -47.5920 C.3       2 UNK        -0.1800 
     64 N           6.1033  -12.7666  -48.6522 N.am      2 UNK        -0.5000 
     65 C           6.1217  -13.2656  -49.8986 C.2       1 UNK         0.5000 
     66 O           6.9135  -14.1576  -50.1990 O.2       1 UNK        -0.5000 
     67 C           1.1599  -22.8017  -47.3402 C.2       11 UNK         0.5000 
     68 O           1.8324  -23.7375  -47.7744 O.2       11 UNK        -0.5000 
     69 N          -0.0754  -22.5187  -47.7749 N.am      12 UNK        -0.5000 
     70 CA         -0.8144  -23.2647  -48.7938 C.3       12 UNK         0.1400 
     71 CB         -1.8648  -22.3401  -49.4320 C.3       12 UNK        -0.1800 
     72 C          -1.4591  -24.5753  -48.2947 C.2       12 UNK         0.5000 
     73 O          -2.2040  -25.1905  -49.0594 O.2       12 UNK        -0.5000 
     74 N          -1.1832  -25.0178  -47.0573 N.am      13 UNK        -0.5000 
     75 CA         -1.7363  -26.2483  -46.4709 C.3       13 UNK         0.1400 
     76 CB         -1.3031  -26.3755  -45.0052 C.3       13 UNK        -0.1800 
     77 C          -1.3896  -27.5353  -47.2483 C.2       13 UNK         0.5000 
     78 O          -2.1584  -28.4955  -47.1983 O.2       13 UNK        -0.5000 
     79 N          -0.2854  -27.5126  -48.0092 N.am      14 UNK        -0.5000 
     80 CA          0.1022  -28.5528  -48.9679 C.3       14 UNK         0.1400 
     81 CB          1.5123  -28.2420  -49.4917 C.3       14 UNK        -0.1800 
     82 C          -0.8875  -28.7097  -50.1447 C.2       14 UNK         0.5000 
     83 O          -0.9579  -29.7876  -50.7355 O.2       14 UNK        -0.5000 
     84 N          -1.6483  -27.6477  -50.4410 N.am      15 UNK        -0.5000 
     85 CA         -2.7423  -27.6048  -51.4107 C.3       15 UNK         0.1400 
     86 CB         -2.5092  -26.4145  -52.3593 C.3       15 UNK        -0.1800 
     87 C          -4.1029  -27.5024  -50.6882 C.2       15 UNK         0.5000 
     88 O          -5.0557  -26.9599  -51.2493 O.2       15 UNK        -0.5000 
     89 N          -4.1650  -27.9861  -49.4364 N.am      16 UNK        -0.5000 
     90 CA         -5.3250  -27.9979  -48.5359 C.3       16 UNK         0.1400 
     91 CB         -6.4231  -28.9334  -49.0838 C.3       16 UNK        -0.1800 
     92 C          -5.8649  -26.5931  -48.1864 C.2       16 UNK         0.5000 
     93 O          -7.0386  -26.4627  -47.8364 O.2       16 UNK        -0.5000 
     94 N          -5.0042  -25.5686  -48.3015 N.am      17 UNK        -0.5000 
     95 CA         -5.2784  -24.1397  -48.1127 C.3       17 UNK         0.1400 
     96 CB         -5.7215  -23.8426  -46.6658 C.3       17 UNK        -0.1800 
     97 C          -6.2436  -23.5441  -49.1603 C.2       17 UNK         0.5000 
     98 O          -6.7371  -22.4335  -48.9606 O.2       17 UNK        -0.5000 
     99 N          -6.4804  -24.2608  -50.2713 N.am      18 UNK        -0.5000 
    100 CA        -7.4443  -23.9016  -51.3171 C.3       18 UNK         0.1400 
    101 CB        -7.5881  -25.0790  -52.2926 C.3       18 UNK        -0.1800 
    102 C         -7.0942  -22.6098  -52.0800 C.2       18 UNK         0.5000 
    103 O         -7.9948  -21.9460  -52.5946 O.2       18 UNK        -0.5000 
    104 N         -5.7999  -22.2675  -52.1225 N.am      19 UNK        -0.5000 
    105 CA        -5.2845  -21.0296  -52.7083 C.3       19 UNK         0.1400 
    106 CB        -3.7906  -21.2147  -53.0075 C.3       19 UNK        -0.1800 
    107 C         -5.5159  -19.7892  -51.8184 C.2       19 UNK         0.5000 
    108 O         -5.4042  -18.6679  -52.3176 O.2       19 UNK        -0.5000 
    109 N         -5.8383  -20.0048  -50.5319 N.am      20 UNK        -0.5000 
    110 CA        -6.1072  -19.0009  -49.5002 C.3       20 UNK         0.1400 
    111 CB        -7.4856  -18.3474  -49.7445 C.3       20 UNK        -0.1800 
    112 C         -4.9442  -17.9973  -49.3552 C.2       20 UNK         0.5000 
    113 O         -3.8424  -18.4079  -48.9969 O.2       20 UNK        -0.5000 
    114 N         -5.1985  -16.7155  -49.6464 N.am      21 UNK        -0.5000 
    115 CA        -4.2135  -15.6352  -49.5986 C.3       21 UNK         0.1400 
    116 CB        -4.9575  -14.3003  -49.4340 C.3       21 UNK        -0.1800 
    117 C         -3.2673  -15.5923  -50.8184 C.2       21 UNK         0.5000 
    118 O         -2.3071  -14.8225  -50.7900 O.2       21 UNK        -0.5000 
    119 N         -3.5381  -16.3990  -51.8571 N.am      22 UNK        -0.5000 
    120 CA        -2.7753  -16.4866  -53.1196 C.3       22 UNK         0.1400 
    121 C         -2.8416  -15.2041  -54.0083 C.2       22 UNK         0.5000 
    122 N         -3.7949  -14.3034  -53.8012 N.am      22 UNK        -0.7600 
    123 O         -2.0432  -15.0323  -54.9257 O.2       22 UNK        -0.5000 
    124 C124       -1.3204  -17.0133  -52.9311 C.3       23 UNK        -0.0398 
    125 S125       -1.2636  -18.7333  -52.3215 S.3       23 UNK        -0.2404 
    126 C126       -0.9695  -18.4955  -50.5463 C.3       23 UNK        -0.0205 
    127 H127        4.4269   -8.3929  -52.0753 H         1 UNK         0.0600 
    128 H128        6.0792   -8.6196  -52.6582 H         1 UNK         0.0600 
    129 H129        5.7303   -8.7182  -50.9299 H         1 UNK         0.0600 
    130 H130        5.7856  -10.8296  -50.2185 H         1 UNK         0.3000 
    131 H131        5.6319  -13.0544  -51.9498 H         1 UNK         0.0600 
    132 H132        3.2691  -12.9276  -49.9968 H         1 UNK         0.0800 
    133 H133        3.1536  -12.6356  -51.6961 H         1 UNK         0.0800 
    134 H134        2.3444  -14.9110  -49.1987 H         1 UNK         0.0800 
    135 H135        3.9420  -15.5999  -49.0211 H         1 UNK         0.0800 
    136 H136        0.5040  -16.2090  -50.2927 H         1 UNK         0.1150 
    137 H137        0.8140  -20.4715  -50.0202 H         1 UNK         0.1150 
    138 H138        4.2523  -18.0216  -49.2646 H         1 UNK         0.1150 
    139 H139        2.8829  -21.5317  -49.5997 H         1 UNK         0.0800 
    140 H140        4.3393  -20.6300  -49.9233 H         1 UNK         0.0800 
    141 H141        1.6132  -20.0398  -47.2715 H         1 UNK         0.0800 
    142 H142        2.5378  -19.9708  -45.8148 H         1 UNK         0.0800 
    143 H143        2.4839  -22.5066  -45.6799 H         1 UNK         0.0600 
    144 H144        0.3872  -20.7000  -45.0593 H         1 UNK         0.3000 
    145 H145       -1.7731  -23.0069  -43.3900 H         1 UNK         0.0600 
    146 H146       -1.5099  -21.3276  -41.5777 H         1 UNK         0.0600 
    147 H147       -0.0967  -22.3681  -41.6732 H         1 UNK         0.0600 
    148 H148       -0.0242  -20.7327  -42.3141 H         1 UNK         0.0600 
    149 H149       -1.9479  -20.1860  -43.8370 H         1 UNK         0.3000 
    150 H150       -3.6038  -20.3873  -47.0144 H         1 UNK         0.0600 
    151 H151       -5.3783  -20.6774  -45.2696 H         1 UNK         0.0600 
    152 H152       -5.2568  -19.0133  -45.8188 H         1 UNK         0.0600 
    153 H153       -4.5810  -19.4790  -44.2589 H         1 UNK         0.0600 
    154 H154       -2.8800  -18.1250  -45.4827 H         1 UNK         0.3000 
    155 H155        0.4767  -17.7774  -46.7912 H         1 UNK         0.0600 
    156 H156       -2.1040  -16.1359  -46.9255 H         1 UNK         0.0600 
    157 H157       -1.1504  -16.6301  -48.3103 H         1 UNK         0.0600 
    158 H158       -0.4732  -15.5114  -47.1454 H         1 UNK         0.0600 
    159 H159       -0.8739  -16.2768  -44.8102 H         1 UNK         0.3000 
    160 H160       -0.0258  -18.2026  -41.9349 H         1 UNK         0.0600 
    161 H161        0.8150  -15.4086  -42.8677 H         1 UNK         0.0600 
    162 H162        1.9321  -16.7012  -42.4452 H         1 UNK         0.0600 
    163 H163        0.8635  -16.0308  -41.2221 H         1 UNK         0.0600 
    164 H164       -1.5354  -15.7829  -42.4503 H         1 UNK         0.3000 
    165 H165       -4.7292  -17.3619  -42.6052 H         1 UNK         0.0600 
    166 H166       -5.1470  -15.8230  -40.7107 H         1 UNK         0.0600 
    167 H167       -4.1930  -17.1958  -40.1723 H         1 UNK         0.0600 
    168 H168       -3.4146  -15.6398  -40.4352 H         1 UNK         0.0600 
    169 H169       -3.8566  -14.6167  -42.6456 H         1 UNK         0.3000 
    170 H170       -3.5596  -14.3668  -46.1937 H         1 UNK         0.0600 
    171 H171       -6.0133  -14.2106  -45.7398 H         1 UNK         0.0600 
    172 H172       -5.6892  -13.2465  -44.3035 H         1 UNK         0.0600 
    173 H173       -5.2738  -12.6269  -45.9026 H         1 UNK         0.0600 
    174 H174       -3.3295  -12.2819  -44.3982 H         1 UNK         0.3000 
    175 H175       -1.0992  -11.3650  -44.3419 H         1 UNK         0.0600 
    176 H176       -0.7256  -13.0399  -41.7858 H         1 UNK         0.0600 
    177 H177       -0.3813  -11.3170  -41.9343 H         1 UNK         0.0600 
    178 H178       -2.0313  -11.8977  -42.0810 H         1 UNK         0.0600 
    179 H179        1.1102  -13.0458  -43.3808 H         1 UNK         0.3000 
    180 H180        3.1113  -12.9999  -44.5431 H         1 UNK         0.0600 
    181 H181        1.8722  -14.8032  -46.7165 H         1 UNK         0.0600 
    182 H182        1.7934  -15.1296  -44.9947 H         1 UNK         0.0600 
    183 H183        3.3437  -15.1498  -45.8124 H         1 UNK         0.0600 
    184 H184        2.6915  -11.9134  -47.1580 H         1 UNK         0.3000 
    185 H185        4.3208  -11.5950  -48.6639 H         1 UNK         0.0600 
    186 H186        5.1854   -9.8845  -47.0989 H         1 UNK         0.0600 
    187 H187        6.6876  -10.7770  -46.8963 H         1 UNK         0.0600 
    188 H188        6.2929  -10.0527  -48.4514 H         1 UNK         0.0600 
    189 H189        6.7196  -13.2042  -47.9805 H         1 UNK         0.3000 
    190 H190       -0.5431  -21.7008  -47.3933 H         1 UNK         0.3000 
    191 H191       -0.1153  -23.5544  -49.5806 H         1 UNK         0.0600 
    192 H192       -2.5226  -21.8963  -48.6845 H         1 UNK         0.0600 
    193 H193       -2.4900  -22.8697  -50.1517 H         1 UNK         0.0600 
    194 H194       -1.3802  -21.5339  -49.9772 H         1 UNK         0.0600 
    195 H195       -0.5823  -24.4626  -46.4627 H         1 UNK         0.3000 
    196 H196       -2.8234  -26.1513  -46.4858 H         1 UNK         0.0600 
    197 H197       -1.7045  -27.2839  -44.5540 H         1 UNK         0.0600 
    198 H198       -1.6695  -25.5358  -44.4146 H         1 UNK         0.0600 
    199 H199       -0.2175  -26.4127  -44.9089 H         1 UNK         0.0600 
    200 H200        0.2900  -26.6829  -47.9846 H         1 UNK         0.3000 
    201 H201        0.1340  -29.5060  -48.4361 H         1 UNK         0.0600 
    202 H202        2.2367  -28.2051  -48.6779 H         1 UNK         0.0600 
    203 H203        1.5449  -27.2854  -50.0149 H         1 UNK         0.0600 
    204 H204        1.8485  -29.0099  -50.1897 H         1 UNK         0.0600 
    205 H205       -1.5557  -26.8081  -49.8773 H         1 UNK         0.3000 
    206 H206       -2.7635  -28.5193  -52.0061 H         1 UNK         0.0600 
    207 H207       -1.5390  -26.4876  -52.8507 H         1 UNK         0.0600 
    208 H208       -3.2665  -26.3807  -53.1434 H         1 UNK         0.0600 
    209 H209       -2.5438  -25.4632  -51.8266 H         1 UNK         0.0600 
    210 H210       -3.3187  -28.3749  -49.0384 H         1 UNK         0.3000 
    211 H211       -4.9716  -28.4226  -47.5954 H         1 UNK         0.0600 
    212 H212       -6.8797  -28.5344  -49.9901 H         1 UNK         0.0600 
    213 H213       -7.2196  -29.0751  -48.3524 H         1 UNK         0.0600 
    214 H214       -6.0211  -29.9194  -49.3164 H         1 UNK         0.0600 
    215 H215       -4.0648  -25.7710  -48.6287 H         1 UNK         0.3000 
    216 H216       -4.3286  -23.6284  -48.2657 H         1 UNK         0.0600 
    217 H217       -5.7526  -22.7685  -46.4827 H         1 UNK         0.0600 
    218 H218       -5.0243  -24.2705  -45.9453 H         1 UNK         0.0600 
    219 H219       -6.7147  -24.2370  -46.4515 H         1 UNK         0.0600 
    220 H220       -6.0181  -25.1563  -50.3797 H         1 UNK         0.3000 
    221 H221       -8.4097  -23.7412  -50.8328 H         1 UNK         0.0600 
    222 H222       -6.6509  -25.2876  -52.8100 H         1 UNK         0.0600 
    223 H223       -7.8925  -25.9879  -51.7729 H         1 UNK         0.0600 
    224 H224       -8.3430  -24.8693  -53.0514 H         1 UNK         0.0600 
    225 H225       -5.1293  -22.8813  -51.6846 H         1 UNK         0.3000 
    226 H226       -5.7995  -20.8540  -53.6551 H         1 UNK         0.0600 
    227 H227       -3.6132  -22.0981  -53.6210 H         1 UNK         0.0600 
    228 H228       -3.4018  -20.3582  -53.5586 H         1 UNK         0.0600 
    229 H229       -3.2041  -21.3139  -52.0933 H         1 UNK         0.0600 
    230 H230       -5.9313  -20.9636  -50.2185 H         1 UNK         0.3000 
    231 H231       -6.1608  -19.5400  -48.5530 H         1 UNK         0.0600 
    232 H232       -8.2720  -19.1023  -49.7569 H         1 UNK         0.0600 
    233 H233       -7.5291  -17.8157  -50.6957 H         1 UNK         0.0600 
    234 H234       -7.7353  -17.6416  -48.9512 H         1 UNK         0.0600 
    235 H235       -6.1263  -16.4683  -49.9583 H         1 UNK         0.3000 
    236 H236       -3.5902  -15.7785  -48.7151 H         1 UNK         0.0600 
    237 H237       -4.2570  -13.4685  -49.3484 H         1 UNK         0.0600 
    238 H238       -5.6095  -14.0950  -50.2837 H         1 UNK         0.0600 
    239 H239       -5.5692  -14.2989  -48.5315 H         1 UNK         0.0600 
    240 H240       -4.3306  -17.0303  -51.7962 H         1 UNK         0.3000 
    241 H241       -3.3038  -17.2344  -53.7119 H         1 UNK         0.0600 
    242 H242       -3.8391  -13.4840  -54.3865 H         1 UNK         0.3800 
    243 H243       -4.4716  -14.4337  -53.0670 H         1 UNK         0.3800 
    244 H244       -0.7888  -17.0179  -53.8837 H         1 UNK         0.0800 
    245 H245       -0.7453  -16.3566  -52.2795 H         1 UNK         0.0800 
    246 H246       -1.3972  -19.3316  -49.9962 H         1 UNK         0.0800 
    247 H247       -1.5196  -17.6236  -50.2083 H         1 UNK         0.0800 
@<TRIPOS>BOND
     1    1    2 1    
     2    1  127 1    
     3    1  128 1    
     4    1  129 1    
     5    2    3 2    
     6    2    4 am   BACKBONE|DICT|INTERRES
     7    4    5 1    
     8    4  130 1    
     9    5    6 1    
    10    5   65 1    
    11    5  131 1    
    12    6    7 1    
    13    6  132 1    
    14    6  133 1    
    15    7    8 1    
    16    8    9 1    
    17    8  134 1    
    18    8  135 1    
    19    9   10 ar   
    20    9   14 ar   
    21   10   11 ar   
    22   10  136 1    
    23   11   12 ar   
    24   11  126 1    
    25   12   13 ar   
    26   12  137 1    
    27   13   14 ar   
    28   13   15 1    
    29   14  138 1    
    30   15   16 1    
    31   15  139 1    
    32   15  140 1    
    33   16   17 1    
    34   17   18 1    
    35   17  141 1    
    36   17  142 1    
    37   18   19 1    
    38   18   67 1    
    39   18  143 1    
    40   19   20 am   BACKBONE|DICT|INTERRES
    41   19  144 1    
    42   20   21 2    
    43   20   22 1    
    44   22   23 1    
    45   22   24 1    
    46   22  145 1    
    47   23  146 1    
    48   23  147 1    
    49   23  148 1    
    50   24   25 am   BACKBONE|DICT|INTERRES
    51   24  149 1    
    52   25   26 2    
    53   25   27 1    
    54   27   28 1    
    55   27   29 1    
    56   27  150 1    
    57   28  151 1    
    58   28  152 1    
    59   28  153 1    
    60   29   30 am   BACKBONE|DICT|INTERRES
    61   29  154 1    
    62   30   31 2    
    63   30   32 1    
    64   32   33 1    
    65   32   34 1    
    66   32  155 1    
    67   33  156 1    
    68   33  157 1    
    69   33  158 1    
    70   34   35 am   BACKBONE|DICT|INTERRES
    71   34  159 1    
    72   35   36 2    
    73   35   37 1    
    74   37   38 1    
    75   37   39 1    
    76   37  160 1    
    77   38  161 1    
    78   38  162 1    
    79   38  163 1    
    80   39   40 am   BACKBONE|DICT|INTERRES
    81   39  164 1    
    82   40   41 2    
    83   40   42 1    
    84   42   43 1    
    85   42   44 1    
    86   42  165 1    
    87   43  166 1    
    88   43  167 1    
    89   43  168 1    
    90   44   45 am   BACKBONE|DICT|INTERRES
    91   44  169 1    
    92   45   46 2    
    93   45   47 1    
    94   47   48 1    
    95   47   49 1    
    96   47  170 1    
    97   48  171 1    
    98   48  172 1    
    99   48  173 1    
   100   49   50 am   BACKBONE|DICT|INTERRES
   101   49  174 1    
   102   50   51 2    
   103   50   52 1    
   104   52   53 1    
   105   52   54 1    
   106   52  175 1    
   107   53  176 1    
   108   53  177 1    
   109   53  178 1    
   110   54   55 am   BACKBONE|DICT|INTERRES
   111   54  179 1    
   112   55   56 2    
   113   55   57 1    
   114   57   58 1    
   115   57   59 1    
   116   57  180 1    
   117   58  181 1    
   118   58  182 1    
   119   58  183 1    
   120   59   60 am   BACKBONE|DICT|INTERRES
   121   59  184 1    
   122   60   61 2    
   123   60   62 1    
   124   62   63 1    
   125   62   64 1    
   126   62  185 1    
   127   63  186 1    
   128   63  187 1    
   129   63  188 1    
   130   64   65 am   BACKBONE|DICT|INTERRES
   131   64  189 1    
   132   65   66 2    
   133   67   68 2    
   134   67   69 am   BACKBONE|DICT|INTERRES
   135   69   70 1    
   136   69  190 1    
   137   70   71 1    
   138   70   72 1    
   139   70  191 1    
   140   71  192 1    
   141   71  193 1    
   142   71  194 1    
   143   72   73 2    
   144   72   74 am   BACKBONE|DICT|INTERRES
   145   74   75 1    
   146   74  195 1    
   147   75   76 1    
   148   75   77 1    
   149   75  196 1    
   150   76  197 1    
   151   76  198 1    
   152   76  199 1    
   153   77   78 2    
   154   77   79 am   BACKBONE|DICT|INTERRES
   155   79   80 1    
   156   79  200 1    
   157   80   81 1    
   158   80   82 1    
   159   80  201 1    
   160   81  202 1    
   161   81  203 1    
   162   81  204 1    
   163   82   83 2    
   164   82   84 am   BACKBONE|DICT|INTERRES
   165   84   85 1    
   166   84  205 1    
   167   85   86 1    
   168   85   87 1    
   169   85  206 1    
   170   86  207 1    
   171   86  208 1    
   172   86  209 1    
   173   87   88 2    
   174   87   89 am   BACKBONE|DICT|INTERRES
   175   89   90 1    
   176   89  210 1    
   177   90   91 1    
   178   90   92 1    
   179   90  211 1    
   180   91  212 1    
   181   91  213 1    
   182   91  214 1    
   183   92   93 2    
   184   92   94 am   BACKBONE|DICT|INTERRES
   185   94   95 1    
   186   94  215 1    
   187   95   96 1    
   188   95   97 1    
   189   95  216 1    
   190   96  217 1    
   191   96  218 1    
   192   96  219 1    
   193   97   98 2    
   194   97   99 am   BACKBONE|DICT|INTERRES
   195   99  100 1    
   196   99  220 1    
   197  100  101 1    
   198  100  102 1    
   199  100  221 1    
   200  101  222 1    
   201  101  223 1    
   202  101  224 1    
   203  102  103 2    
   204  102  104 am   BACKBONE|DICT|INTERRES
   205  104  105 1    
   206  104  225 1    
   207  105  106 1    
   208  105  107 1    
   209  105  226 1    
   210  106  227 1    
   211  106  228 1    
   212  106  229 1    
   213  107  108 2    
   214  107  109 am   BACKBONE|DICT|INTERRES
   215  109  110 1    
   216  109  230 1    
   217  110  111 1    
   218  110  112 1    
   219  110  231 1    
   220  111  232 1    
   221  111  233 1    
   222  111  234 1    
   223  112  113 2    
   224  112  114 am   BACKBONE|DICT|INTERRES
   225  114  115 1    
   226  114  235 1    
   227  115  116 1    
   228  115  117 1    
   229  115  236 1    
   230  116  237 1    
   231  116  238 1    
   232  116  239 1    
   233  117  118 2    
   234  117  119 am   BACKBONE|DICT|INTERRES
   235  119  120 1    
   236  119  240 1    
   237  120  121 1    
   238  120  124 1    
   239  120  241 1    
   240  121  122 am   BACKBONE|DICT|INTERRES
   241  121  123 2    
   242  122  242 1    
   243  122  243 1    
   244  124  125 1    
   245  124  244 1    
   246  124  245 1    
   247  125  126 1    
   248  126  246 1    
   249  126  247 1    
@<TRIPOS>SUBSTRUCTURE
     1 UNK         1 GROUP             0       ****    0 ROOT    
