@<TRIPOS>MOLECULE
3R540
247   249    1
SMALL
USER_CHARGES


@<TRIPOS>ATOM
      1 CA          2.1991  -11.9875  -46.8516 C.3       0 UNK        -0.1800 
      2 C           1.4587  -13.1578  -47.4823 C.2       0 UNK         0.5000 
      3 O           0.3745  -13.5171  -47.0235 O.2       0 UNK        -0.5000 
      4 N           2.0398  -13.7497  -48.5318 N.am      1 UNK        -0.5000 
      5 CA          1.4761  -14.8598  -49.3056 C.3       1 UNK         0.1400 
      6 C6          2.5066  -15.4468  -50.3066 C.3       23 UNK        -0.0398 
      7 S7          4.0901  -15.9237  -49.5285 S.3       23 UNK        -0.2404 
      8 C8          3.7911  -17.6776  -49.1207 C.3       23 UNK        -0.0205 
      9 C9          3.9897  -18.6914  -50.2501 C.ar      23 UNK        -0.0193 
     10 C10         4.1526  -18.3332  -51.5955 C.ar      23 UNK        -0.1150 
     11 C11         4.3043  -19.3124  -52.5828 C.ar      23 UNK        -0.0193 
     12 C12         4.2923  -20.6635  -52.2210 C.ar      23 UNK        -0.1150 
     13 C13         4.1383  -21.0375  -50.8838 C.ar      23 UNK        -0.0193 
     14 C14         3.9985  -20.0469  -49.9104 C.ar      23 UNK        -0.1150 
     15 C15         4.1710  -22.5055  -50.4809 C.3       23 UNK        -0.0205 
     16 S16         2.5740  -23.3599  -50.7100 S.3       23 UNK        -0.2404 
     17 C17         1.4605  -22.5865  -49.4833 C.3       23 UNK        -0.0398 
     18 CA          1.5079  -23.2608  -48.0854 C.3       11 UNK         0.1400 
     19 N           2.7931  -23.0048  -47.4205 N.am      11 UNK        -0.5000 
     20 C           3.3691  -23.7723  -46.4882 C.2       10 UNK         0.5000 
     21 O           2.8755  -24.8277  -46.0923 O.2       10 UNK        -0.5000 
     22 CA          4.6671  -23.2586  -45.8310 C.3       10 UNK         0.1400 
     23 CB          5.8442  -24.1703  -46.2104 C.3       10 UNK        -0.1800 
     24 N           5.0316  -21.8758  -46.1652 N.am      10 UNK        -0.5000 
     25 C           4.5014  -20.7282  -45.7126 C.2       9 UNK         0.5000 
     26 O           4.9977  -19.6447  -46.0202 O.2       9 UNK        -0.5000 
     27 CA          3.2649  -20.7449  -44.7777 C.3       9 UNK         0.1400 
     28 CB          3.6952  -20.6326  -43.3080 C.3       9 UNK        -0.1800 
     29 N           2.3087  -19.6742  -45.0676 N.am      9 UNK        -0.5000 
     30 C           1.7655  -19.4034  -46.2634 C.2       8 UNK         0.5000 
     31 O           2.0038  -20.0467  -47.2824 O.2       8 UNK        -0.5000 
     32 CA          0.7606  -18.2428  -46.3499 C.3       8 UNK         0.1400 
     33 CB         -0.6633  -18.8014  -46.4800 C.3       8 UNK        -0.1800 
     34 N           0.8000  -17.3414  -45.2033 N.am      8 UNK        -0.5000 
     35 C           1.7597  -16.4522  -44.9205 C.2       7 UNK         0.5000 
     36 O           2.7489  -16.2618  -45.6264 O.2       7 UNK        -0.5000 
     37 CA          1.5863  -15.6610  -43.6098 C.3       7 UNK         0.1400 
     38 CB          0.7741  -14.3782  -43.8412 C.3       7 UNK        -0.1800 
     39 N           0.9155  -16.4566  -42.5808 N.am      7 UNK        -0.5000 
     40 C           1.5314  -17.3176  -41.7607 C.2       6 UNK         0.5000 
     41 O           2.7454  -17.5198  -41.7687 O.2       6 UNK        -0.5000 
     42 CA          0.6405  -18.0860  -40.7644 C.3       6 UNK         0.1400 
     43 CB          0.5167  -17.3089  -39.4450 C.3       6 UNK        -0.1800 
     44 N          -0.7007  -18.3637  -41.2836 N.am      6 UNK        -0.5000 
     45 C          -0.9591  -19.2373  -42.2656 C.2       5 UNK         0.5000 
     46 O          -0.0927  -19.9037  -42.8299 O.2       5 UNK        -0.5000 
     47 CA         -2.4252  -19.3464  -42.7300 C.3       5 UNK         0.1400 
     48 CB         -3.2011  -20.3377  -41.8514 C.3       5 UNK        -0.1800 
     49 N          -3.1503  -18.0685  -42.7824 N.am      5 UNK        -0.5000 
     50 C          -2.7579  -16.9966  -43.4829 C.2       4 UNK         0.5000 
     51 O          -1.6839  -16.9349  -44.0815 O.2       4 UNK        -0.5000 
     52 CA         -3.6907  -15.7811  -43.5132 C.3       4 UNK         0.1400 
     53 CB         -3.5710  -14.9686  -42.2118 C.3       4 UNK        -0.1800 
     54 N          -3.2955  -14.9604  -44.6534 N.am      4 UNK        -0.5000 
     55 C          -4.0322  -14.0296  -45.2651 C.2       3 UNK         0.5000 
     56 O          -5.1763  -13.7289  -44.9221 O.2       3 UNK        -0.5000 
     57 CA         -3.3793  -13.3020  -46.4576 C.3       3 UNK         0.1400 
     58 CB         -2.7144  -11.9994  -45.9864 C.3       3 UNK        -0.1800 
     59 N          -2.3812  -14.1023  -47.1726 N.am      3 UNK        -0.5000 
     60 C          -2.6539  -15.1467  -47.9635 C.2       2 UNK         0.5000 
     61 O          -3.7907  -15.5732  -48.1639 O.2       2 UNK        -0.5000 
     62 CA         -1.4466  -15.7579  -48.6933 C.3       2 UNK         0.1400 
     63 CB         -1.7628  -17.1050  -49.3660 C.3       2 UNK        -0.1800 
     64 N          -1.0207  -14.8139  -49.7246 N.am      2 UNK        -0.5000 
     65 C           0.2036  -14.3745  -50.0483 C.2       1 UNK         0.5000 
     66 O           0.3431  -13.5343  -50.9378 O.2       1 UNK        -0.5000 
     67 C           0.3300  -22.8240  -47.1742 C.2       11 UNK         0.5000 
     68 O          -0.5928  -22.1455  -47.6233 O.2       11 UNK        -0.5000 
     69 N           0.3977  -23.1922  -45.8874 N.am      12 UNK        -0.5000 
     70 CA         -0.4797  -22.7112  -44.8193 C.3       12 UNK         0.1400 
     71 CB          0.1322  -23.0996  -43.4648 C.3       12 UNK        -0.1800 
     72 C          -1.9294  -23.2172  -44.9085 C.2       12 UNK         0.5000 
     73 O          -2.8215  -22.5581  -44.3733 O.2       12 UNK        -0.5000 
     74 N          -2.1238  -24.3720  -45.5636 N.am      13 UNK        -0.5000 
     75 CA         -3.3753  -25.1194  -45.7151 C.3       13 UNK         0.1400 
     76 CB         -3.1307  -26.2981  -46.6717 C.3       13 UNK        -0.1800 
     77 C          -4.5533  -24.2502  -46.1935 C.2       13 UNK         0.5000 
     78 O          -4.6484  -23.9455  -47.3843 O.2       13 UNK        -0.5000 
     79 N          -5.3916  -23.8292  -45.2348 N.am      14 UNK        -0.5000 
     80 CA         -6.5363  -22.9254  -45.3906 C.3       14 UNK         0.1400 
     81 CB         -7.6906  -23.6480  -46.1154 C.3       14 UNK        -0.1800 
     82 C          -6.1622  -21.5758  -46.0425 C.2       14 UNK         0.5000 
     83 O          -6.9365  -21.0489  -46.8417 O.2       14 UNK        -0.5000 
     84 N          -4.9638  -21.0642  -45.7155 N.am      15 UNK        -0.5000 
     85 CA         -4.3291  -19.8770  -46.2983 C.3       15 UNK         0.1400 
     86 CB         -5.0852  -18.5930  -45.8983 C.3       15 UNK        -0.1800 
     87 C          -4.1501  -20.0256  -47.8217 C.2       15 UNK         0.5000 
     88 O          -4.6746  -19.2208  -48.5913 O.2       15 UNK        -0.5000 
     89 N          -3.4532  -21.0991  -48.2202 N.am      16 UNK        -0.5000 
     90 CA         -3.2022  -21.5239  -49.6009 C.3       16 UNK         0.1400 
     91 CB         -2.2547  -20.5308  -50.2992 C.3       16 UNK        -0.1800 
     92 C          -4.5097  -21.7729  -50.3823 C.2       16 UNK         0.5000 
     93 O          -4.6574  -21.3117  -51.5167 O.2       16 UNK        -0.5000 
     94 N          -5.4480  -22.4758  -49.7293 N.am      17 UNK        -0.5000 
     95 CA         -6.8147  -22.7591  -50.1771 C.3       17 UNK         0.1400 
     96 CB         -6.7975  -23.7751  -51.3377 C.3       17 UNK        -0.1800 
     97 C          -7.6026  -21.4713  -50.4993 C.2       17 UNK         0.5000 
     98 O          -8.1550  -21.3404  -51.5915 O.2       17 UNK        -0.5000 
     99 N          -7.5993  -20.5280  -49.5458 N.am      18 UNK        -0.5000 
    100 CA        -8.1503  -19.1714  -49.6338 C.3       18 UNK         0.1400 
    101 CB        -9.6914  -19.2108  -49.6942 C.3       18 UNK        -0.1800 
    102 C         -7.5131  -18.3516  -50.7770 C.2       18 UNK         0.5000 
    103 O         -8.2204  -17.7009  -51.5490 O.2       18 UNK        -0.5000 
    104 N         -6.1778  -18.4260  -50.8632 N.am      19 UNK        -0.5000 
    105 CA        -5.3026  -17.8115  -51.8644 C.3       19 UNK         0.1400 
    106 CB        -5.2802  -16.2785  -51.6957 C.3       19 UNK        -0.1800 
    107 C         -5.5888  -18.2577  -53.3159 C.2       19 UNK         0.5000 
    108 O         -5.3409  -17.4932  -54.2511 O.2       19 UNK        -0.5000 
    109 N         -6.0929  -19.4881  -53.4907 N.am      20 UNK        -0.5000 
    110 CA        -6.2374  -20.1340  -54.7964 C.3       20 UNK         0.1400 
    111 CB        -7.2761  -21.2606  -54.7116 C.3       20 UNK        -0.1800 
    112 C         -4.8876  -20.6729  -55.3020 C.2       20 UNK         0.5000 
    113 O         -4.6154  -20.6032  -56.5016 O.2       20 UNK        -0.5000 
    114 N         -4.0601  -21.1689  -54.3740 N.am      21 UNK        -0.5000 
    115 CA        -2.6499  -21.4757  -54.5894 C.3       21 UNK         0.1400 
    116 CB        -2.2909  -22.7321  -53.7765 C.3       21 UNK        -0.1800 
    117 C         -1.7874  -20.2652  -54.1812 C.2       21 UNK         0.5000 
    118 O         -2.3050  -19.2891  -53.6320 O.2       21 UNK        -0.5000 
    119 N         -0.4818  -20.3467  -54.4650 N.am      22 UNK        -0.5000 
    120 CA         0.5098  -19.3163  -54.1152 C.3       22 UNK         0.1400 
    121 C          0.6559  -19.0907  -52.5826 C.2       22 UNK         0.5000 
    122 N          0.7643  -20.1464  -51.7871 N.am      22 UNK        -0.7600 
    123 O          0.6456  -17.9567  -52.1149 O.2       22 UNK        -0.5000 
    124 C124        1.8698  -19.6129  -54.7973 C.3       23 UNK        -0.0398 
    125 S125        3.0135  -18.1890  -54.7926 S.3       23 UNK        -0.2404 
    126 C126        4.5088  -18.9074  -54.0369 C.3       23 UNK        -0.0205 
    127 H127        1.5063  -11.1719  -46.6443 H         1 UNK         0.0600 
    128 H128        2.6592  -12.2940  -45.9127 H         1 UNK         0.0600 
    129 H129        2.9827  -11.6070  -47.5073 H         1 UNK         0.0600 
    130 H130        2.9317  -13.4087  -48.8597 H         1 UNK         0.3000 
    131 H131        1.2473  -15.6579  -48.6045 H         1 UNK         0.0600 
    132 H132        2.0865  -16.3155  -50.8121 H         1 UNK         0.0800 
    133 H133        2.7375  -14.7251  -51.0921 H         1 UNK         0.0800 
    134 H134        4.4542  -17.9411  -48.2950 H         1 UNK         0.0800 
    135 H135        2.7768  -17.7811  -48.7387 H         1 UNK         0.0800 
    136 H136        4.1550  -17.2956  -51.8933 H         1 UNK         0.1150 
    137 H137        4.4128  -21.4266  -52.9769 H         1 UNK         0.1150 
    138 H138        3.8983  -20.3328  -48.8745 H         1 UNK         0.1150 
    139 H139        4.9200  -23.0198  -51.0846 H         1 UNK         0.0800 
    140 H140        4.5071  -22.6127  -49.4500 H         1 UNK         0.0800 
    141 H141        0.4566  -22.6623  -49.9049 H         1 UNK         0.0800 
    142 H142        1.6687  -21.5204  -49.4088 H         1 UNK         0.0800 
    143 H143        1.3960  -24.3370  -48.2323 H         1 UNK         0.0600 
    144 H144        3.2054  -22.1052  -47.6235 H         1 UNK         0.3000 
    145 H145        4.5300  -23.3256  -44.7502 H         1 UNK         0.0600 
    146 H146        6.0440  -24.1441  -47.2825 H         1 UNK         0.0600 
    147 H147        6.7563  -23.8752  -45.6911 H         1 UNK         0.0600 
    148 H148        5.6424  -25.2079  -45.9400 H         1 UNK         0.0600 
    149 H149        5.8306  -21.7944  -46.7763 H         1 UNK         0.3000 
    150 H150        2.7120  -21.6727  -44.8954 H         1 UNK         0.0600 
    151 H151        4.3744  -21.4402  -43.0332 H         1 UNK         0.0600 
    152 H152        2.8355  -20.6882  -42.6393 H         1 UNK         0.0600 
    153 H153        4.2086  -19.6900  -43.1130 H         1 UNK         0.0600 
    154 H154        2.0277  -19.0993  -44.2868 H         1 UNK         0.3000 
    155 H155        0.9893  -17.6661  -47.2461 H         1 UNK         0.0600 
    156 H156       -0.7677  -19.4048  -47.3825 H         1 UNK         0.0600 
    157 H157       -1.4028  -18.0035  -46.5280 H         1 UNK         0.0600 
    158 H158       -0.9172  -19.4344  -45.6311 H         1 UNK         0.0600 
    159 H159       -0.0205  -17.3597  -44.6021 H         1 UNK         0.3000 
    160 H160        2.5777  -15.3745  -43.2525 H         1 UNK         0.0600 
    161 H161       -0.1918  -14.5837  -44.3038 H         1 UNK         0.0600 
    162 H162        1.3138  -13.6955  -44.4949 H         1 UNK         0.0600 
    163 H163        0.5925  -13.8488  -42.9058 H         1 UNK         0.0600 
    164 H164       -0.0927  -16.3977  -42.5524 H         1 UNK         0.3000 
    165 H165        1.1293  -19.0398  -40.5534 H         1 UNK         0.0600 
    166 H166       -0.0463  -17.8768  -38.7041 H         1 UNK         0.0600 
    167 H167        1.4998  -17.1053  -39.0182 H         1 UNK         0.0600 
    168 H168        0.0155  -16.3506  -39.5870 H         1 UNK         0.0600 
    169 H169       -1.4682  -17.8494  -40.8771 H         1 UNK         0.3000 
    170 H170       -2.4044  -19.7502  -43.7424 H         1 UNK         0.0600 
    171 H171       -3.3163  -19.9697  -40.8314 H         1 UNK         0.0600 
    172 H172       -4.1949  -20.5281  -42.2574 H         1 UNK         0.0600 
    173 H173       -2.6868  -21.2985  -41.7992 H         1 UNK         0.0600 
    174 H174       -4.0323  -18.0359  -42.2917 H         1 UNK         0.3000 
    175 H175       -4.7170  -16.1271  -43.6509 H         1 UNK         0.0600 
    176 H176       -3.8440  -15.5705  -41.3444 H         1 UNK         0.0600 
    177 H177       -2.5531  -14.6082  -42.0565 H         1 UNK         0.0600 
    178 H178       -4.2326  -14.1023  -42.2231 H         1 UNK         0.0600 
    179 H179       -2.3800  -15.1881  -45.0205 H         1 UNK         0.3000 
    180 H180       -4.1747  -13.0445  -47.1602 H         1 UNK         0.0600 
    181 H181       -2.3206  -11.4307  -46.8290 H         1 UNK         0.0600 
    182 H182       -1.8883  -12.1964  -45.3014 H         1 UNK         0.0600 
    183 H183       -3.4286  -11.3592  -45.4668 H         1 UNK         0.0600 
    184 H184       -1.4092  -13.8073  -47.0808 H         1 UNK         0.3000 
    185 H185       -0.6927  -15.9164  -47.9250 H         1 UNK         0.0600 
    186 H186       -2.2415  -17.7952  -48.6732 H         1 UNK         0.0600 
    187 H187       -2.4405  -16.9834  -50.2118 H         1 UNK         0.0600 
    188 H188       -0.8558  -17.5853  -49.7332 H         1 UNK         0.0600 
    189 H189       -1.7935  -14.4061  -50.2306 H         1 UNK         0.3000 
    190 H190        1.1645  -23.7964  -45.6150 H         1 UNK         0.3000 
    191 H191       -0.5121  -21.6227  -44.8793 H         1 UNK         0.0600 
    192 H192        0.2415  -24.1802  -43.3656 H         1 UNK         0.0600 
    193 H193       -0.4933  -22.7546  -42.6402 H         1 UNK         0.0600 
    194 H194        1.1139  -22.6468  -43.3295 H         1 UNK         0.0600 
    195 H195       -1.3092  -24.7989  -45.9784 H         1 UNK         0.3000 
    196 H196       -3.6284  -25.5326  -44.7368 H         1 UNK         0.0600 
    197 H197       -4.0425  -26.8788  -46.8178 H         1 UNK         0.0600 
    198 H198       -2.3743  -26.9771  -46.2777 H         1 UNK         0.0600 
    199 H199       -2.7976  -25.9581  -47.6533 H         1 UNK         0.0600 
    200 H200       -5.1820  -24.0923  -44.2817 H         1 UNK         0.3000 
    201 H201       -6.8799  -22.6836  -44.3839 H         1 UNK         0.0600 
    202 H202       -7.9821  -24.5522  -45.5813 H         1 UNK         0.0600 
    203 H203       -7.4136  -23.9368  -47.1283 H         1 UNK         0.0600 
    204 H204       -8.5759  -23.0145  -46.1822 H         1 UNK         0.0600 
    205 H205       -4.3750  -21.6091  -45.0907 H         1 UNK         0.3000 
    206 H206       -3.3284  -19.8185  -45.8729 H         1 UNK         0.0600 
    207 H207       -6.0778  -18.5467  -46.3472 H         1 UNK         0.0600 
    208 H208       -5.2063  -18.5274  -44.8178 H         1 UNK         0.0600 
    209 H209       -4.5402  -17.7057  -46.2236 H         1 UNK         0.0600 
    210 H210       -3.0695  -21.7145  -47.5167 H         1 UNK         0.3000 
    211 H211       -2.6893  -22.4846  -49.5388 H         1 UNK         0.0600 
    212 H212       -2.7379  -19.5739  -50.4914 H         1 UNK         0.0600 
    213 H213       -1.9184  -20.9199  -51.2575 H         1 UNK         0.0600 
    214 H214       -1.3654  -20.3435  -49.6980 H         1 UNK         0.0600 
    215 H215       -5.2044  -22.8433  -48.8118 H         1 UNK         0.3000 
    216 H216       -7.3289  -23.2279  -49.3387 H         1 UNK         0.0600 
    217 H217       -7.8102  -24.0294  -51.6524 H         1 UNK         0.0600 
    218 H218       -6.3091  -24.7021  -51.0376 H         1 UNK         0.0600 
    219 H219       -6.2690  -23.3890  -52.2089 H         1 UNK         0.0600 
    220 H220       -7.1426  -20.7406  -48.6608 H         1 UNK         0.3000 
    221 H221       -7.8690  -18.6708  -48.7061 H         1 UNK         0.0600 
    222 H222      -10.0505  -19.6640  -50.6186 H         1 UNK         0.0600 
    223 H223      -10.1030  -19.7787  -48.8598 H         1 UNK         0.0600 
    224 H224      -10.1092  -18.2050  -49.6395 H         1 UNK         0.0600 
    225 H225       -5.6883  -18.9438  -50.1352 H         1 UNK         0.3000 
    226 H226       -4.2998  -18.1768  -51.6410 H         1 UNK         0.0600 
    227 H227       -6.2377  -15.8287  -51.9593 H         1 UNK         0.0600 
    228 H228       -5.0492  -16.0006  -50.6672 H         1 UNK         0.0600 
    229 H229       -4.5177  -15.8255  -52.3301 H         1 UNK         0.0600 
    230 H230       -6.2532  -20.0641  -52.6731 H         1 UNK         0.3000 
    231 H231       -6.5997  -19.3981  -55.5172 H         1 UNK         0.0600 
    232 H232       -7.4242  -21.7287  -55.6855 H         1 UNK         0.0600 
    233 H233       -8.2432  -20.8807  -54.3817 H         1 UNK         0.0600 
    234 H234       -6.9674  -22.0407  -54.0163 H         1 UNK         0.0600 
    235 H235       -4.3499  -21.1301  -53.3996 H         1 UNK         0.3000 
    236 H236       -2.4648  -21.6827  -55.6454 H         1 UNK         0.0600 
    237 H237       -2.4721  -22.5950  -52.7115 H         1 UNK         0.0600 
    238 H238       -2.8838  -23.5870  -54.1018 H         1 UNK         0.0600 
    239 H239       -1.2420  -23.0029  -53.9003 H         1 UNK         0.0600 
    240 H240       -0.1272  -21.1780  -54.9139 H         1 UNK         0.3000 
    241 H241        0.1353  -18.3799  -54.5340 H         1 UNK         0.0600 
    242 H242        0.8742  -19.9874  -50.8010 H         1 UNK         0.3800 
    243 H243        0.7881  -21.0805  -52.1594 H         1 UNK         0.3800 
    244 H244        1.7056  -19.8750  -55.8434 H         1 UNK         0.0800 
    245 H245        2.3429  -20.4857  -54.3459 H         1 UNK         0.0800 
    246 H246        4.8381  -19.7588  -54.6347 H         1 UNK         0.0800 
    247 H247        5.3135  -18.1728  -54.0886 H         1 UNK         0.0800 
@<TRIPOS>BOND
     1    1    2 1    
     2    1  127 1    
     3    1  128 1    
     4    1  129 1    
     5    2    3 2    
     6    2    4 am   BACKBONE|DICT|INTERRES
     7    4    5 1    
     8    4  130 1    
     9    5    6 1    
    10    5   65 1    
    11    5  131 1    
    12    6    7 1    
    13    6  132 1    
    14    6  133 1    
    15    7    8 1    
    16    8    9 1    
    17    8  134 1    
    18    8  135 1    
    19    9   10 ar   
    20    9   14 ar   
    21   10   11 ar   
    22   10  136 1    
    23   11   12 ar   
    24   11  126 1    
    25   12   13 ar   
    26   12  137 1    
    27   13   14 ar   
    28   13   15 1    
    29   14  138 1    
    30   15   16 1    
    31   15  139 1    
    32   15  140 1    
    33   16   17 1    
    34   17   18 1    
    35   17  141 1    
    36   17  142 1    
    37   18   19 1    
    38   18   67 1    
    39   18  143 1    
    40   19   20 am   BACKBONE|DICT|INTERRES
    41   19  144 1    
    42   20   21 2    
    43   20   22 1    
    44   22   23 1    
    45   22   24 1    
    46   22  145 1    
    47   23  146 1    
    48   23  147 1    
    49   23  148 1    
    50   24   25 am   BACKBONE|DICT|INTERRES
    51   24  149 1    
    52   25   26 2    
    53   25   27 1    
    54   27   28 1    
    55   27   29 1    
    56   27  150 1    
    57   28  151 1    
    58   28  152 1    
    59   28  153 1    
    60   29   30 am   BACKBONE|DICT|INTERRES
    61   29  154 1    
    62   30   31 2    
    63   30   32 1    
    64   32   33 1    
    65   32   34 1    
    66   32  155 1    
    67   33  156 1    
    68   33  157 1    
    69   33  158 1    
    70   34   35 am   BACKBONE|DICT|INTERRES
    71   34  159 1    
    72   35   36 2    
    73   35   37 1    
    74   37   38 1    
    75   37   39 1    
    76   37  160 1    
    77   38  161 1    
    78   38  162 1    
    79   38  163 1    
    80   39   40 am   BACKBONE|DICT|INTERRES
    81   39  164 1    
    82   40   41 2    
    83   40   42 1    
    84   42   43 1    
    85   42   44 1    
    86   42  165 1    
    87   43  166 1    
    88   43  167 1    
    89   43  168 1    
    90   44   45 am   BACKBONE|DICT|INTERRES
    91   44  169 1    
    92   45   46 2    
    93   45   47 1    
    94   47   48 1    
    95   47   49 1    
    96   47  170 1    
    97   48  171 1    
    98   48  172 1    
    99   48  173 1    
   100   49   50 am   BACKBONE|DICT|INTERRES
   101   49  174 1    
   102   50   51 2    
   103   50   52 1    
   104   52   53 1    
   105   52   54 1    
   106   52  175 1    
   107   53  176 1    
   108   53  177 1    
   109   53  178 1    
   110   54   55 am   BACKBONE|DICT|INTERRES
   111   54  179 1    
   112   55   56 2    
   113   55   57 1    
   114   57   58 1    
   115   57   59 1    
   116   57  180 1    
   117   58  181 1    
   118   58  182 1    
   119   58  183 1    
   120   59   60 am   BACKBONE|DICT|INTERRES
   121   59  184 1    
   122   60   61 2    
   123   60   62 1    
   124   62   63 1    
   125   62   64 1    
   126   62  185 1    
   127   63  186 1    
   128   63  187 1    
   129   63  188 1    
   130   64   65 am   BACKBONE|DICT|INTERRES
   131   64  189 1    
   132   65   66 2    
   133   67   68 2    
   134   67   69 am   BACKBONE|DICT|INTERRES
   135   69   70 1    
   136   69  190 1    
   137   70   71 1    
   138   70   72 1    
   139   70  191 1    
   140   71  192 1    
   141   71  193 1    
   142   71  194 1    
   143   72   73 2    
   144   72   74 am   BACKBONE|DICT|INTERRES
   145   74   75 1    
   146   74  195 1    
   147   75   76 1    
   148   75   77 1    
   149   75  196 1    
   150   76  197 1    
   151   76  198 1    
   152   76  199 1    
   153   77   78 2    
   154   77   79 am   BACKBONE|DICT|INTERRES
   155   79   80 1    
   156   79  200 1    
   157   80   81 1    
   158   80   82 1    
   159   80  201 1    
   160   81  202 1    
   161   81  203 1    
   162   81  204 1    
   163   82   83 2    
   164   82   84 am   BACKBONE|DICT|INTERRES
   165   84   85 1    
   166   84  205 1    
   167   85   86 1    
   168   85   87 1    
   169   85  206 1    
   170   86  207 1    
   171   86  208 1    
   172   86  209 1    
   173   87   88 2    
   174   87   89 am   BACKBONE|DICT|INTERRES
   175   89   90 1    
   176   89  210 1    
   177   90   91 1    
   178   90   92 1    
   179   90  211 1    
   180   91  212 1    
   181   91  213 1    
   182   91  214 1    
   183   92   93 2    
   184   92   94 am   BACKBONE|DICT|INTERRES
   185   94   95 1    
   186   94  215 1    
   187   95   96 1    
   188   95   97 1    
   189   95  216 1    
   190   96  217 1    
   191   96  218 1    
   192   96  219 1    
   193   97   98 2    
   194   97   99 am   BACKBONE|DICT|INTERRES
   195   99  100 1    
   196   99  220 1    
   197  100  101 1    
   198  100  102 1    
   199  100  221 1    
   200  101  222 1    
   201  101  223 1    
   202  101  224 1    
   203  102  103 2    
   204  102  104 am   BACKBONE|DICT|INTERRES
   205  104  105 1    
   206  104  225 1    
   207  105  106 1    
   208  105  107 1    
   209  105  226 1    
   210  106  227 1    
   211  106  228 1    
   212  106  229 1    
   213  107  108 2    
   214  107  109 am   BACKBONE|DICT|INTERRES
   215  109  110 1    
   216  109  230 1    
   217  110  111 1    
   218  110  112 1    
   219  110  231 1    
   220  111  232 1    
   221  111  233 1    
   222  111  234 1    
   223  112  113 2    
   224  112  114 am   BACKBONE|DICT|INTERRES
   225  114  115 1    
   226  114  235 1    
   227  115  116 1    
   228  115  117 1    
   229  115  236 1    
   230  116  237 1    
   231  116  238 1    
   232  116  239 1    
   233  117  118 2    
   234  117  119 am   BACKBONE|DICT|INTERRES
   235  119  120 1    
   236  119  240 1    
   237  120  121 1    
   238  120  124 1    
   239  120  241 1    
   240  121  122 am   BACKBONE|DICT|INTERRES
   241  121  123 2    
   242  122  242 1    
   243  122  243 1    
   244  124  125 1    
   245  124  244 1    
   246  124  245 1    
   247  125  126 1    
   248  126  246 1    
   249  126  247 1    
@<TRIPOS>SUBSTRUCTURE
     1 UNK         1 GROUP             0       ****    0 ROOT    
