@<TRIPOS>MOLECULE
3R540
247   249    1
SMALL
USER_CHARGES


@<TRIPOS>ATOM
      1 CA          3.3663  -10.8064  -48.9016 C.3       0 UNK        -0.1800 
      2 C           3.6584  -12.2402  -48.4839 C.2       0 UNK         0.5000 
      3 O           4.5642  -12.4754  -47.6848 O.2       0 UNK        -0.5000 
      4 N           2.8855  -13.2012  -49.0061 N.am      1 UNK        -0.5000 
      5 CA          3.0205  -14.6374  -48.7232 C.3       1 UNK         0.1400 
      6 C6          2.3449  -15.5106  -49.8121 C.3       23 UNK        -0.0398 
      7 S7          0.5569  -15.1994  -50.0316 S.3       23 UNK        -0.2404 
      8 C8         -0.1403  -16.7387  -49.3603 C.3       23 UNK        -0.0205 
      9 C9         -1.6533  -16.6575  -49.2528 C.ar      23 UNK        -0.0193 
     10 C10        -2.4768  -17.2466  -50.2159 C.ar      23 UNK        -0.1150 
     11 C11        -3.8702  -17.1759  -50.1036 C.ar      23 UNK        -0.0193 
     12 C12        -4.4338  -16.5275  -48.9991 C.ar      23 UNK        -0.1150 
     13 C13        -3.6177  -15.9522  -48.0201 C.ar      23 UNK        -0.0193 
     14 C14        -2.2308  -16.0036  -48.1653 C.ar      23 UNK        -0.1150 
     15 C15        -4.2242  -15.3087  -46.7835 C.3       23 UNK        -0.0205 
     16 S16        -4.7146  -16.5567  -45.5485 S.3       23 UNK        -0.2404 
     17 C17        -3.1260  -17.3663  -45.1382 C.3       23 UNK        -0.0398 
     18 CA         -2.8847  -18.6731  -45.9385 C.3       11 UNK         0.1400 
     19 N          -1.4816  -19.0986  -45.9088 N.am      11 UNK        -0.5000 
     20 C          -0.9148  -19.9020  -46.8225 C.2       10 UNK         0.5000 
     21 O          -1.4900  -20.2917  -47.8359 O.2       10 UNK        -0.5000 
     22 CA          0.5218  -20.3903  -46.5594 C.3       10 UNK         0.1400 
     23 CB          1.5322  -19.4764  -47.2650 C.3       10 UNK        -0.1800 
     24 N           0.8470  -20.4765  -45.1360 N.am      10 UNK        -0.5000 
     25 C           0.3046  -21.3639  -44.2876 C.2       9 UNK         0.5000 
     26 O          -0.4751  -22.2466  -44.6439 O.2       9 UNK        -0.5000 
     27 CA          0.6237  -21.1977  -42.7848 C.3       9 UNK         0.1400 
     28 CB          1.8443  -22.0444  -42.3975 C.3       9 UNK        -0.1800 
     29 N           0.8647  -19.8066  -42.3952 N.am      9 UNK        -0.5000 
     30 C           0.0079  -18.7949  -42.5891 C.2       8 UNK         0.5000 
     31 O          -1.1536  -18.9603  -42.9647 O.2       8 UNK        -0.5000 
     32 CA          0.5471  -17.3583  -42.4369 C.3       8 UNK         0.1400 
     33 CB         -0.0434  -16.6817  -41.1924 C.3       8 UNK        -0.1800 
     34 N           2.0087  -17.2198  -42.4196 N.am      8 UNK        -0.5000 
     35 C           2.8685  -17.6302  -43.3653 C.2       7 UNK         0.5000 
     36 O           2.5268  -18.2523  -44.3691 O.2       7 UNK        -0.5000 
     37 CA          4.3610  -17.3346  -43.1314 C.3       7 UNK         0.1400 
     38 CB          4.7740  -16.0151  -43.8023 C.3       7 UNK        -0.1800 
     39 N           4.6929  -17.2711  -41.7083 N.am      7 UNK        -0.5000 
     40 C           4.9014  -18.3384  -40.9250 C.2       6 UNK         0.5000 
     41 O           4.8602  -19.5010  -41.3280 O.2       6 UNK        -0.5000 
     42 CA          5.1945  -18.0565  -39.4383 C.3       6 UNK         0.1400 
     43 CB          6.7011  -17.8542  -39.2159 C.3       6 UNK        -0.1800 
     44 N           4.4740  -16.8841  -38.9378 N.am      6 UNK        -0.5000 
     45 C           3.1548  -16.8540  -38.7032 C.2       5 UNK         0.5000 
     46 O           2.4221  -17.8373  -38.8077 O.2       5 UNK        -0.5000 
     47 CA          2.5442  -15.4911  -38.3177 C.3       5 UNK         0.1400 
     48 CB          2.4861  -15.3423  -36.7900 C.3       5 UNK        -0.1800 
     49 N           3.2438  -14.3329  -38.8877 N.am      5 UNK        -0.5000 
     50 C           3.3816  -14.0875  -40.1968 C.2       4 UNK         0.5000 
     51 O           2.9823  -14.8498  -41.0804 O.2       4 UNK        -0.5000 
     52 CA          4.1314  -12.8068  -40.5834 C.3       4 UNK         0.1400 
     53 CB          5.6495  -12.9904  -40.4163 C.3       4 UNK        -0.1800 
     54 N           3.8367  -12.4941  -41.9776 N.am      4 UNK        -0.5000 
     55 C           3.7037  -11.2687  -42.4949 C.2       3 UNK         0.5000 
     56 O           3.8565  -10.2367  -41.8394 O.2       3 UNK        -0.5000 
     57 CA          3.3542  -11.1606  -43.9955 C.3       3 UNK         0.1400 
     58 CB          4.5570  -10.6205  -44.7854 C.3       3 UNK        -0.1800 
     59 N           2.9094  -12.4144  -44.6162 N.am      3 UNK        -0.5000 
     60 C           1.7255  -13.0049  -44.3972 C.2       2 UNK         0.5000 
     61 O           0.8811  -12.5592  -43.6199 O.2       2 UNK        -0.5000 
     62 CA          1.4453  -14.2889  -45.2000 C.3       2 UNK         0.1400 
     63 CB         -0.0355  -14.7058  -45.1945 C.3       2 UNK        -0.1800 
     64 N           1.8993  -14.1287  -46.5802 N.am      2 UNK        -0.5000 
     65 C           2.5775  -15.0358  -47.2950 C.2       1 UNK         0.5000 
     66 O           2.8717  -16.1514  -46.8717 O.2       1 UNK        -0.5000 
     67 C          -3.8063  -19.8160  -45.4718 C.2       11 UNK         0.5000 
     68 O          -4.8524  -20.0337  -46.0817 O.2       11 UNK        -0.5000 
     69 N          -3.3799  -20.5656  -44.4431 N.am      12 UNK        -0.5000 
     70 CA         -4.0782  -21.7546  -43.9431 C.3       12 UNK         0.1400 
     71 CB         -3.4142  -22.2377  -42.6450 C.3       12 UNK        -0.1800 
     72 C          -4.1452  -22.8867  -44.9885 C.2       12 UNK         0.5000 
     73 O          -5.1919  -23.5172  -45.1392 O.2       12 UNK        -0.5000 
     74 N          -3.0426  -23.0866  -45.7234 N.am      13 UNK        -0.5000 
     75 CA         -2.9502  -23.9941  -46.8703 C.3       13 UNK         0.1400 
     76 CB         -1.4699  -24.3352  -47.1029 C.3       13 UNK        -0.1800 
     77 C          -3.5646  -23.4151  -48.1625 C.2       13 UNK         0.5000 
     78 O          -3.7158  -24.1564  -49.1345 O.2       13 UNK        -0.5000 
     79 N          -3.8552  -22.1053  -48.1615 N.am      14 UNK        -0.5000 
     80 CA         -4.3517  -21.2643  -49.2566 C.3       14 UNK         0.1400 
     81 CB         -5.8441  -21.5411  -49.5157 C.3       14 UNK        -0.1800 
     82 C          -3.4966  -21.3563  -50.5363 C.2       14 UNK         0.5000 
     83 O          -4.0450  -21.3866  -51.6371 O.2       14 UNK        -0.5000 
     84 N          -2.1678  -21.4196  -50.3611 N.am      15 UNK        -0.5000 
     85 CA         -1.1435  -21.6127  -51.3952 C.3       15 UNK         0.1400 
     86 CB         -0.9129  -20.3002  -52.1672 C.3       15 UNK        -0.1800 
     87 C          -1.4488  -22.8094  -52.3235 C.2       15 UNK         0.5000 
     88 O          -1.3758  -22.6759  -53.5452 O.2       15 UNK        -0.5000 
     89 N          -1.8167  -23.9384  -51.6999 N.am      16 UNK        -0.5000 
     90 CA         -2.3726  -25.1558  -52.2915 C.3       16 UNK         0.1400 
     91 CB         -1.4928  -25.7266  -53.4245 C.3       16 UNK        -0.1800 
     92 C          -3.8368  -24.9299  -52.7090 C.2       16 UNK         0.5000 
     93 O          -4.1279  -24.6692  -53.8804 O.2       16 UNK        -0.5000 
     94 N          -4.7316  -25.0245  -51.7155 N.am      17 UNK        -0.5000 
     95 CA         -6.1904  -24.9861  -51.8396 C.3       17 UNK         0.1400 
     96 CB         -6.8141  -25.3488  -50.4816 C.3       17 UNK        -0.1800 
     97 C          -6.7227  -25.9454  -52.9211 C.2       17 UNK         0.5000 
     98 O          -6.2412  -27.0763  -53.0252 O.2       17 UNK        -0.5000 
     99 N          -7.6878  -25.4629  -53.7141 N.am      18 UNK        -0.5000 
    100 CA        -8.3290  -26.0943  -54.8780 C.3       18 UNK         0.1400 
    101 CB        -9.0522  -27.3974  -54.4874 C.3       18 UNK        -0.1800 
    102 C         -7.4001  -26.3152  -56.0919 C.2       18 UNK         0.5000 
    103 O         -7.8406  -26.1160  -57.2245 O.2       18 UNK        -0.5000 
    104 N         -6.1437  -26.7088  -55.8489 N.am      19 UNK        -0.5000 
    105 CA        -5.1087  -26.9271  -56.8590 C.3       19 UNK         0.1400 
    106 CB        -3.9142  -27.6429  -56.2109 C.3       19 UNK        -0.1800 
    107 C         -4.6589  -25.6214  -57.5385 C.2       19 UNK         0.5000 
    108 O         -4.4920  -25.5997  -58.7590 O.2       19 UNK        -0.5000 
    109 N         -4.4918  -24.5614  -56.7396 N.am      20 UNK        -0.5000 
    110 CA        -4.1541  -23.2144  -57.1941 C.3       20 UNK         0.1400 
    111 CB        -2.6559  -22.9522  -56.9801 C.3       20 UNK        -0.1800 
    112 C         -5.0118  -22.1629  -56.4766 C.2       20 UNK         0.5000 
    113 O         -5.4921  -21.2349  -57.1298 O.2       20 UNK        -0.5000 
    114 N         -5.2003  -22.3249  -55.1559 N.am      21 UNK        -0.5000 
    115 CA        -6.0564  -21.5099  -54.2794 C.3       21 UNK         0.1400 
    116 CB        -7.5397  -21.7815  -54.6076 C.3       21 UNK        -0.1800 
    117 C         -5.7262  -19.9965  -54.2914 C.2       21 UNK         0.5000 
    118 O         -6.6323  -19.1795  -54.1233 O.2       21 UNK        -0.5000 
    119 N         -4.4522  -19.6645  -54.5520 N.am      22 UNK        -0.5000 
    120 CA        -3.9175  -18.3315  -54.8964 C.3       22 UNK         0.1400 
    121 C         -4.6210  -17.5877  -56.0763 C.2       22 UNK         0.5000 
    122 N         -5.2939  -18.2843  -56.9858 N.am      22 UNK        -0.7600 
    123 O         -4.5204  -16.3702  -56.2045 O.2       22 UNK        -0.5000 
    124 C124       -3.5606  -17.4351  -53.6729 C.3       23 UNK        -0.0398 
    125 S125       -4.9485  -16.8208  -52.6528 S.3       23 UNK        -0.2404 
    126 C126       -4.7714  -17.8279  -51.1462 C.3       23 UNK        -0.0205 
    127 H127        3.0384  -10.2239  -48.0407 H         1 UNK         0.0600 
    128 H128        2.5875  -10.7572  -49.6630 H         1 UNK         0.0600 
    129 H129        4.2662  -10.3429  -49.3059 H         1 UNK         0.0600 
    130 H130        2.1447  -12.9555  -49.6486 H         1 UNK         0.3000 
    131 H131        4.0877  -14.8663  -48.7660 H         1 UNK         0.0600 
    132 H132        2.8281  -15.3198  -50.7713 H         1 UNK         0.0800 
    133 H133        2.5171  -16.5701  -49.6132 H         1 UNK         0.0800 
    134 H134        0.1550  -17.5798  -49.9891 H         1 UNK         0.0800 
    135 H135        0.2800  -16.9263  -48.3714 H         1 UNK         0.0800 
    136 H136       -2.0273  -17.7586  -51.0504 H         1 UNK         0.1150 
    137 H137       -5.5083  -16.4876  -48.8877 H         1 UNK         0.1150 
    138 H138       -1.5948  -15.5516  -47.4205 H         1 UNK         0.1150 
    139 H139       -3.5248  -14.6041  -46.3305 H         1 UNK         0.0800 
    140 H140       -5.1020  -14.7271  -47.0687 H         1 UNK         0.0800 
    141 H141       -3.1050  -17.5557  -44.0640 H         1 UNK         0.0800 
    142 H142       -2.3209  -16.6571  -45.3241 H         1 UNK         0.0800 
    143 H143       -3.1361  -18.4764  -46.9822 H         1 UNK         0.0600 
    144 H144       -0.9673  -18.8812  -45.0657 H         1 UNK         0.3000 
    145 H145        0.6140  -21.3903  -46.9878 H         1 UNK         0.0600 
    146 H146        2.5528  -19.8336  -47.1275 H         1 UNK         0.0600 
    147 H147        1.3420  -19.4351  -48.3382 H         1 UNK         0.0600 
    148 H148        1.4820  -18.4573  -46.8815 H         1 UNK         0.0600 
    149 H149        1.4761  -19.7615  -44.7762 H         1 UNK         0.3000 
    150 H150       -0.2390  -21.5556  -42.2203 H         1 UNK         0.0600 
    151 H151        1.6916  -23.0926  -42.6580 H         1 UNK         0.0600 
    152 H152        2.0305  -22.0003  -41.3242 H         1 UNK         0.0600 
    153 H153        2.7467  -21.7055  -42.9083 H         1 UNK         0.0600 
    154 H154        1.8015  -19.5775  -42.0962 H         1 UNK         0.3000 
    155 H155        0.1948  -16.8147  -43.3125 H         1 UNK         0.0600 
    156 H156       -1.1338  -16.6985  -41.2181 H         1 UNK         0.0600 
    157 H157        0.2620  -15.6370  -41.1271 H         1 UNK         0.0600 
    158 H158        0.2694  -17.1842  -40.2775 H         1 UNK         0.0600 
    159 H159        2.3869  -16.6539  -41.6677 H         1 UNK         0.3000 
    160 H160        4.9358  -18.1407  -43.5925 H         1 UNK         0.0600 
    161 H161        4.2012  -15.1687  -43.4259 H         1 UNK         0.0600 
    162 H162        4.6188  -16.0636  -44.8798 H         1 UNK         0.0600 
    163 H163        5.8307  -15.8033  -43.6391 H         1 UNK         0.0600 
    164 H164        4.6796  -16.3544  -41.2851 H         1 UNK         0.3000 
    165 H165        4.8794  -18.9304  -38.8639 H         1 UNK         0.0600 
    166 H166        6.9288  -17.7199  -38.1583 H         1 UNK         0.0600 
    167 H167        7.2661  -18.7210  -39.5614 H         1 UNK         0.0600 
    168 H168        7.0756  -16.9824  -39.7540 H         1 UNK         0.0600 
    169 H169        5.0068  -16.0369  -38.8079 H         1 UNK         0.3000 
    170 H170        1.5212  -15.4762  -38.6992 H         1 UNK         0.0600 
    171 H171        1.9488  -16.1761  -36.3360 H         1 UNK         0.0600 
    172 H172        3.4838  -15.3160  -36.3500 H         1 UNK         0.0600 
    173 H173        1.9665  -14.4283  -36.5016 H         1 UNK         0.0600 
    174 H174        3.6143  -13.6665  -38.2251 H         1 UNK         0.3000 
    175 H175        3.7821  -12.0004  -39.9350 H         1 UNK         0.0600 
    176 H176        6.0276  -13.8016  -41.0401 H         1 UNK         0.0600 
    177 H177        6.1870  -12.0822  -40.6897 H         1 UNK         0.0600 
    178 H178        5.9094  -13.2198  -39.3822 H         1 UNK         0.0600 
    179 H179        3.6129  -13.2960  -42.5498 H         1 UNK         0.3000 
    180 H180        2.5427  -10.4348  -44.0803 H         1 UNK         0.0600 
    181 H181        5.3865  -11.3288  -44.7885 H         1 UNK         0.0600 
    182 H182        4.9237   -9.6863  -44.3580 H         1 UNK         0.0600 
    183 H183        4.2878  -10.4139  -45.8207 H         1 UNK         0.0600 
    184 H184        3.5423  -12.8296  -45.2868 H         1 UNK         0.3000 
    185 H185        2.0173  -15.0766  -44.7080 H         1 UNK         0.0600 
    186 H186       -0.4361  -14.7562  -44.1817 H         1 UNK         0.0600 
    187 H187       -0.6522  -14.0027  -45.7550 H         1 UNK         0.0600 
    188 H188       -0.1510  -15.6938  -45.6391 H         1 UNK         0.0600 
    189 H189        1.7127  -13.2324  -47.0075 H         1 UNK         0.3000 
    190 H190       -2.5223  -20.3028  -43.9727 H         1 UNK         0.3000 
    191 H191       -5.1030  -21.4598  -43.7076 H         1 UNK         0.0600 
    192 H192       -2.3971  -22.5891  -42.8155 H         1 UNK         0.0600 
    193 H193       -3.3749  -21.4426  -41.9001 H         1 UNK         0.0600 
    194 H194       -3.9746  -23.0654  -42.2087 H         1 UNK         0.0600 
    195 H195       -2.1931  -22.5893  -45.4697 H         1 UNK         0.3000 
    196 H196       -3.4838  -24.9174  -46.6360 H         1 UNK         0.0600 
    197 H197       -1.3536  -25.0500  -47.9186 H         1 UNK         0.0600 
    198 H198       -1.0240  -24.7819  -46.2140 H         1 UNK         0.0600 
    199 H199       -0.8895  -23.4474  -47.3572 H         1 UNK         0.0600 
    200 H200       -3.6789  -21.6039  -47.3025 H         1 UNK         0.3000 
    201 H201       -4.2631  -20.2338  -48.9092 H         1 UNK         0.0600 
    202 H202       -6.2637  -20.8051  -50.2026 H         1 UNK         0.0600 
    203 H203       -6.4219  -21.4923  -48.5928 H         1 UNK         0.0600 
    204 H204       -5.9945  -22.5227  -49.9598 H         1 UNK         0.0600 
    205 H205       -1.8268  -21.2875  -49.4119 H         1 UNK         0.3000 
    206 H206       -0.2170  -21.8567  -50.8738 H         1 UNK         0.0600 
    207 H207       -0.6228  -19.4967  -51.4921 H         1 UNK         0.0600 
    208 H208       -0.1112  -20.4090  -52.8984 H         1 UNK         0.0600 
    209 H209       -1.8092  -19.9941  -52.7053 H         1 UNK         0.0600 
    210 H210       -1.9071  -23.8886  -50.6939 H         1 UNK         0.3000 
    211 H211       -2.3750  -25.8991  -51.4925 H         1 UNK         0.0600 
    212 H212       -0.4502  -25.8011  -53.1160 H         1 UNK         0.0600 
    213 H213       -1.8227  -26.7299  -53.6939 H         1 UNK         0.0600 
    214 H214       -1.5330  -25.1218  -54.3307 H         1 UNK         0.0600 
    215 H215       -4.3786  -25.1127  -50.7684 H         1 UNK         0.3000 
    216 H216       -6.4671  -23.9621  -52.0954 H         1 UNK         0.0600 
    217 H217       -7.8990  -25.2402  -50.5087 H         1 UNK         0.0600 
    218 H218       -6.5949  -26.3812  -50.2054 H         1 UNK         0.0600 
    219 H219       -6.4438  -24.7126  -49.6791 H         1 UNK         0.0600 
    220 H220       -8.0054  -24.5219  -53.5322 H         1 UNK         0.3000 
    221 H221       -9.0936  -25.3872  -55.2039 H         1 UNK         0.0600 
    222 H222       -8.3550  -28.1774  -54.1806 H         1 UNK         0.0600 
    223 H223       -9.7513  -27.2302  -53.6680 H         1 UNK         0.0600 
    224 H224       -9.6252  -27.7891  -55.3287 H         1 UNK         0.0600 
    225 H225       -5.8872  -26.8716  -54.8793 H         1 UNK         0.3000 
    226 H226       -5.5210  -27.5811  -57.6302 H         1 UNK         0.0600 
    227 H227       -4.2097  -28.6064  -55.7955 H         1 UNK         0.0600 
    228 H228       -3.1260  -27.8299  -56.9412 H         1 UNK         0.0600 
    229 H229       -3.4828  -27.0491  -55.4051 H         1 UNK         0.0600 
    230 H230       -4.6071  -24.6857  -55.7378 H         1 UNK         0.3000 
    231 H231       -4.3684  -23.1164  -58.2605 H         1 UNK         0.0600 
    232 H232       -2.3887  -21.9345  -57.2672 H         1 UNK         0.0600 
    233 H233       -2.0495  -23.6312  -57.5795 H         1 UNK         0.0600 
    234 H234       -2.3729  -23.0877  -55.9366 H         1 UNK         0.0600 
    235 H235       -4.7180  -23.0908  -54.6912 H         1 UNK         0.3000 
    236 H236       -5.8824  -21.8631  -53.2648 H         1 UNK         0.0600 
    237 H237       -7.7498  -22.8484  -54.6500 H         1 UNK         0.0600 
    238 H238       -8.1946  -21.3497  -53.8500 H         1 UNK         0.0600 
    239 H239       -7.8229  -21.3516  -55.5691 H         1 UNK         0.0600 
    240 H240       -3.8006  -20.4291  -54.6530 H         1 UNK         0.3000 
    241 H241       -2.9508  -18.5749  -55.3387 H         1 UNK         0.0600 
    242 H242       -5.7329  -17.7991  -57.7518 H         1 UNK         0.3800 
    243 H243       -5.3737  -19.2953  -56.9239 H         1 UNK         0.3800 
    244 H244       -2.8678  -17.9829  -53.0408 H         1 UNK         0.0800 
    245 H245       -2.9961  -16.5636  -54.0078 H         1 UNK         0.0800 
    246 H246       -5.7642  -18.0002  -50.7282 H         1 UNK         0.0800 
    247 H247       -4.3877  -18.8096  -51.4140 H         1 UNK         0.0800 
@<TRIPOS>BOND
     1    1    2 1    
     2    1  127 1    
     3    1  128 1    
     4    1  129 1    
     5    2    3 2    
     6    2    4 am   BACKBONE|DICT|INTERRES
     7    4    5 1    
     8    4  130 1    
     9    5    6 1    
    10    5   65 1    
    11    5  131 1    
    12    6    7 1    
    13    6  132 1    
    14    6  133 1    
    15    7    8 1    
    16    8    9 1    
    17    8  134 1    
    18    8  135 1    
    19    9   10 ar   
    20    9   14 ar   
    21   10   11 ar   
    22   10  136 1    
    23   11   12 ar   
    24   11  126 1    
    25   12   13 ar   
    26   12  137 1    
    27   13   14 ar   
    28   13   15 1    
    29   14  138 1    
    30   15   16 1    
    31   15  139 1    
    32   15  140 1    
    33   16   17 1    
    34   17   18 1    
    35   17  141 1    
    36   17  142 1    
    37   18   19 1    
    38   18   67 1    
    39   18  143 1    
    40   19   20 am   BACKBONE|DICT|INTERRES
    41   19  144 1    
    42   20   21 2    
    43   20   22 1    
    44   22   23 1    
    45   22   24 1    
    46   22  145 1    
    47   23  146 1    
    48   23  147 1    
    49   23  148 1    
    50   24   25 am   BACKBONE|DICT|INTERRES
    51   24  149 1    
    52   25   26 2    
    53   25   27 1    
    54   27   28 1    
    55   27   29 1    
    56   27  150 1    
    57   28  151 1    
    58   28  152 1    
    59   28  153 1    
    60   29   30 am   BACKBONE|DICT|INTERRES
    61   29  154 1    
    62   30   31 2    
    63   30   32 1    
    64   32   33 1    
    65   32   34 1    
    66   32  155 1    
    67   33  156 1    
    68   33  157 1    
    69   33  158 1    
    70   34   35 am   BACKBONE|DICT|INTERRES
    71   34  159 1    
    72   35   36 2    
    73   35   37 1    
    74   37   38 1    
    75   37   39 1    
    76   37  160 1    
    77   38  161 1    
    78   38  162 1    
    79   38  163 1    
    80   39   40 am   BACKBONE|DICT|INTERRES
    81   39  164 1    
    82   40   41 2    
    83   40   42 1    
    84   42   43 1    
    85   42   44 1    
    86   42  165 1    
    87   43  166 1    
    88   43  167 1    
    89   43  168 1    
    90   44   45 am   BACKBONE|DICT|INTERRES
    91   44  169 1    
    92   45   46 2    
    93   45   47 1    
    94   47   48 1    
    95   47   49 1    
    96   47  170 1    
    97   48  171 1    
    98   48  172 1    
    99   48  173 1    
   100   49   50 am   BACKBONE|DICT|INTERRES
   101   49  174 1    
   102   50   51 2    
   103   50   52 1    
   104   52   53 1    
   105   52   54 1    
   106   52  175 1    
   107   53  176 1    
   108   53  177 1    
   109   53  178 1    
   110   54   55 am   BACKBONE|DICT|INTERRES
   111   54  179 1    
   112   55   56 2    
   113   55   57 1    
   114   57   58 1    
   115   57   59 1    
   116   57  180 1    
   117   58  181 1    
   118   58  182 1    
   119   58  183 1    
   120   59   60 am   BACKBONE|DICT|INTERRES
   121   59  184 1    
   122   60   61 2    
   123   60   62 1    
   124   62   63 1    
   125   62   64 1    
   126   62  185 1    
   127   63  186 1    
   128   63  187 1    
   129   63  188 1    
   130   64   65 am   BACKBONE|DICT|INTERRES
   131   64  189 1    
   132   65   66 2    
   133   67   68 2    
   134   67   69 am   BACKBONE|DICT|INTERRES
   135   69   70 1    
   136   69  190 1    
   137   70   71 1    
   138   70   72 1    
   139   70  191 1    
   140   71  192 1    
   141   71  193 1    
   142   71  194 1    
   143   72   73 2    
   144   72   74 am   BACKBONE|DICT|INTERRES
   145   74   75 1    
   146   74  195 1    
   147   75   76 1    
   148   75   77 1    
   149   75  196 1    
   150   76  197 1    
   151   76  198 1    
   152   76  199 1    
   153   77   78 2    
   154   77   79 am   BACKBONE|DICT|INTERRES
   155   79   80 1    
   156   79  200 1    
   157   80   81 1    
   158   80   82 1    
   159   80  201 1    
   160   81  202 1    
   161   81  203 1    
   162   81  204 1    
   163   82   83 2    
   164   82   84 am   BACKBONE|DICT|INTERRES
   165   84   85 1    
   166   84  205 1    
   167   85   86 1    
   168   85   87 1    
   169   85  206 1    
   170   86  207 1    
   171   86  208 1    
   172   86  209 1    
   173   87   88 2    
   174   87   89 am   BACKBONE|DICT|INTERRES
   175   89   90 1    
   176   89  210 1    
   177   90   91 1    
   178   90   92 1    
   179   90  211 1    
   180   91  212 1    
   181   91  213 1    
   182   91  214 1    
   183   92   93 2    
   184   92   94 am   BACKBONE|DICT|INTERRES
   185   94   95 1    
   186   94  215 1    
   187   95   96 1    
   188   95   97 1    
   189   95  216 1    
   190   96  217 1    
   191   96  218 1    
   192   96  219 1    
   193   97   98 2    
   194   97   99 am   BACKBONE|DICT|INTERRES
   195   99  100 1    
   196   99  220 1    
   197  100  101 1    
   198  100  102 1    
   199  100  221 1    
   200  101  222 1    
   201  101  223 1    
   202  101  224 1    
   203  102  103 2    
   204  102  104 am   BACKBONE|DICT|INTERRES
   205  104  105 1    
   206  104  225 1    
   207  105  106 1    
   208  105  107 1    
   209  105  226 1    
   210  106  227 1    
   211  106  228 1    
   212  106  229 1    
   213  107  108 2    
   214  107  109 am   BACKBONE|DICT|INTERRES
   215  109  110 1    
   216  109  230 1    
   217  110  111 1    
   218  110  112 1    
   219  110  231 1    
   220  111  232 1    
   221  111  233 1    
   222  111  234 1    
   223  112  113 2    
   224  112  114 am   BACKBONE|DICT|INTERRES
   225  114  115 1    
   226  114  235 1    
   227  115  116 1    
   228  115  117 1    
   229  115  236 1    
   230  116  237 1    
   231  116  238 1    
   232  116  239 1    
   233  117  118 2    
   234  117  119 am   BACKBONE|DICT|INTERRES
   235  119  120 1    
   236  119  240 1    
   237  120  121 1    
   238  120  124 1    
   239  120  241 1    
   240  121  122 am   BACKBONE|DICT|INTERRES
   241  121  123 2    
   242  122  242 1    
   243  122  243 1    
   244  124  125 1    
   245  124  244 1    
   246  124  245 1    
   247  125  126 1    
   248  126  246 1    
   249  126  247 1    
@<TRIPOS>SUBSTRUCTURE
     1 UNK         1 GROUP             0       ****    0 ROOT    
