@<TRIPOS>MOLECULE
3R540
247   249    1
SMALL
USER_CHARGES


@<TRIPOS>ATOM
      1 CA          0.5225  -12.8728  -50.6971 C.3       0 UNK        -0.1800 
      2 C          -0.0776  -12.6857  -49.3118 C.2       0 UNK         0.5000 
      3 O           0.5235  -13.0985  -48.3206 O.2       0 UNK        -0.5000 
      4 N          -1.2488  -12.0410  -49.2353 N.am      1 UNK        -0.5000 
      5 CA         -2.0231  -11.7998  -48.0075 C.3       1 UNK         0.1400 
      6 C6         -3.3668  -11.0975  -48.3357 C.3       23 UNK        -0.0398 
      7 S7         -4.7103  -11.5573  -47.1895 S.3       23 UNK        -0.2404 
      8 C8         -5.7702  -12.5879  -48.2522 C.3       23 UNK        -0.0205 
      9 C9         -5.2155  -13.9940  -48.4271 C.ar      23 UNK        -0.0193 
     10 C10        -4.3572  -14.2958  -49.4895 C.ar      23 UNK        -0.1150 
     11 C11        -3.8810  -15.5976  -49.6694 C.ar      23 UNK        -0.0193 
     12 C12        -4.2696  -16.6014  -48.7761 C.ar      23 UNK        -0.1150 
     13 C13        -5.1308  -16.3126  -47.7133 C.ar      23 UNK        -0.0193 
     14 C14        -5.5954  -15.0064  -47.5415 C.ar      23 UNK        -0.1150 
     15 C15        -5.5838  -17.4137  -46.7682 C.3       23 UNK        -0.0205 
     16 S16        -4.5500  -17.4721  -45.2738 S.3       23 UNK        -0.2404 
     17 C17        -5.2737  -18.8954  -44.3833 C.3       23 UNK        -0.0398 
     18 CA         -5.0458  -20.2591  -45.0852 C.3       11 UNK         0.1400 
     19 N          -3.6526  -20.4399  -45.4919 N.am      11 UNK        -0.5000 
     20 C          -3.2495  -21.2077  -46.5084 C.2       10 UNK         0.5000 
     21 O          -4.0194  -21.7906  -47.2681 O.2       10 UNK        -0.5000 
     22 CA         -1.7329  -21.3563  -46.7107 C.3       10 UNK         0.1400 
     23 CB         -1.2735  -20.5867  -47.9580 C.3       10 UNK        -0.1800 
     24 N          -0.9191  -20.9346  -45.5691 N.am      10 UNK        -0.5000 
     25 C          -0.8866  -21.5165  -44.3624 C.2       9 UNK         0.5000 
     26 O          -1.6797  -22.3906  -44.0112 O.2       9 UNK        -0.5000 
     27 CA          0.2119  -21.0265  -43.3960 C.3       9 UNK         0.1400 
     28 CB          0.5364  -22.0514  -42.2903 C.3       9 UNK        -0.1800 
     29 N           1.4268  -20.6078  -44.1049 N.am      9 UNK        -0.5000 
     30 C           2.2148  -21.3520  -44.8975 C.2       8 UNK         0.5000 
     31 O           2.0889  -22.5669  -45.0534 O.2       8 UNK        -0.5000 
     32 CA          3.3044  -20.6037  -45.6895 C.3       8 UNK         0.1400 
     33 CB          2.8738  -20.4567  -47.1575 C.3       8 UNK        -0.1800 
     34 N           3.5891  -19.2738  -45.1463 N.am      8 UNK        -0.5000 
     35 C           4.3516  -19.0472  -44.0681 C.2       7 UNK         0.5000 
     36 O           4.9538  -19.9310  -43.4573 O.2       7 UNK        -0.5000 
     37 CA          4.4273  -17.5930  -43.5689 C.3       7 UNK         0.1400 
     38 CB          5.4206  -16.7789  -44.4111 C.3       7 UNK        -0.1800 
     39 N           3.1257  -16.9222  -43.5629 N.am      7 UNK        -0.5000 
     40 C           2.0870  -17.2699  -42.7894 C.2       6 UNK         0.5000 
     41 O           2.1047  -18.2137  -42.0000 O.2       6 UNK        -0.5000 
     42 CA          0.8028  -16.4383  -42.9356 C.3       6 UNK         0.1400 
     43 CB          0.8847  -15.1530  -42.0980 C.3       6 UNK        -0.1800 
     44 N           0.5321  -16.0928  -44.3280 N.am      6 UNK        -0.5000 
     45 C           0.0191  -16.9352  -45.2339 C.2       5 UNK         0.5000 
     46 O          -0.2876  -18.1031  -44.9943 O.2       5 UNK        -0.5000 
     47 CA         -0.1477  -16.3782  -46.6581 C.3       5 UNK         0.1400 
     48 CB         -1.3908  -15.4787  -46.7257 C.3       5 UNK        -0.1800 
     49 N           1.0157  -15.6159  -47.1132 N.am      5 UNK        -0.5000 
     50 C           2.2718  -16.0746  -47.1886 C.2       4 UNK         0.5000 
     51 O           2.6003  -17.2317  -46.9284 O.2       4 UNK        -0.5000 
     52 CA          3.3540  -15.0546  -47.5825 C.3       4 UNK         0.1400 
     53 CB          3.4663  -14.9517  -49.1102 C.3       4 UNK        -0.1800 
     54 N           3.1577  -13.7188  -47.0074 N.am      4 UNK        -0.5000 
     55 C           3.0694  -13.4523  -45.6961 C.2       3 UNK         0.5000 
     56 O           3.0456  -14.3178  -44.8207 O.2       3 UNK        -0.5000 
     57 CA          3.0172  -11.9767  -45.2879 C.3       3 UNK         0.1400 
     58 CB          4.4068  -11.3291  -45.4568 C.3       3 UNK        -0.1800 
     59 N           1.9940  -11.2264  -46.0219 N.am      3 UNK        -0.5000 
     60 C           1.5354  -10.0305  -45.6212 C.2       2 UNK         0.5000 
     61 O           1.9043   -9.4761  -44.5843 O.2       2 UNK        -0.5000 
     62 CA          0.5115   -9.3014  -46.5127 C.3       2 UNK         0.1400 
     63 CB          1.2232   -8.2748  -47.4078 C.3       2 UNK        -0.1800 
     64 N          -0.2957  -10.1775  -47.3576 N.am      2 UNK        -0.5000 
     65 C          -1.2455  -11.0165  -46.9218 C.2       1 UNK         0.5000 
     66 O          -1.5163  -11.1803  -45.7318 O.2       1 UNK        -0.5000 
     67 C          -5.5506  -21.4273  -44.2060 C.2       11 UNK         0.5000 
     68 O          -6.7626  -21.5477  -44.0218 O.2       11 UNK        -0.5000 
     69 N          -4.6351  -22.2514  -43.6728 N.am      12 UNK        -0.5000 
     70 CA         -4.9313  -23.3912  -42.8035 C.3       12 UNK         0.1400 
     71 CB         -4.2803  -23.1566  -41.4304 C.3       12 UNK        -0.1800 
     72 C          -4.4400  -24.7138  -43.4154 C.2       12 UNK         0.5000 
     73 O          -5.1755  -25.7020  -43.3911 O.2       12 UNK        -0.5000 
     74 N          -3.2102  -24.7179  -43.9445 N.am      13 UNK        -0.5000 
     75 CA         -2.5823  -25.8591  -44.6082 C.3       13 UNK         0.1400 
     76 CB         -1.0658  -25.6106  -44.6686 C.3       13 UNK        -0.1800 
     77 C          -3.1473  -26.0889  -46.0222 C.2       13 UNK         0.5000 
     78 O          -3.7373  -25.1792  -46.6092 O.2       13 UNK        -0.5000 
     79 N          -2.9231  -27.2986  -46.5573 N.am      14 UNK        -0.5000 
     80 CA         -3.3036  -27.6878  -47.9195 C.3       14 UNK         0.1400 
     81 CB         -3.0510  -29.1898  -48.1196 C.3       14 UNK        -0.1800 
     82 C          -2.5732  -26.8599  -48.9926 C.2       14 UNK         0.5000 
     83 O          -3.2133  -26.4130  -49.9426 O.2       14 UNK        -0.5000 
     84 N          -1.2631  -26.6516  -48.7817 N.am      15 UNK        -0.5000 
     85 CA         -0.3749  -25.6621  -49.4088 C.3       15 UNK         0.1400 
     86 CB         -0.5041  -24.3293  -48.6452 C.3       15 UNK        -0.1800 
     87 C          -0.5212  -25.4777  -50.9361 C.2       15 UNK         0.5000 
     88 O          -0.5038  -24.3442  -51.4117 O.2       15 UNK        -0.5000 
     89 N          -0.6637  -26.5911  -51.6717 N.am      16 UNK        -0.5000 
     90 CA         -0.8593  -26.6566  -53.1269 C.3       16 UNK         0.1400 
     91 CB          0.4193  -26.2151  -53.8711 C.3       16 UNK        -0.1800 
     92 C          -2.1256  -25.9007  -53.5910 C.2       16 UNK         0.5000 
     93 O          -2.0480  -25.0116  -54.4400 O.2       16 UNK        -0.5000 
     94 N          -3.2682  -26.2861  -53.0058 N.am      17 UNK        -0.5000 
     95 CA         -4.6070  -25.7151  -53.1946 C.3       17 UNK         0.1400 
     96 CB         -5.0637  -25.7669  -54.6689 C.3       17 UNK        -0.1800 
     97 C          -4.7576  -24.3256  -52.5430 C.2       17 UNK         0.5000 
     98 O          -5.3958  -23.4338  -53.1066 O.2       17 UNK        -0.5000 
     99 N          -4.2018  -24.1960  -51.3311 N.am      18 UNK        -0.5000 
    100 CA        -4.3373  -23.0781  -50.3995 C.3       18 UNK         0.1400 
    101 CB        -5.7528  -23.1095  -49.7759 C.3       18 UNK        -0.1800 
    102 C         -3.9540  -21.7247  -51.0332 C.2       18 UNK         0.5000 
    103 O         -2.8196  -21.5552  -51.4861 O.2       18 UNK        -0.5000 
    104 N         -4.9096  -20.7883  -51.0739 N.am      19 UNK        -0.5000 
    105 CA        -4.7533  -19.4297  -51.5869 C.3       19 UNK         0.1400 
    106 CB        -6.0011  -18.6146  -51.2130 C.3       19 UNK        -0.1800 
    107 C         -4.4677  -19.3333  -53.0999 C.2       19 UNK         0.5000 
    108 O         -4.0620  -18.2632  -53.5537 O.2       19 UNK        -0.5000 
    109 N         -4.6612  -20.4268  -53.8555 N.am      20 UNK        -0.5000 
    110 CA        -4.3155  -20.5064  -55.2777 C.3       20 UNK         0.1400 
    111 CB        -4.8806  -21.8003  -55.8809 C.3       20 UNK        -0.1800 
    112 C         -2.7965  -20.4169  -55.5211 C.2       20 UNK         0.5000 
    113 O         -2.3788  -19.8084  -56.5073 O.2       20 UNK        -0.5000 
    114 N         -2.0064  -20.9980  -54.6085 N.am      21 UNK        -0.5000 
    115 CA        -0.5499  -20.8750  -54.5806 C.3       21 UNK         0.1400 
    116 CB         0.0690  -22.2316  -54.2223 C.3       21 UNK        -0.1800 
    117 C         -0.1106  -19.7952  -53.5779 C.2       21 UNK         0.5000 
    118 O          0.8161  -19.0401  -53.8753 O.2       21 UNK        -0.5000 
    119 N         -0.7981  -19.7225  -52.4292 N.am      22 UNK        -0.5000 
    120 CA        -0.5180  -18.8125  -51.3105 C.3       22 UNK         0.1400 
    121 C          0.8135  -19.1310  -50.5589 C.2       22 UNK         0.5000 
    122 N          1.2569  -18.2520  -49.6715 N.am      22 UNK        -0.7600 
    123 O          1.4269  -20.1816  -50.7316 O.2       22 UNK        -0.5000 
    124 C124       -0.6754  -17.3140  -51.7101 C.3       23 UNK        -0.0398 
    125 S125       -1.2798  -16.2892  -50.3254 S.3       23 UNK        -0.2404 
    126 C126       -2.9834  -15.9343  -50.8503 C.3       23 UNK        -0.0205 
    127 H127       -0.0851  -12.4013  -51.4696 H         1 UNK         0.0600 
    128 H128        1.5208  -12.4372  -50.7350 H         1 UNK         0.0600 
    129 H129        0.6028  -13.9340  -50.9302 H         1 UNK         0.0600 
    130 H130       -1.6731  -11.7110  -50.0899 H         1 UNK         0.3000 
    131 H131       -2.2404  -12.7862  -47.5944 H         1 UNK         0.0600 
    132 H132       -3.6879  -11.3426  -49.3480 H         1 UNK         0.0800 
    133 H133       -3.2613  -10.0108  -48.3348 H         1 UNK         0.0800 
    134 H134       -5.9126  -12.1085  -49.2219 H         1 UNK         0.0800 
    135 H135       -6.7621  -12.6415  -47.8008 H         1 UNK         0.0800 
    136 H136       -4.0712  -13.5214  -50.1862 H         1 UNK         0.1150 
    137 H137       -3.9062  -17.6099  -48.9140 H         1 UNK         0.1150 
    138 H138       -6.2629  -14.7803  -46.7218 H         1 UNK         0.1150 
    139 H139       -6.6258  -17.2572  -46.4851 H         1 UNK         0.0800 
    140 H140       -5.5424  -18.3737  -47.2836 H         1 UNK         0.0800 
    141 H141       -4.8358  -18.9062  -43.3836 H         1 UNK         0.0800 
    142 H142       -6.3405  -18.7119  -44.2443 H         1 UNK         0.0800 
    143 H143       -5.6669  -20.2733  -45.9826 H         1 UNK         0.0600 
    144 H144       -2.9530  -19.9580  -44.9464 H         1 UNK         0.3000 
    145 H145       -1.5430  -22.4183  -46.8668 H         1 UNK         0.0600 
    146 H146       -0.2204  -20.7735  -48.1674 H         1 UNK         0.0600 
    147 H147       -1.8349  -20.8974  -48.8398 H         1 UNK         0.0600 
    148 H148       -1.4102  -19.5108  -47.8409 H         1 UNK         0.0600 
    149 H149       -0.3119  -20.1374  -45.7141 H         1 UNK         0.3000 
    150 H150       -0.1827  -20.1314  -42.9134 H         1 UNK         0.0600 
    151 H151       -0.3399  -22.2481  -41.6717 H         1 UNK         0.0600 
    152 H152        1.3226  -21.6828  -41.6314 H         1 UNK         0.0600 
    153 H153        0.8628  -23.0060  -42.7039 H         1 UNK         0.0600 
    154 H154        1.6296  -19.6192  -44.0548 H         1 UNK         0.3000 
    155 H155        4.2152  -21.2052  -45.6576 H         1 UNK         0.0600 
    156 H156        2.6976  -21.4305  -47.6162 H         1 UNK         0.0600 
    157 H157        3.6406  -19.9535  -47.7466 H         1 UNK         0.0600 
    158 H158        1.9509  -19.8826  -47.2472 H         1 UNK         0.0600 
    159 H159        3.1645  -18.4859  -45.6311 H         1 UNK         0.3000 
    160 H160        4.7931  -17.6126  -42.5403 H         1 UNK         0.0600 
    161 H161        5.1198  -16.7400  -45.4575 H         1 UNK         0.0600 
    162 H162        5.5030  -15.7547  -44.0467 H         1 UNK         0.0600 
    163 H163        6.4170  -17.2205  -44.3730 H         1 UNK         0.0600 
    164 H164        3.0349  -16.0990  -44.1525 H         1 UNK         0.3000 
    165 H165       -0.0295  -17.0360  -42.5571 H         1 UNK         0.0600 
    166 H166       -0.0447  -14.5861  -42.1551 H         1 UNK         0.0600 
    167 H167        1.0605  -15.3841  -41.0466 H         1 UNK         0.0600 
    168 H168        1.6947  -14.5028  -42.4305 H         1 UNK         0.0600 
    169 H169        0.8293  -15.1771  -44.6344 H         1 UNK         0.3000 
    170 H170       -0.2876  -17.2208  -47.3373 H         1 UNK         0.0600 
    171 H171       -2.2874  -16.0310  -46.4479 H         1 UNK         0.0600 
    172 H172       -1.3093  -14.6225  -46.0550 H         1 UNK         0.0600 
    173 H173       -1.5510  -15.0936  -47.7307 H         1 UNK         0.0600 
    174 H174        0.8464  -14.6536  -47.4002 H         1 UNK         0.3000 
    175 H175        4.3066  -15.4285  -47.2050 H         1 UNK         0.0600 
    176 H176        2.5474  -14.5738  -49.5558 H         1 UNK         0.0600 
    177 H177        4.2809  -14.2900  -49.4045 H         1 UNK         0.0600 
    178 H178        3.6652  -15.9285  -49.5532 H         1 UNK         0.0600 
    179 H179        3.1469  -12.9521  -47.6629 H         1 UNK         0.3000 
    180 H180        2.7586  -11.9589  -44.2267 H         1 UNK         0.0600 
    181 H181        5.1789  -11.9259  -44.9691 H         1 UNK         0.0600 
    182 H182        4.6809  -11.2325  -46.5078 H         1 UNK         0.0600 
    183 H183        4.4443  -10.3356  -45.0106 H         1 UNK         0.0600 
    184 H184        1.5875  -11.6690  -46.8376 H         1 UNK         0.3000 
    185 H185       -0.1668   -8.7596  -45.8502 H         1 UNK         0.0600 
    186 H186        1.8137   -7.5779  -46.8114 H         1 UNK         0.0600 
    187 H187        1.9005   -8.7578  -48.1134 H         1 UNK         0.0600 
    188 H188        0.5068   -7.6838  -47.9789 H         1 UNK         0.0600 
    189 H189       -0.1306  -10.1240  -48.3520 H         1 UNK         0.3000 
    190 H190       -3.6579  -22.1109  -43.9054 H         1 UNK         0.3000 
    191 H191       -6.0081  -23.4886  -42.6507 H         1 UNK         0.0600 
    192 H192       -4.4691  -23.9954  -40.7591 H         1 UNK         0.0600 
    193 H193       -4.6816  -22.2621  -40.9540 H         1 UNK         0.0600 
    194 H194       -3.1991  -23.0355  -41.5110 H         1 UNK         0.0600 
    195 H195       -2.6655  -23.8581  -43.9415 H         1 UNK         0.3000 
    196 H196       -2.7673  -26.7546  -44.0113 H         1 UNK         0.0600 
    197 H197       -0.5421  -26.4527  -45.1220 H         1 UNK         0.0600 
    198 H198       -0.6500  -25.4698  -43.6707 H         1 UNK         0.0600 
    199 H199       -0.8278  -24.7217  -45.2536 H         1 UNK         0.0600 
    200 H200       -2.4367  -27.9937  -46.0096 H         1 UNK         0.3000 
    201 H201       -4.3742  -27.5046  -48.0330 H         1 UNK         0.0600 
    202 H202       -1.9998  -29.4468  -47.9837 H         1 UNK         0.0600 
    203 H203       -3.3384  -29.5028  -49.1243 H         1 UNK         0.0600 
    204 H204       -3.6351  -29.7841  -47.4167 H         1 UNK         0.0600 
    205 H205       -0.8595  -27.1288  -47.9888 H         1 UNK         0.3000 
    206 H206        0.6418  -26.0263  -49.2555 H         1 UNK         0.0600 
    207 H207       -1.5078  -23.9158  -48.7412 H         1 UNK         0.0600 
    208 H208       -0.2950  -24.4625  -47.5845 H         1 UNK         0.0600 
    209 H209        0.1985  -23.5821  -49.0169 H         1 UNK         0.0600 
    210 H210       -0.6876  -27.4749  -51.1830 H         1 UNK         0.3000 
    211 H211       -1.0265  -27.7072  -53.3688 H         1 UNK         0.0600 
    212 H212        0.6528  -25.1651  -53.6945 H         1 UNK         0.0600 
    213 H213        0.3083  -26.3470  -54.9479 H         1 UNK         0.0600 
    214 H214        1.2802  -26.8060  -53.5589 H         1 UNK         0.0600 
    215 H215       -3.2007  -26.9734  -52.2668 H         1 UNK         0.3000 
    216 H216       -5.2805  -26.3671  -52.6365 H         1 UNK         0.0600 
    217 H217       -4.4899  -25.0913  -55.3023 H         1 UNK         0.0600 
    218 H218       -6.1119  -25.4803  -54.7602 H         1 UNK         0.0600 
    219 H219       -4.9665  -26.7730  -55.0765 H         1 UNK         0.0600 
    220 H220       -3.7015  -24.9994  -50.9554 H         1 UNK         0.3000 
    221 H221       -3.6187  -23.2532  -49.5986 H         1 UNK         0.0600 
    222 H222       -6.5374  -23.0088  -50.5267 H         1 UNK         0.0600 
    223 H223       -5.9187  -24.0507  -49.2511 H         1 UNK         0.0600 
    224 H224       -5.8881  -22.3143  -49.0425 H         1 UNK         0.0600 
    225 H225       -5.8202  -21.0269  -50.7093 H         1 UNK         0.3000 
    226 H226       -3.8941  -18.9967  -51.0730 H         1 UNK         0.0600 
    227 H227       -6.1626  -18.6091  -50.1349 H         1 UNK         0.0600 
    228 H228       -5.9006  -17.5749  -51.5277 H         1 UNK         0.0600 
    229 H229       -6.8984  -19.0154  -51.6860 H         1 UNK         0.0600 
    230 H230       -4.9914  -21.2801  -53.4186 H         1 UNK         0.3000 
    231 H231       -4.7875  -19.6620  -55.7845 H         1 UNK         0.0600 
    232 H232       -4.3900  -22.6812  -55.4667 H         1 UNK         0.0600 
    233 H233       -5.9511  -21.8923  -55.6969 H         1 UNK         0.0600 
    234 H234       -4.7309  -21.8228  -56.9610 H         1 UNK         0.0600 
    235 H235       -2.4369  -21.4658  -53.8215 H         1 UNK         0.3000 
    236 H236       -0.1738  -20.5895  -55.5652 H         1 UNK         0.0600 
    237 H237       -0.2877  -22.5852  -53.2559 H         1 UNK         0.0600 
    238 H238       -0.1794  -22.9872  -54.9675 H         1 UNK         0.0600 
    239 H239        1.1564  -22.1675  -54.1695 H         1 UNK         0.0600 
    240 H240       -1.5002  -20.4312  -52.2341 H         1 UNK         0.3000 
    241 H241       -1.3035  -19.0528  -50.5937 H         1 UNK         0.0600 
    242 H242        0.7559  -17.3909  -49.5147 H         1 UNK         0.3800 
    243 H243        2.0955  -18.4504  -49.1493 H         1 UNK         0.3800 
    244 H244       -1.3742  -17.2146  -52.5422 H         1 UNK         0.0800 
    245 H245        0.2679  -16.9041  -52.0752 H         1 UNK         0.0800 
    246 H246       -2.9672  -15.1179  -51.5737 H         1 UNK         0.0800 
    247 H247       -3.4002  -16.7924  -51.3730 H         1 UNK         0.0800 
@<TRIPOS>BOND
     1    1    2 1    
     2    1  127 1    
     3    1  128 1    
     4    1  129 1    
     5    2    3 2    
     6    2    4 am   BACKBONE|DICT|INTERRES
     7    4    5 1    
     8    4  130 1    
     9    5    6 1    
    10    5   65 1    
    11    5  131 1    
    12    6    7 1    
    13    6  132 1    
    14    6  133 1    
    15    7    8 1    
    16    8    9 1    
    17    8  134 1    
    18    8  135 1    
    19    9   10 ar   
    20    9   14 ar   
    21   10   11 ar   
    22   10  136 1    
    23   11   12 ar   
    24   11  126 1    
    25   12   13 ar   
    26   12  137 1    
    27   13   14 ar   
    28   13   15 1    
    29   14  138 1    
    30   15   16 1    
    31   15  139 1    
    32   15  140 1    
    33   16   17 1    
    34   17   18 1    
    35   17  141 1    
    36   17  142 1    
    37   18   19 1    
    38   18   67 1    
    39   18  143 1    
    40   19   20 am   BACKBONE|DICT|INTERRES
    41   19  144 1    
    42   20   21 2    
    43   20   22 1    
    44   22   23 1    
    45   22   24 1    
    46   22  145 1    
    47   23  146 1    
    48   23  147 1    
    49   23  148 1    
    50   24   25 am   BACKBONE|DICT|INTERRES
    51   24  149 1    
    52   25   26 2    
    53   25   27 1    
    54   27   28 1    
    55   27   29 1    
    56   27  150 1    
    57   28  151 1    
    58   28  152 1    
    59   28  153 1    
    60   29   30 am   BACKBONE|DICT|INTERRES
    61   29  154 1    
    62   30   31 2    
    63   30   32 1    
    64   32   33 1    
    65   32   34 1    
    66   32  155 1    
    67   33  156 1    
    68   33  157 1    
    69   33  158 1    
    70   34   35 am   BACKBONE|DICT|INTERRES
    71   34  159 1    
    72   35   36 2    
    73   35   37 1    
    74   37   38 1    
    75   37   39 1    
    76   37  160 1    
    77   38  161 1    
    78   38  162 1    
    79   38  163 1    
    80   39   40 am   BACKBONE|DICT|INTERRES
    81   39  164 1    
    82   40   41 2    
    83   40   42 1    
    84   42   43 1    
    85   42   44 1    
    86   42  165 1    
    87   43  166 1    
    88   43  167 1    
    89   43  168 1    
    90   44   45 am   BACKBONE|DICT|INTERRES
    91   44  169 1    
    92   45   46 2    
    93   45   47 1    
    94   47   48 1    
    95   47   49 1    
    96   47  170 1    
    97   48  171 1    
    98   48  172 1    
    99   48  173 1    
   100   49   50 am   BACKBONE|DICT|INTERRES
   101   49  174 1    
   102   50   51 2    
   103   50   52 1    
   104   52   53 1    
   105   52   54 1    
   106   52  175 1    
   107   53  176 1    
   108   53  177 1    
   109   53  178 1    
   110   54   55 am   BACKBONE|DICT|INTERRES
   111   54  179 1    
   112   55   56 2    
   113   55   57 1    
   114   57   58 1    
   115   57   59 1    
   116   57  180 1    
   117   58  181 1    
   118   58  182 1    
   119   58  183 1    
   120   59   60 am   BACKBONE|DICT|INTERRES
   121   59  184 1    
   122   60   61 2    
   123   60   62 1    
   124   62   63 1    
   125   62   64 1    
   126   62  185 1    
   127   63  186 1    
   128   63  187 1    
   129   63  188 1    
   130   64   65 am   BACKBONE|DICT|INTERRES
   131   64  189 1    
   132   65   66 2    
   133   67   68 2    
   134   67   69 am   BACKBONE|DICT|INTERRES
   135   69   70 1    
   136   69  190 1    
   137   70   71 1    
   138   70   72 1    
   139   70  191 1    
   140   71  192 1    
   141   71  193 1    
   142   71  194 1    
   143   72   73 2    
   144   72   74 am   BACKBONE|DICT|INTERRES
   145   74   75 1    
   146   74  195 1    
   147   75   76 1    
   148   75   77 1    
   149   75  196 1    
   150   76  197 1    
   151   76  198 1    
   152   76  199 1    
   153   77   78 2    
   154   77   79 am   BACKBONE|DICT|INTERRES
   155   79   80 1    
   156   79  200 1    
   157   80   81 1    
   158   80   82 1    
   159   80  201 1    
   160   81  202 1    
   161   81  203 1    
   162   81  204 1    
   163   82   83 2    
   164   82   84 am   BACKBONE|DICT|INTERRES
   165   84   85 1    
   166   84  205 1    
   167   85   86 1    
   168   85   87 1    
   169   85  206 1    
   170   86  207 1    
   171   86  208 1    
   172   86  209 1    
   173   87   88 2    
   174   87   89 am   BACKBONE|DICT|INTERRES
   175   89   90 1    
   176   89  210 1    
   177   90   91 1    
   178   90   92 1    
   179   90  211 1    
   180   91  212 1    
   181   91  213 1    
   182   91  214 1    
   183   92   93 2    
   184   92   94 am   BACKBONE|DICT|INTERRES
   185   94   95 1    
   186   94  215 1    
   187   95   96 1    
   188   95   97 1    
   189   95  216 1    
   190   96  217 1    
   191   96  218 1    
   192   96  219 1    
   193   97   98 2    
   194   97   99 am   BACKBONE|DICT|INTERRES
   195   99  100 1    
   196   99  220 1    
   197  100  101 1    
   198  100  102 1    
   199  100  221 1    
   200  101  222 1    
   201  101  223 1    
   202  101  224 1    
   203  102  103 2    
   204  102  104 am   BACKBONE|DICT|INTERRES
   205  104  105 1    
   206  104  225 1    
   207  105  106 1    
   208  105  107 1    
   209  105  226 1    
   210  106  227 1    
   211  106  228 1    
   212  106  229 1    
   213  107  108 2    
   214  107  109 am   BACKBONE|DICT|INTERRES
   215  109  110 1    
   216  109  230 1    
   217  110  111 1    
   218  110  112 1    
   219  110  231 1    
   220  111  232 1    
   221  111  233 1    
   222  111  234 1    
   223  112  113 2    
   224  112  114 am   BACKBONE|DICT|INTERRES
   225  114  115 1    
   226  114  235 1    
   227  115  116 1    
   228  115  117 1    
   229  115  236 1    
   230  116  237 1    
   231  116  238 1    
   232  116  239 1    
   233  117  118 2    
   234  117  119 am   BACKBONE|DICT|INTERRES
   235  119  120 1    
   236  119  240 1    
   237  120  121 1    
   238  120  124 1    
   239  120  241 1    
   240  121  122 am   BACKBONE|DICT|INTERRES
   241  121  123 2    
   242  122  242 1    
   243  122  243 1    
   244  124  125 1    
   245  124  244 1    
   246  124  245 1    
   247  125  126 1    
   248  126  246 1    
   249  126  247 1    
@<TRIPOS>SUBSTRUCTURE
     1 UNK         1 GROUP             0       ****    0 ROOT    
