@<TRIPOS>MOLECULE
3R540
247   249    1
SMALL
USER_CHARGES


@<TRIPOS>ATOM
      1 CA          0.6249   -9.6497  -48.2259 C.3       0 UNK        -0.1800 
      2 C          -0.0050  -11.0127  -48.4785 C.2       0 UNK         0.5000 
      3 O          -0.7876  -11.1496  -49.4177 O.2       0 UNK        -0.5000 
      4 N           0.3567  -12.0047  -47.6520 N.am      1 UNK        -0.5000 
      5 CA         -0.0872  -13.4061  -47.6690 C.3       1 UNK         0.1400 
      6 C6          0.1735  -14.1560  -49.0076 C.3       23 UNK        -0.0398 
      7 S7          1.8714  -13.9664  -49.6686 S.3       23 UNK        -0.2404 
      8 C8          2.6514  -15.5914  -49.3542 C.3       23 UNK        -0.0205 
      9 C9          2.0559  -16.8049  -50.0749 C.ar      23 UNK        -0.0193 
     10 C10         1.0519  -16.7043  -51.0479 C.ar      23 UNK        -0.1150 
     11 C11         0.5097  -17.8474  -51.6425 C.ar      23 UNK        -0.0193 
     12 C12         1.0006  -19.1048  -51.2812 C.ar      23 UNK        -0.1150 
     13 C13         2.0206  -19.2255  -50.3325 C.ar      23 UNK        -0.0193 
     14 C14         2.5403  -18.0731  -49.7359 C.ar      23 UNK        -0.1150 
     15 C15         2.5418  -20.6046  -49.9383 C.3       23 UNK        -0.0205 
     16 S16         2.1473  -21.0482  -48.2107 S.3       23 UNK        -0.2404 
     17 C17         0.3779  -20.6331  -48.1301 C.3       23 UNK        -0.0398 
     18 CA         -0.4862  -21.6139  -47.3061 C.3       11 UNK         0.1400 
     19 N          -0.1529  -21.6770  -45.8769 N.am      11 UNK        -0.5000 
     20 C          -0.7523  -22.5043  -45.0027 C.2       10 UNK         0.5000 
     21 O          -1.5700  -23.3643  -45.3307 O.2       10 UNK        -0.5000 
     22 CA         -0.4579  -22.2959  -43.5051 C.3       10 UNK         0.1400 
     23 CB          0.8329  -23.0096  -43.0775 C.3       10 UNK        -0.1800 
     24 N          -0.4030  -20.8800  -43.1403 N.am      10 UNK        -0.5000 
     25 C          -1.4499  -20.0444  -43.2114 C.2       9 UNK         0.5000 
     26 O          -2.5880  -20.4023  -43.5157 O.2       9 UNK        -0.5000 
     27 CA         -1.1698  -18.5504  -42.9653 C.3       9 UNK         0.1400 
     28 CB         -1.1730  -18.2234  -41.4652 C.3       9 UNK        -0.1800 
     29 N           0.0905  -18.1164  -43.5718 N.am      9 UNK        -0.5000 
     30 C           0.3247  -18.1030  -44.8918 C.2       8 UNK         0.5000 
     31 O          -0.5422  -18.3340  -45.7332 O.2       8 UNK        -0.5000 
     32 CA          1.7713  -17.8425  -45.3520 C.3       8 UNK         0.1400 
     33 CB          2.0338  -16.3495  -45.5609 C.3       8 UNK        -0.1800 
     34 N           2.7552  -18.3746  -44.4135 N.am      8 UNK        -0.5000 
     35 C           3.0137  -19.6797  -44.2644 C.2       7 UNK         0.5000 
     36 O           2.4549  -20.5616  -44.9130 O.2       7 UNK        -0.5000 
     37 CA          4.0254  -20.0588  -43.1690 C.3       7 UNK         0.1400 
     38 CB          5.4652  -19.8985  -43.6789 C.3       7 UNK        -0.1800 
     39 N           3.8449  -19.2613  -41.9548 N.am      7 UNK        -0.5000 
     40 C           2.7638  -19.3296  -41.1652 C.2       6 UNK         0.5000 
     41 O           1.8326  -20.1119  -41.3528 O.2       6 UNK        -0.5000 
     42 CA          2.6912  -18.3266  -39.9996 C.3       6 UNK         0.1400 
     43 CB          3.3760  -18.9012  -38.7508 C.3       6 UNK        -0.1800 
     44 N           3.2782  -17.0220  -40.3192 N.am      6 UNK        -0.5000 
     45 C           2.7970  -16.1732  -41.2371 C.2       5 UNK         0.5000 
     46 O           1.8245  -16.4177  -41.9537 O.2       5 UNK        -0.5000 
     47 CA          3.5596  -14.8489  -41.4131 C.3       5 UNK         0.1400 
     48 CB          4.3338  -14.8360  -42.7400 C.3       5 UNK        -0.1800 
     49 N           2.6683  -13.6902  -41.3649 N.am      5 UNK        -0.5000 
     50 C           2.0759  -13.2440  -40.2463 C.2       4 UNK         0.5000 
     51 O           2.1964  -13.7970  -39.1520 O.2       4 UNK        -0.5000 
     52 CA          1.2420  -11.9531  -40.3338 C.3       4 UNK         0.1400 
     53 CB          2.0821  -10.7565  -39.8419 C.3       4 UNK        -0.1800 
     54 N           0.7338  -11.7061  -41.6836 N.am      4 UNK        -0.5000 
     55 C          -0.1888  -10.8015  -42.0259 C.2       3 UNK         0.5000 
     56 O          -0.7477  -10.0542  -41.2221 O.2       3 UNK        -0.5000 
     57 CA         -0.5666  -10.7195  -43.5192 C.3       3 UNK         0.1400 
     58 CB          0.5510  -10.0545  -44.3440 C.3       3 UNK        -0.1800 
     59 N          -0.9883  -11.9953  -44.1138 N.am      3 UNK        -0.5000 
     60 C          -0.2832  -13.1227  -44.2817 C.2       2 UNK         0.5000 
     61 O           0.9083  -13.2477  -43.9972 O.2       2 UNK        -0.5000 
     62 CA         -1.0473  -14.3094  -44.8887 C.3       2 UNK         0.1400 
     63 CB         -1.8928  -14.9999  -43.8101 C.3       2 UNK        -0.1800 
     64 N          -1.9159  -13.9238  -46.0016 N.am      2 UNK        -0.5000 
     65 C          -1.5765  -13.5227  -47.2380 C.2       1 UNK         0.5000 
     66 O          -2.4572  -13.2512  -48.0525 O.2       1 UNK        -0.5000 
     67 C          -1.9654  -21.2503  -47.5243 C.2       11 UNK         0.5000 
     68 O          -2.6385  -21.9391  -48.2867 O.2       11 UNK        -0.5000 
     69 N          -2.4452  -20.1916  -46.8566 N.am      12 UNK        -0.5000 
     70 CA         -3.8249  -19.7105  -46.9477 C.3       12 UNK         0.1400 
     71 CB         -3.9754  -18.4101  -46.1432 C.3       12 UNK        -0.1800 
     72 C          -4.8562  -20.7649  -46.5048 C.2       12 UNK         0.5000 
     73 O          -5.8552  -20.9612  -47.1972 O.2       12 UNK        -0.5000 
     74 N          -4.5644  -21.4653  -45.3997 N.am      13 UNK        -0.5000 
     75 CA         -5.3619  -22.5784  -44.8803 C.3       13 UNK         0.1400 
     76 CB         -4.8177  -22.9909  -43.5044 C.3       13 UNK        -0.1800 
     77 C          -5.4080  -23.7915  -45.8314 C.2       13 UNK         0.5000 
     78 O          -6.4531  -24.4318  -45.9492 O.2       13 UNK        -0.5000 
     79 N          -4.2858  -24.0704  -46.5071 N.am      14 UNK        -0.5000 
     80 CA         -4.1368  -25.1506  -47.4849 C.3       14 UNK         0.1400 
     81 CB         -2.6624  -25.5870  -47.5013 C.3       14 UNK        -0.1800 
     82 C          -4.5961  -24.7663  -48.9072 C.2       14 UNK         0.5000 
     83 O          -4.5015  -25.6008  -49.8088 O.2       14 UNK        -0.5000 
     84 N          -5.0244  -23.5110  -49.1088 N.am      15 UNK        -0.5000 
     85 CA         -5.3730  -22.8865  -50.3901 C.3       15 UNK         0.1400 
     86 CB         -6.6726  -23.4900  -50.9603 C.3       15 UNK        -0.1800 
     87 C          -4.2052  -22.9205  -51.3992 C.2       15 UNK         0.5000 
     88 O          -4.4098  -23.2320  -52.5738 O.2       15 UNK        -0.5000 
     89 N          -2.9971  -22.6075  -50.9109 N.am      16 UNK        -0.5000 
     90 CA         -1.7035  -22.6692  -51.6014 C.3       16 UNK         0.1400 
     91 CB         -1.6385  -21.6533  -52.7605 C.3       16 UNK        -0.1800 
     92 C          -1.3221  -24.1057  -52.0167 C.2       16 UNK         0.5000 
     93 O          -0.7248  -24.3056  -53.0735 O.2       16 UNK        -0.5000 
     94 N          -1.6868  -25.0748  -51.1628 N.am      17 UNK        -0.5000 
     95 CA         -1.5922  -26.5241  -51.3670 C.3       17 UNK         0.1400 
     96 CB         -0.1248  -26.9844  -51.4968 C.3       17 UNK        -0.1800 
     97 C          -2.4937  -26.9806  -52.5311 C.2       17 UNK         0.5000 
     98 O          -2.0287  -27.6428  -53.4606 O.2       17 UNK        -0.5000 
     99 N          -3.7744  -26.5899  -52.4429 N.am      18 UNK        -0.5000 
    100 CA        -4.8472  -26.8196  -53.4148 C.3       18 UNK         0.1400 
    101 CB        -5.2222  -28.3154  -53.4665 C.3       18 UNK        -0.1800 
    102 C         -4.5341  -26.2203  -54.8030 C.2       18 UNK         0.5000 
    103 O         -4.6797  -26.8979  -55.8225 O.2       18 UNK        -0.5000 
    104 N         -4.1144  -24.9501  -54.8094 N.am      19 UNK        -0.5000 
    105 CA        -3.7877  -24.1652  -56.0002 C.3       19 UNK         0.1400 
    106 CB        -2.2637  -23.9791  -56.0963 C.3       19 UNK        -0.1800 
    107 C         -4.5551  -22.8308  -55.9830 C.2       19 UNK         0.5000 
    108 O         -4.0161  -21.7988  -56.3879 O.2       19 UNK        -0.5000 
    109 N         -5.8047  -22.8809  -55.4940 N.am      20 UNK        -0.5000 
    110 CA        -6.7991  -21.8013  -55.4548 C.3       20 UNK         0.1400 
    111 CB        -7.3099  -21.5080  -56.8808 C.3       20 UNK        -0.1800 
    112 C         -6.3215  -20.5264  -54.7269 C.2       20 UNK         0.5000 
    113 O         -6.6963  -19.4198  -55.1196 O.2       20 UNK        -0.5000 
    114 N         -5.4729  -20.6998  -53.7016 N.am      21 UNK        -0.5000 
    115 CA        -4.8334  -19.6420  -52.9070 C.3       21 UNK         0.1400 
    116 CB        -5.8698  -18.9416  -52.0048 C.3       21 UNK        -0.1800 
    117 C         -4.0075  -18.6576  -53.7656 C.2       21 UNK         0.5000 
    118 O         -3.9962  -17.4575  -53.4897 O.2       21 UNK        -0.5000 
    119 N         -3.3500  -19.1959  -54.8024 N.am      22 UNK        -0.5000 
    120 CA        -2.6114  -18.4755  -55.8542 C.3       22 UNK         0.1400 
    121 C         -3.5210  -17.7407  -56.8887 C.2       22 UNK         0.5000 
    122 N         -4.8411  -17.8864  -56.8607 N.am      22 UNK        -0.7600 
    123 O         -3.0178  -17.0411  -57.7639 O.2       22 UNK        -0.5000 
    124 C124       -1.4742  -17.5491  -55.3284 C.3       23 UNK        -0.0398 
    125 S125       -0.2290  -18.3836  -54.2808 S.3       23 UNK        -0.2404 
    126 C126       -0.6384  -17.7158  -52.6351 C.3       23 UNK        -0.0205 
    127 H127        1.4438   -9.7070  -47.5084 H         1 UNK         0.0600 
    128 H128       -0.1224   -8.9561  -47.8406 H         1 UNK         0.0600 
    129 H129        1.0226   -9.2418  -49.1553 H         1 UNK         0.0600 
    130 H130        1.0121  -11.7869  -46.9152 H         1 UNK         0.3000 
    131 H131        0.5432  -13.8978  -46.9334 H         1 UNK         0.0600 
    132 H132       -0.0458  -15.2169  -48.8790 H         1 UNK         0.0800 
    133 H133       -0.5088  -13.8056  -49.7837 H         1 UNK         0.0800 
    134 H134        3.7009  -15.5135  -49.6411 H         1 UNK         0.0800 
    135 H135        2.6470  -15.7732  -48.2815 H         1 UNK         0.0800 
    136 H136        0.6681  -15.7381  -51.3383 H         1 UNK         0.1150 
    137 H137        0.5820  -19.9897  -51.7384 H         1 UNK         0.1150 
    138 H138        3.3181  -18.1687  -48.9908 H         1 UNK         0.1150 
    139 H139        2.1349  -21.3721  -50.5987 H         1 UNK         0.0800 
    140 H140        3.6241  -20.6305  -50.0719 H         1 UNK         0.0800 
    141 H141       -0.0021  -20.6081  -49.1524 H         1 UNK         0.0800 
    142 H142        0.2898  -19.6132  -47.7583 H         1 UNK         0.0800 
    143 H143       -0.3357  -22.6158  -47.7140 H         1 UNK         0.0600 
    144 H144        0.5717  -21.0498  -45.5437 H         1 UNK         0.3000 
    145 H145       -1.2817  -22.7440  -42.9455 H         1 UNK         0.0600 
    146 H146        0.7662  -24.0801  -43.2753 H         1 UNK         0.0600 
    147 H147        1.7050  -22.6352  -43.6107 H         1 UNK         0.0600 
    148 H148        1.0159  -22.8864  -42.0099 H         1 UNK         0.0600 
    149 H149        0.4907  -20.5218  -42.8206 H         1 UNK         0.3000 
    150 H150       -1.9782  -17.9875  -43.4328 H         1 UNK         0.0600 
    151 H151       -0.9687  -17.1674  -41.2879 H         1 UNK         0.0600 
    152 H152       -0.4285  -18.8037  -40.9222 H         1 UNK         0.0600 
    153 H153       -2.1446  -18.4466  -41.0232 H         1 UNK         0.0600 
    154 H154        0.8288  -17.8215  -42.9410 H         1 UNK         0.3000 
    155 H155        1.9114  -18.3434  -46.3126 H         1 UNK         0.0600 
    156 H156        1.4005  -15.9664  -46.3586 H         1 UNK         0.0600 
    157 H157        3.0683  -16.1630  -45.8494 H         1 UNK         0.0600 
    158 H158        1.8270  -15.7752  -44.6582 H         1 UNK         0.0600 
    159 H159        3.2146  -17.7122  -43.8074 H         1 UNK         0.3000 
    160 H160        3.8661  -21.1093  -42.9158 H         1 UNK         0.0600 
    161 H161        5.6279  -20.4935  -44.5786 H         1 UNK         0.0600 
    162 H162        6.1866  -20.2342  -42.9337 H         1 UNK         0.0600 
    163 H163        5.6947  -18.8611  -43.9255 H         1 UNK         0.0600 
    164 H164        4.5699  -18.5974  -41.7268 H         1 UNK         0.3000 
    165 H165        1.6367  -18.1687  -39.7654 H         1 UNK         0.0600 
    166 H166        3.2559  -18.2373  -37.8944 H         1 UNK         0.0600 
    167 H167        2.9429  -19.8641  -38.4766 H         1 UNK         0.0600 
    168 H168        4.4440  -19.0550  -38.9103 H         1 UNK         0.0600 
    169 H169        4.0805  -16.7461  -39.7713 H         1 UNK         0.3000 
    170 H170        4.2857  -14.7527  -40.6029 H         1 UNK         0.0600 
    171 H171        4.9760  -13.9579  -42.8093 H         1 UNK         0.0600 
    172 H172        4.9746  -15.7138  -42.8329 H         1 UNK         0.0600 
    173 H173        3.6634  -14.8227  -43.5986 H         1 UNK         0.0600 
    174 H174        2.5064  -13.2234  -42.2447 H         1 UNK         0.3000 
    175 H175        0.3864  -12.0802  -39.6675 H         1 UNK         0.0600 
    176 H176        2.9075  -10.5428  -40.5219 H         1 UNK         0.0600 
    177 H177        1.4823   -9.8515  -39.7490 H         1 UNK         0.0600 
    178 H178        2.5100  -10.9548  -38.8583 H         1 UNK         0.0600 
    179 H179        1.0493  -12.3304  -42.4208 H         1 UNK         0.3000 
    180 H180       -1.4391  -10.0667  -43.5796 H         1 UNK         0.0600 
    181 H181        0.2201   -9.8726  -45.3650 H         1 UNK         0.0600 
    182 H182        1.4554  -10.6617  -44.3836 H         1 UNK         0.0600 
    183 H183        0.8267   -9.0890  -43.9181 H         1 UNK         0.0600 
    184 H184       -1.9614  -12.0263  -44.3844 H         1 UNK         0.3000 
    185 H185       -0.3341  -15.0453  -45.2480 H         1 UNK         0.0600 
    186 H186       -1.2619  -15.3662  -42.9990 H         1 UNK         0.0600 
    187 H187       -2.6309  -14.3255  -43.3741 H         1 UNK         0.0600 
    188 H188       -2.4274  -15.8554  -44.2220 H         1 UNK         0.0600 
    189 H189       -2.9033  -13.9791  -45.8007 H         1 UNK         0.3000 
    190 H190       -1.8099  -19.6439  -46.2817 H         1 UNK         0.3000 
    191 H191       -4.0202  -19.4809  -47.9973 H         1 UNK         0.0600 
    192 H192       -3.7897  -18.5673  -45.0811 H         1 UNK         0.0600 
    193 H193       -4.9829  -18.0049  -46.2430 H         1 UNK         0.0600 
    194 H194       -3.2808  -17.6462  -46.4937 H         1 UNK         0.0600 
    195 H195       -3.7388  -21.2077  -44.8653 H         1 UNK         0.3000 
    196 H196       -6.3855  -22.2218  -44.7490 H         1 UNK         0.0600 
    197 H197       -5.4076  -23.8027  -43.0770 H         1 UNK         0.0600 
    198 H198       -4.8516  -22.1582  -42.8015 H         1 UNK         0.0600 
    199 H199       -3.7839  -23.3323  -43.5673 H         1 UNK         0.0600 
    200 H200       -3.4555  -23.5183  -46.3201 H         1 UNK         0.3000 
    201 H201       -4.7392  -26.0047  -47.1695 H         1 UNK         0.0600 
    202 H202       -2.3286  -25.8795  -46.5055 H         1 UNK         0.0600 
    203 H203       -2.0092  -24.7853  -47.8484 H         1 UNK         0.0600 
    204 H204       -2.5111  -26.4467  -48.1542 H         1 UNK         0.0600 
    205 H205       -5.0225  -22.8890  -48.3105 H         1 UNK         0.3000 
    206 H206       -5.5615  -21.8336  -50.1763 H         1 UNK         0.0600 
    207 H207       -6.9978  -22.9491  -51.8499 H         1 UNK         0.0600 
    208 H208       -6.5467  -24.5359  -51.2412 H         1 UNK         0.0600 
    209 H209       -7.4829  -23.4339  -50.2335 H         1 UNK         0.0600 
    210 H210       -2.9430  -22.3668  -49.9196 H         1 UNK         0.3000 
    211 H211       -0.9541  -22.3686  -50.8678 H         1 UNK         0.0600 
    212 H212       -2.3803  -21.8591  -53.5309 H         1 UNK         0.0600 
    213 H213       -0.6596  -21.6625  -53.2412 H         1 UNK         0.0600 
    214 H214       -1.8026  -20.6403  -52.3977 H         1 UNK         0.0600 
    215 H215       -2.2084  -24.7926  -50.3461 H         1 UNK         0.3000 
    216 H216       -1.9979  -26.9902  -50.4684 H         1 UNK         0.0600 
    217 H217       -0.0621  -28.0728  -51.5217 H         1 UNK         0.0600 
    218 H218        0.4707  -26.6441  -50.6497 H         1 UNK         0.0600 
    219 H219        0.3442  -26.6127  -52.4080 H         1 UNK         0.0600 
    220 H220       -4.0493  -26.0786  -51.6077 H         1 UNK         0.3000 
    221 H221       -5.7164  -26.2776  -53.0396 H         1 UNK         0.0600 
    222 H222       -4.4107  -28.9246  -53.8653 H         1 UNK         0.0600 
    223 H223       -5.4687  -28.6933  -52.4743 H         1 UNK         0.0600 
    224 H224       -6.0947  -28.4774  -54.1005 H         1 UNK         0.0600 
    225 H225       -4.0711  -24.4428  -53.9270 H         1 UNK         0.3000 
    226 H226       -4.1177  -24.6891  -56.8991 H         1 UNK         0.0600 
    227 H227       -1.7458  -24.9377  -56.0612 H         1 UNK         0.0600 
    228 H228       -1.9866  -23.4923  -57.0319 H         1 UNK         0.0600 
    229 H229       -1.8823  -23.3643  -55.2824 H         1 UNK         0.0600 
    230 H230       -6.1224  -23.7739  -55.1453 H         1 UNK         0.3000 
    231 H231       -7.6404  -22.1803  -54.8731 H         1 UNK         0.0600 
    232 H232       -6.5287  -21.0744  -57.5065 H         1 UNK         0.0600 
    233 H233       -7.6636  -22.4167  -57.3679 H         1 UNK         0.0600 
    234 H234       -8.1445  -20.8062  -56.8645 H         1 UNK         0.0600 
    235 H235       -5.1875  -21.6499  -53.4843 H         1 UNK         0.3000 
    236 H236       -4.1183  -20.1333  -52.2492 H         1 UNK         0.0600 
    237 H237       -6.5927  -18.3699  -52.5876 H         1 UNK         0.0600 
    238 H238       -6.4210  -19.6637  -51.4026 H         1 UNK         0.0600 
    239 H239       -5.3846  -18.2494  -51.3157 H         1 UNK         0.0600 
    240 H240       -3.4813  -20.1826  -54.9896 H         1 UNK         0.3000 
    241 H241       -2.1307  -19.2635  -56.4348 H         1 UNK         0.0600 
    242 H242       -5.3014  -18.4517  -56.1555 H         1 UNK         0.3800 
    243 H243       -5.3996  -17.4083  -57.5493 H         1 UNK         0.3800 
    244 H244       -0.9232  -17.1293  -56.1714 H         1 UNK         0.0800 
    245 H245       -1.8920  -16.6886  -54.8058 H         1 UNK         0.0800 
    246 H246       -1.5095  -18.2364  -52.2386 H         1 UNK         0.0800 
    247 H247       -0.9279  -16.6685  -52.7315 H         1 UNK         0.0800 
@<TRIPOS>BOND
     1    1    2 1    
     2    1  127 1    
     3    1  128 1    
     4    1  129 1    
     5    2    3 2    
     6    2    4 am   BACKBONE|DICT|INTERRES
     7    4    5 1    
     8    4  130 1    
     9    5    6 1    
    10    5   65 1    
    11    5  131 1    
    12    6    7 1    
    13    6  132 1    
    14    6  133 1    
    15    7    8 1    
    16    8    9 1    
    17    8  134 1    
    18    8  135 1    
    19    9   10 ar   
    20    9   14 ar   
    21   10   11 ar   
    22   10  136 1    
    23   11   12 ar   
    24   11  126 1    
    25   12   13 ar   
    26   12  137 1    
    27   13   14 ar   
    28   13   15 1    
    29   14  138 1    
    30   15   16 1    
    31   15  139 1    
    32   15  140 1    
    33   16   17 1    
    34   17   18 1    
    35   17  141 1    
    36   17  142 1    
    37   18   19 1    
    38   18   67 1    
    39   18  143 1    
    40   19   20 am   BACKBONE|DICT|INTERRES
    41   19  144 1    
    42   20   21 2    
    43   20   22 1    
    44   22   23 1    
    45   22   24 1    
    46   22  145 1    
    47   23  146 1    
    48   23  147 1    
    49   23  148 1    
    50   24   25 am   BACKBONE|DICT|INTERRES
    51   24  149 1    
    52   25   26 2    
    53   25   27 1    
    54   27   28 1    
    55   27   29 1    
    56   27  150 1    
    57   28  151 1    
    58   28  152 1    
    59   28  153 1    
    60   29   30 am   BACKBONE|DICT|INTERRES
    61   29  154 1    
    62   30   31 2    
    63   30   32 1    
    64   32   33 1    
    65   32   34 1    
    66   32  155 1    
    67   33  156 1    
    68   33  157 1    
    69   33  158 1    
    70   34   35 am   BACKBONE|DICT|INTERRES
    71   34  159 1    
    72   35   36 2    
    73   35   37 1    
    74   37   38 1    
    75   37   39 1    
    76   37  160 1    
    77   38  161 1    
    78   38  162 1    
    79   38  163 1    
    80   39   40 am   BACKBONE|DICT|INTERRES
    81   39  164 1    
    82   40   41 2    
    83   40   42 1    
    84   42   43 1    
    85   42   44 1    
    86   42  165 1    
    87   43  166 1    
    88   43  167 1    
    89   43  168 1    
    90   44   45 am   BACKBONE|DICT|INTERRES
    91   44  169 1    
    92   45   46 2    
    93   45   47 1    
    94   47   48 1    
    95   47   49 1    
    96   47  170 1    
    97   48  171 1    
    98   48  172 1    
    99   48  173 1    
   100   49   50 am   BACKBONE|DICT|INTERRES
   101   49  174 1    
   102   50   51 2    
   103   50   52 1    
   104   52   53 1    
   105   52   54 1    
   106   52  175 1    
   107   53  176 1    
   108   53  177 1    
   109   53  178 1    
   110   54   55 am   BACKBONE|DICT|INTERRES
   111   54  179 1    
   112   55   56 2    
   113   55   57 1    
   114   57   58 1    
   115   57   59 1    
   116   57  180 1    
   117   58  181 1    
   118   58  182 1    
   119   58  183 1    
   120   59   60 am   BACKBONE|DICT|INTERRES
   121   59  184 1    
   122   60   61 2    
   123   60   62 1    
   124   62   63 1    
   125   62   64 1    
   126   62  185 1    
   127   63  186 1    
   128   63  187 1    
   129   63  188 1    
   130   64   65 am   BACKBONE|DICT|INTERRES
   131   64  189 1    
   132   65   66 2    
   133   67   68 2    
   134   67   69 am   BACKBONE|DICT|INTERRES
   135   69   70 1    
   136   69  190 1    
   137   70   71 1    
   138   70   72 1    
   139   70  191 1    
   140   71  192 1    
   141   71  193 1    
   142   71  194 1    
   143   72   73 2    
   144   72   74 am   BACKBONE|DICT|INTERRES
   145   74   75 1    
   146   74  195 1    
   147   75   76 1    
   148   75   77 1    
   149   75  196 1    
   150   76  197 1    
   151   76  198 1    
   152   76  199 1    
   153   77   78 2    
   154   77   79 am   BACKBONE|DICT|INTERRES
   155   79   80 1    
   156   79  200 1    
   157   80   81 1    
   158   80   82 1    
   159   80  201 1    
   160   81  202 1    
   161   81  203 1    
   162   81  204 1    
   163   82   83 2    
   164   82   84 am   BACKBONE|DICT|INTERRES
   165   84   85 1    
   166   84  205 1    
   167   85   86 1    
   168   85   87 1    
   169   85  206 1    
   170   86  207 1    
   171   86  208 1    
   172   86  209 1    
   173   87   88 2    
   174   87   89 am   BACKBONE|DICT|INTERRES
   175   89   90 1    
   176   89  210 1    
   177   90   91 1    
   178   90   92 1    
   179   90  211 1    
   180   91  212 1    
   181   91  213 1    
   182   91  214 1    
   183   92   93 2    
   184   92   94 am   BACKBONE|DICT|INTERRES
   185   94   95 1    
   186   94  215 1    
   187   95   96 1    
   188   95   97 1    
   189   95  216 1    
   190   96  217 1    
   191   96  218 1    
   192   96  219 1    
   193   97   98 2    
   194   97   99 am   BACKBONE|DICT|INTERRES
   195   99  100 1    
   196   99  220 1    
   197  100  101 1    
   198  100  102 1    
   199  100  221 1    
   200  101  222 1    
   201  101  223 1    
   202  101  224 1    
   203  102  103 2    
   204  102  104 am   BACKBONE|DICT|INTERRES
   205  104  105 1    
   206  104  225 1    
   207  105  106 1    
   208  105  107 1    
   209  105  226 1    
   210  106  227 1    
   211  106  228 1    
   212  106  229 1    
   213  107  108 2    
   214  107  109 am   BACKBONE|DICT|INTERRES
   215  109  110 1    
   216  109  230 1    
   217  110  111 1    
   218  110  112 1    
   219  110  231 1    
   220  111  232 1    
   221  111  233 1    
   222  111  234 1    
   223  112  113 2    
   224  112  114 am   BACKBONE|DICT|INTERRES
   225  114  115 1    
   226  114  235 1    
   227  115  116 1    
   228  115  117 1    
   229  115  236 1    
   230  116  237 1    
   231  116  238 1    
   232  116  239 1    
   233  117  118 2    
   234  117  119 am   BACKBONE|DICT|INTERRES
   235  119  120 1    
   236  119  240 1    
   237  120  121 1    
   238  120  124 1    
   239  120  241 1    
   240  121  122 am   BACKBONE|DICT|INTERRES
   241  121  123 2    
   242  122  242 1    
   243  122  243 1    
   244  124  125 1    
   245  124  244 1    
   246  124  245 1    
   247  125  126 1    
   248  126  246 1    
   249  126  247 1    
@<TRIPOS>SUBSTRUCTURE
     1 UNK         1 GROUP             0       ****    0 ROOT    
