@<TRIPOS>MOLECULE
3R540
247   249    1
SMALL
USER_CHARGES


@<TRIPOS>ATOM
      1 CA         -2.9874  -16.4035  -48.7616 C.3       0 UNK        -0.1800 
      2 C          -2.4404  -14.9904  -48.8731 C.2       0 UNK         0.5000 
      3 O          -3.1231  -14.0391  -48.4948 O.2       0 UNK        -0.5000 
      4 N          -1.2109  -14.8525  -49.3897 N.am      1 UNK        -0.5000 
      5 CA         -0.5124  -13.5681  -49.5529 C.3       1 UNK         0.1400 
      6 C6          0.6920  -13.6738  -50.5193 C.3       23 UNK        -0.0398 
      7 S7          0.1678  -14.1091  -52.2180 S.3       23 UNK        -0.2404 
      8 C8          1.4959  -15.2232  -52.7785 C.3       23 UNK        -0.0205 
      9 C9          1.1545  -16.6883  -52.5466 C.ar      23 UNK        -0.0193 
     10 C10         0.6838  -17.4828  -53.5993 C.ar      23 UNK        -0.1150 
     11 C11         0.3945  -18.8383  -53.3958 C.ar      23 UNK        -0.0193 
     12 C12         0.5608  -19.3865  -52.1224 C.ar      23 UNK        -0.1150 
     13 C13         1.0129  -18.5998  -51.0626 C.ar      23 UNK        -0.0193 
     14 C14         1.3212  -17.2558  -51.2812 C.ar      23 UNK        -0.1150 
     15 C15         1.1322  -19.1977  -49.6751 C.3       23 UNK        -0.0205 
     16 S16        -0.5133  -19.3501  -48.9242 S.3       23 UNK        -0.2404 
     17 C17        -0.0680  -19.7301  -47.2007 C.3       23 UNK        -0.0398 
     18 CA         -0.0893  -21.2314  -46.8228 C.3       11 UNK         0.1400 
     19 N           0.2923  -21.4121  -45.4212 N.am      11 UNK        -0.5000 
     20 C           0.4519  -22.5795  -44.7848 C.2       10 UNK         0.5000 
     21 O           0.3416  -23.6772  -45.3263 O.2       10 UNK        -0.5000 
     22 CA          0.7317  -22.5077  -43.2733 C.3       10 UNK         0.1400 
     23 CB          2.2116  -22.1976  -43.0055 C.3       10 UNK        -0.1800 
     24 N          -0.1117  -21.5241  -42.5915 N.am      10 UNK        -0.5000 
     25 C          -1.4493  -21.5933  -42.5181 C.2       9 UNK         0.5000 
     26 O          -2.1139  -22.5177  -42.9881 O.2       9 UNK        -0.5000 
     27 CA         -2.1686  -20.4071  -41.8498 C.3       9 UNK         0.1400 
     28 CB         -2.0565  -20.4833  -40.3197 C.3       9 UNK        -0.1800 
     29 N          -1.6693  -19.1131  -42.3161 N.am      9 UNK        -0.5000 
     30 C          -1.7657  -18.6749  -43.5797 C.2       8 UNK         0.5000 
     31 O          -2.3232  -19.2998  -44.4825 O.2       8 UNK        -0.5000 
     32 CA         -1.0773  -17.3352  -43.8993 C.3       8 UNK         0.1400 
     33 CB         -1.9401  -16.1560  -43.4251 C.3       8 UNK        -0.1800 
     34 N           0.2596  -17.2388  -43.3100 N.am      8 UNK        -0.5000 
     35 C           1.2835  -18.0560  -43.5973 C.2       7 UNK         0.5000 
     36 O           1.2271  -18.9511  -44.4363 O.2       7 UNK        -0.5000 
     37 CA          2.5704  -17.8861  -42.7748 C.3       7 UNK         0.1400 
     38 CB          3.4412  -16.7528  -43.3376 C.3       7 UNK        -0.1800 
     39 N           2.2843  -17.6508  -41.3604 N.am      7 UNK        -0.5000 
     40 C           1.7485  -18.5653  -40.5382 C.2       6 UNK         0.5000 
     41 O           1.4749  -19.7161  -40.8788 O.2       6 UNK        -0.5000 
     42 CA          1.4246  -18.0986  -39.1079 C.3       6 UNK         0.1400 
     43 CB          2.6667  -18.1995  -38.2104 C.3       6 UNK        -0.1800 
     44 N           0.9107  -16.7286  -39.0750 N.am      6 UNK        -0.5000 
     45 C          -0.2733  -16.3536  -39.5798 C.2       5 UNK         0.5000 
     46 O          -1.0798  -17.1356  -40.0845 O.2       5 UNK        -0.5000 
     47 CA         -0.5732  -14.8418  -39.5680 C.3       5 UNK         0.1400 
     48 CB         -1.1439  -14.4115  -38.2086 C.3       5 UNK        -0.1800 
     49 N           0.6043  -14.0246  -39.8874 N.am      5 UNK        -0.5000 
     50 C           1.2332  -14.0551  -41.0687 C.2       4 UNK         0.5000 
     51 O           0.8717  -14.7688  -42.0099 O.2       4 UNK        -0.5000 
     52 CA          2.4919  -13.1871  -41.2214 C.3       4 UNK         0.1400 
     53 CB          3.6825  -13.8005  -40.4620 C.3       4 UNK        -0.1800 
     54 N           2.7864  -13.1233  -42.6454 N.am      4 UNK        -0.5000 
     55 C           3.5550  -12.2454  -43.2966 C.2       3 UNK         0.5000 
     56 O           4.2147  -11.3649  -42.7436 O.2       3 UNK        -0.5000 
     57 CA          3.5695  -12.3684  -44.8381 C.3       3 UNK         0.1400 
     58 CB          4.7991  -13.1660  -45.2991 C.3       3 UNK        -0.1800 
     59 N           2.3601  -13.0059  -45.3771 N.am      3 UNK        -0.5000 
     60 C           1.1335  -12.4703  -45.3113 C.2       2 UNK         0.5000 
     61 O           0.9106  -11.3249  -44.9139 O.2       2 UNK        -0.5000 
     62 CA         -0.0268  -13.3978  -45.7195 C.3       2 UNK         0.1400 
     63 CB         -1.4040  -12.8407  -45.3030 C.3       2 UNK        -0.1800 
     64 N          -0.0445  -13.7570  -47.1404 N.am      2 UNK        -0.5000 
     65 C          -0.1134  -12.9314  -48.1984 C.2       1 UNK         0.5000 
     66 O           0.0623  -11.7141  -48.1391 O.2       1 UNK        -0.5000 
     67 C          -1.4437  -21.9009  -47.1293 C.2       11 UNK         0.5000 
     68 O          -1.5247  -22.7051  -48.0587 O.2       11 UNK        -0.5000 
     69 N          -2.4648  -21.5933  -46.3169 N.am      12 UNK        -0.5000 
     70 CA         -3.8051  -22.1672  -46.4250 C.3       12 UNK         0.1400 
     71 CB         -4.7420  -21.4758  -45.4244 C.3       12 UNK        -0.1800 
     72 C          -3.8285  -23.6945  -46.2407 C.2       12 UNK         0.5000 
     73 O          -4.5537  -24.3744  -46.9647 O.2       12 UNK        -0.5000 
     74 N          -3.0164  -24.2096  -45.3085 N.am      13 UNK        -0.5000 
     75 CA         -2.8448  -25.6424  -45.0766 C.3       13 UNK         0.1400 
     76 CB         -2.1019  -25.8620  -43.7495 C.3       13 UNK        -0.1800 
     77 C          -2.1213  -26.3525  -46.2374 C.2       13 UNK         0.5000 
     78 O          -2.5743  -27.4106  -46.6750 O.2       13 UNK        -0.5000 
     79 N          -1.0107  -25.7681  -46.7063 N.am      14 UNK        -0.5000 
     80 CA         -0.1377  -26.3471  -47.7265 C.3       14 UNK         0.1400 
     81 CB          1.2252  -25.6373  -47.7005 C.3       14 UNK        -0.1800 
     82 C          -0.7371  -26.3049  -49.1412 C.2       14 UNK         0.5000 
     83 O          -0.7193  -27.3226  -49.8350 O.2       14 UNK        -0.5000 
     84 N          -1.2357  -25.1323  -49.5543 N.am      15 UNK        -0.5000 
     85 CA         -1.7363  -24.8936  -50.9103 C.3       15 UNK         0.1400 
     86 CB         -1.4629  -23.4311  -51.2946 C.3       15 UNK        -0.1800 
     87 C          -3.2290  -25.2325  -51.0731 C.2       15 UNK         0.5000 
     88 O          -3.7167  -25.2394  -52.2039 O.2       15 UNK        -0.5000 
     89 N          -3.9343  -25.4772  -49.9576 N.am      16 UNK        -0.5000 
     90 CA         -5.3620  -25.8026  -49.8120 C.3       16 UNK         0.1400 
     91 CB         -5.7365  -27.0840  -50.5814 C.3       16 UNK        -0.1800 
     92 C          -6.3080  -24.6372  -50.1640 C.2       16 UNK         0.5000 
     93 O          -7.1954  -24.3115  -49.3755 O.2       16 UNK        -0.5000 
     94 N          -6.0880  -24.0169  -51.3277 N.am      17 UNK        -0.5000 
     95 CA         -6.7991  -22.8361  -51.8183 C.3       17 UNK         0.1400 
     96 CB         -6.9617  -22.9676  -53.3415 C.3       17 UNK        -0.1800 
     97 C          -6.0783  -21.5226  -51.4486 C.2       17 UNK         0.5000 
     98 O          -6.5559  -20.4501  -51.8202 O.2       17 UNK        -0.5000 
     99 N          -4.9411  -21.6198  -50.7417 N.am      18 UNK        -0.5000 
    100 CA        -4.0514  -20.5227  -50.3512 C.3       18 UNK         0.1400 
    101 CB        -4.7487  -19.5997  -49.3269 C.3       18 UNK        -0.1800 
    102 C         -3.4939  -19.8022  -51.5991 C.2       18 UNK         0.5000 
    103 O         -2.9781  -20.4744  -52.4938 O.2       18 UNK        -0.5000 
    104 N         -3.6297  -18.4704  -51.6681 N.am      19 UNK        -0.5000 
    105 CA        -3.1746  -17.6450  -52.7908 C.3       19 UNK         0.1400 
    106 CB        -3.3141  -16.1588  -52.4342 C.3       19 UNK        -0.1800 
    107 C         -3.8811  -17.9451  -54.1263 C.2       19 UNK         0.5000 
    108 O         -3.2806  -17.7404  -55.1817 O.2       19 UNK        -0.5000 
    109 N         -5.1219  -18.4535  -54.0728 N.am      20 UNK        -0.5000 
    110 CA        -5.9168  -18.8025  -55.2537 C.3       20 UNK         0.1400 
    111 CB        -7.3766  -19.0455  -54.8464 C.3       20 UNK        -0.1800 
    112 C         -5.3523  -19.9968  -56.0489 C.2       20 UNK         0.5000 
    113 O         -5.6554  -20.1198  -57.2363 O.2       20 UNK        -0.5000 
    114 N         -4.4933  -20.8150  -55.4190 N.am      21 UNK        -0.5000 
    115 CA        -3.7360  -21.8887  -56.0718 C.3       21 UNK         0.1400 
    116 CB        -3.0130  -22.7189  -54.9997 C.3       21 UNK        -0.1800 
    117 C         -2.7199  -21.3729  -57.1147 C.2       21 UNK         0.5000 
    118 O         -2.3329  -22.1275  -58.0075 O.2       21 UNK        -0.5000 
    119 N         -2.3200  -20.1022  -56.9848 N.am      22 UNK        -0.5000 
    120 CA        -1.4076  -19.3835  -57.8847 C.3       22 UNK         0.1400 
    121 C         -2.1581  -18.5182  -58.9412 C.2       22 UNK         0.5000 
    122 N         -3.4837  -18.5614  -59.0303 N.am      22 UNK        -0.7600 
    123 O         -1.5254  -17.8049  -59.7151 O.2       22 UNK        -0.5000 
    124 C124       -0.3764  -18.5468  -57.0784 C.3       23 UNK        -0.0398 
    125 S125        0.7436  -19.5940  -56.0836 S.3       23 UNK        -0.2404 
    126 C126       -0.1639  -19.7182  -54.5069 C.3       23 UNK        -0.0205 
    127 H127       -2.3987  -17.1049  -49.3517 H         1 UNK         0.0600 
    128 H128       -2.9747  -16.7321  -47.7223 H         1 UNK         0.0600 
    129 H129       -4.0160  -16.4354  -49.1201 H         1 UNK         0.0600 
    130 H130       -0.7138  -15.6682  -49.7176 H         1 UNK         0.3000 
    131 H131       -1.2251  -12.8740  -50.0044 H         1 UNK         0.0600 
    132 H132        1.4184  -14.3956  -50.1463 H         1 UNK         0.0800 
    133 H133        1.2178  -12.7191  -50.5798 H         1 UNK         0.0800 
    134 H134        2.4355  -14.9720  -52.2844 H         1 UNK         0.0800 
    135 H135        1.6636  -15.0481  -53.8423 H         1 UNK         0.0800 
    136 H136        0.5415  -17.0449  -54.5767 H         1 UNK         0.1150 
    137 H137        0.3078  -20.4224  -51.9430 H         1 UNK         0.1150 
    138 H138        1.6817  -16.6509  -50.4625 H         1 UNK         0.1150 
    139 H139        1.6036  -20.1803  -49.7286 H         1 UNK         0.0800 
    140 H140        1.7730  -18.5740  -49.0499 H         1 UNK         0.0800 
    141 H141       -0.7541  -19.1719  -46.5649 H         1 UNK         0.0800 
    142 H142        0.9198  -19.3167  -46.9965 H         1 UNK         0.0800 
    143 H143        0.6656  -21.7391  -47.4265 H         1 UNK         0.0600 
    144 H144        0.4612  -20.5551  -44.8992 H         1 UNK         0.3000 
    145 H145        0.5083  -23.4883  -42.8482 H         1 UNK         0.0600 
    146 H146        2.4317  -22.2210  -41.9381 H         1 UNK         0.0600 
    147 H147        2.8580  -22.9319  -43.4877 H         1 UNK         0.0600 
    148 H148        2.4924  -21.2140  -43.3826 H         1 UNK         0.0600 
    149 H149        0.3664  -20.7482  -42.1429 H         1 UNK         0.3000 
    150 H150       -3.2261  -20.4700  -42.1149 H         1 UNK         0.0600 
    151 H151       -2.4484  -21.4302  -39.9465 H         1 UNK         0.0600 
    152 H152       -2.6254  -19.6845  -39.8436 H         1 UNK         0.0600 
    153 H153       -1.0225  -20.4005  -39.9847 H         1 UNK         0.0600 
    154 H154       -1.2287  -18.5156  -41.6246 H         1 UNK         0.3000 
    155 H155       -0.9667  -17.2611  -44.9828 H         1 UNK         0.0600 
    156 H156       -2.1476  -16.2087  -42.3566 H         1 UNK         0.0600 
    157 H157       -2.8990  -16.1427  -43.9444 H         1 UNK         0.0600 
    158 H158       -1.4518  -15.2022  -43.6157 H         1 UNK         0.0600 
    159 H159        0.4083  -16.4890  -42.6403 H         1 UNK         0.3000 
    160 H160        3.1400  -18.8147  -42.8508 H         1 UNK         0.0600 
    161 H161        4.3567  -16.6303  -42.7588 H         1 UNK         0.0600 
    162 H162        2.9154  -15.8004  -43.3420 H         1 UNK         0.0600 
    163 H163        3.7340  -16.9655  -44.3665 H         1 UNK         0.0600 
    164 H164        2.4395  -16.7184  -41.0109 H         1 UNK         0.3000 
    165 H165        0.6562  -18.7625  -38.7058 H         1 UNK         0.0600 
    166 H166        2.4296  -17.9388  -37.1788 H         1 UNK         0.0600 
    167 H167        3.0617  -19.2164  -38.2049 H         1 UNK         0.0600 
    168 H168        3.4657  -17.5386  -38.5490 H         1 UNK         0.0600 
    169 H169        1.5107  -16.0229  -38.6745 H         1 UNK         0.3000 
    170 H170       -1.3315  -14.6515  -40.3307 H         1 UNK         0.0600 
    171 H171       -2.0306  -14.9945  -37.9559 H         1 UNK         0.0600 
    172 H172       -0.4203  -14.5487  -37.4042 H         1 UNK         0.0600 
    173 H173       -1.4392  -13.3622  -38.2197 H         1 UNK         0.0600 
    174 H174        0.9491  -13.4184  -39.1568 H         1 UNK         0.3000 
    175 H175        2.2786  -12.1836  -40.8484 H         1 UNK         0.0600 
    176 H176        3.9184  -14.8018  -40.8236 H         1 UNK         0.0600 
    177 H177        4.5783  -13.1892  -40.5714 H         1 UNK         0.0600 
    178 H178        3.4742  -13.8751  -39.3942 H         1 UNK         0.0600 
    179 H179        2.2411  -13.7847  -43.1831 H         1 UNK         0.3000 
    180 H180        3.6378  -11.3596  -45.2506 H         1 UNK         0.0600 
    181 H181        4.7784  -14.1904  -44.9250 H         1 UNK         0.0600 
    182 H182        5.7203  -12.7046  -44.9405 H         1 UNK         0.0600 
    183 H183        4.8594  -13.2055  -46.3869 H         1 UNK         0.0600 
    184 H184        2.4678  -13.9374  -45.7516 H         1 UNK         0.3000 
    185 H185        0.1231  -14.3294  -45.1719 H         1 UNK         0.0600 
    186 H186       -1.4384  -12.6436  -44.2307 H         1 UNK         0.0600 
    187 H187       -1.6363  -11.9070  -45.8165 H         1 UNK         0.0600 
    188 H188       -2.2002  -13.5505  -45.5283 H         1 UNK         0.0600 
    189 H189       -0.1792  -14.7391  -47.3316 H         1 UNK         0.3000 
    190 H190       -2.3232  -20.9083  -45.5793 H         1 UNK         0.3000 
    191 H191       -4.1694  -21.9614  -47.4325 H         1 UNK         0.0600 
    192 H192       -4.4034  -21.6124  -44.3968 H         1 UNK         0.0600 
    193 H193       -5.7543  -21.8755  -45.4953 H         1 UNK         0.0600 
    194 H194       -4.8003  -20.4043  -45.6169 H         1 UNK         0.0600 
    195 H195       -2.4825  -23.5798  -44.7186 H         1 UNK         0.3000 
    196 H196       -3.8367  -26.0892  -44.9815 H         1 UNK         0.0600 
    197 H197       -1.9783  -26.9255  -43.5422 H         1 UNK         0.0600 
    198 H198       -2.6529  -25.4289  -42.9145 H         1 UNK         0.0600 
    199 H199       -1.1092  -25.4116  -43.7617 H         1 UNK         0.0600 
    200 H200       -0.6827  -24.9101  -46.2679 H         1 UNK         0.3000 
    201 H201        0.0305  -27.3954  -47.4705 H         1 UNK         0.0600 
    202 H202        1.7076  -25.7485  -46.7292 H         1 UNK         0.0600 
    203 H203        1.1276  -24.5700  -47.9040 H         1 UNK         0.0600 
    204 H204        1.9001  -26.0553  -48.4484 H         1 UNK         0.0600 
    205 H205       -1.2400  -24.3335  -48.9221 H         1 UNK         0.3000 
    206 H206       -1.1879  -25.5232  -51.6142 H         1 UNK         0.0600 
    207 H207       -0.4017  -23.1935  -51.2216 H         1 UNK         0.0600 
    208 H208       -1.7705  -23.2289  -52.3206 H         1 UNK         0.0600 
    209 H209       -2.0032  -22.7395  -50.6522 H         1 UNK         0.0600 
    210 H210       -3.4343  -25.4035  -49.0818 H         1 UNK         0.3000 
    211 H211       -5.5093  -26.0180  -48.7531 H         1 UNK         0.0600 
    212 H212       -5.6529  -26.9572  -51.6609 H         1 UNK         0.0600 
    213 H213       -6.7660  -27.3749  -50.3692 H         1 UNK         0.0600 
    214 H214       -5.0970  -27.9176  -50.2910 H         1 UNK         0.0600 
    215 H215       -5.3242  -24.3674  -51.9022 H         1 UNK         0.3000 
    216 H216       -7.7956  -22.7964  -51.3741 H         1 UNK         0.0600 
    217 H217       -7.5892  -22.1709  -53.7394 H         1 UNK         0.0600 
    218 H218       -7.4382  -23.9114  -53.6071 H         1 UNK         0.0600 
    219 H219       -6.0029  -22.9208  -53.8567 H         1 UNK         0.0600 
    220 H220       -4.6222  -22.5486  -50.5122 H         1 UNK         0.3000 
    221 H221       -3.1977  -20.9754  -49.8469 H         1 UNK         0.0600 
    222 H222       -5.5256  -18.9824  -49.7790 H         1 UNK         0.0600 
    223 H223       -5.2213  -20.1784  -48.5341 H         1 UNK         0.0600 
    224 H224       -4.0262  -18.9432  -48.8451 H         1 UNK         0.0600 
    225 H225       -4.0977  -17.9934  -50.9129 H         1 UNK         0.3000 
    226 H226       -2.1151  -17.8493  -52.9385 H         1 UNK         0.0600 
    227 H227       -4.3290  -15.9069  -52.1250 H         1 UNK         0.0600 
    228 H228       -2.6325  -15.8880  -51.6312 H         1 UNK         0.0600 
    229 H229       -3.0606  -15.5245  -53.2850 H         1 UNK         0.0600 
    230 H230       -5.5372  -18.6469  -53.1708 H         1 UNK         0.3000 
    231 H231       -5.9018  -17.9410  -55.9249 H         1 UNK         0.0600 
    232 H232       -7.7947  -18.1776  -54.3363 H         1 UNK         0.0600 
    233 H233       -7.4739  -19.9027  -54.1836 H         1 UNK         0.0600 
    234 H234       -7.9984  -19.2384  -55.7216 H         1 UNK         0.0600 
    235 H235       -4.2678  -20.6306  -54.4494 H         1 UNK         0.3000 
    236 H236       -4.4466  -22.5361  -56.5894 H         1 UNK         0.0600 
    237 H237       -2.5104  -23.5783  -55.4448 H         1 UNK         0.0600 
    238 H238       -2.2544  -22.1297  -54.4845 H         1 UNK         0.0600 
    239 H239       -3.7037  -23.1019  -54.2493 H         1 UNK         0.0600 
    240 H240       -2.7242  -19.5385  -56.2473 H         1 UNK         0.3000 
    241 H241       -0.8436  -20.1122  -58.4695 H         1 UNK         0.0600 
    242 H242       -3.9484  -18.0002  -59.7266 H         1 UNK         0.3800 
    243 H243       -4.0298  -19.1600  -58.4258 H         1 UNK         0.3800 
    244 H244        0.2549  -17.9655  -57.7524 H         1 UNK         0.0800 
    245 H245       -0.8785  -17.8210  -56.4373 H         1 UNK         0.0800 
    246 H246       -0.1419  -20.7654  -54.2017 H         1 UNK         0.0800 
    247 H247       -1.2154  -19.4739  -54.6424 H         1 UNK         0.0800 
@<TRIPOS>BOND
     1    1    2 1    
     2    1  127 1    
     3    1  128 1    
     4    1  129 1    
     5    2    3 2    
     6    2    4 am   BACKBONE|DICT|INTERRES
     7    4    5 1    
     8    4  130 1    
     9    5    6 1    
    10    5   65 1    
    11    5  131 1    
    12    6    7 1    
    13    6  132 1    
    14    6  133 1    
    15    7    8 1    
    16    8    9 1    
    17    8  134 1    
    18    8  135 1    
    19    9   10 ar   
    20    9   14 ar   
    21   10   11 ar   
    22   10  136 1    
    23   11   12 ar   
    24   11  126 1    
    25   12   13 ar   
    26   12  137 1    
    27   13   14 ar   
    28   13   15 1    
    29   14  138 1    
    30   15   16 1    
    31   15  139 1    
    32   15  140 1    
    33   16   17 1    
    34   17   18 1    
    35   17  141 1    
    36   17  142 1    
    37   18   19 1    
    38   18   67 1    
    39   18  143 1    
    40   19   20 am   BACKBONE|DICT|INTERRES
    41   19  144 1    
    42   20   21 2    
    43   20   22 1    
    44   22   23 1    
    45   22   24 1    
    46   22  145 1    
    47   23  146 1    
    48   23  147 1    
    49   23  148 1    
    50   24   25 am   BACKBONE|DICT|INTERRES
    51   24  149 1    
    52   25   26 2    
    53   25   27 1    
    54   27   28 1    
    55   27   29 1    
    56   27  150 1    
    57   28  151 1    
    58   28  152 1    
    59   28  153 1    
    60   29   30 am   BACKBONE|DICT|INTERRES
    61   29  154 1    
    62   30   31 2    
    63   30   32 1    
    64   32   33 1    
    65   32   34 1    
    66   32  155 1    
    67   33  156 1    
    68   33  157 1    
    69   33  158 1    
    70   34   35 am   BACKBONE|DICT|INTERRES
    71   34  159 1    
    72   35   36 2    
    73   35   37 1    
    74   37   38 1    
    75   37   39 1    
    76   37  160 1    
    77   38  161 1    
    78   38  162 1    
    79   38  163 1    
    80   39   40 am   BACKBONE|DICT|INTERRES
    81   39  164 1    
    82   40   41 2    
    83   40   42 1    
    84   42   43 1    
    85   42   44 1    
    86   42  165 1    
    87   43  166 1    
    88   43  167 1    
    89   43  168 1    
    90   44   45 am   BACKBONE|DICT|INTERRES
    91   44  169 1    
    92   45   46 2    
    93   45   47 1    
    94   47   48 1    
    95   47   49 1    
    96   47  170 1    
    97   48  171 1    
    98   48  172 1    
    99   48  173 1    
   100   49   50 am   BACKBONE|DICT|INTERRES
   101   49  174 1    
   102   50   51 2    
   103   50   52 1    
   104   52   53 1    
   105   52   54 1    
   106   52  175 1    
   107   53  176 1    
   108   53  177 1    
   109   53  178 1    
   110   54   55 am   BACKBONE|DICT|INTERRES
   111   54  179 1    
   112   55   56 2    
   113   55   57 1    
   114   57   58 1    
   115   57   59 1    
   116   57  180 1    
   117   58  181 1    
   118   58  182 1    
   119   58  183 1    
   120   59   60 am   BACKBONE|DICT|INTERRES
   121   59  184 1    
   122   60   61 2    
   123   60   62 1    
   124   62   63 1    
   125   62   64 1    
   126   62  185 1    
   127   63  186 1    
   128   63  187 1    
   129   63  188 1    
   130   64   65 am   BACKBONE|DICT|INTERRES
   131   64  189 1    
   132   65   66 2    
   133   67   68 2    
   134   67   69 am   BACKBONE|DICT|INTERRES
   135   69   70 1    
   136   69  190 1    
   137   70   71 1    
   138   70   72 1    
   139   70  191 1    
   140   71  192 1    
   141   71  193 1    
   142   71  194 1    
   143   72   73 2    
   144   72   74 am   BACKBONE|DICT|INTERRES
   145   74   75 1    
   146   74  195 1    
   147   75   76 1    
   148   75   77 1    
   149   75  196 1    
   150   76  197 1    
   151   76  198 1    
   152   76  199 1    
   153   77   78 2    
   154   77   79 am   BACKBONE|DICT|INTERRES
   155   79   80 1    
   156   79  200 1    
   157   80   81 1    
   158   80   82 1    
   159   80  201 1    
   160   81  202 1    
   161   81  203 1    
   162   81  204 1    
   163   82   83 2    
   164   82   84 am   BACKBONE|DICT|INTERRES
   165   84   85 1    
   166   84  205 1    
   167   85   86 1    
   168   85   87 1    
   169   85  206 1    
   170   86  207 1    
   171   86  208 1    
   172   86  209 1    
   173   87   88 2    
   174   87   89 am   BACKBONE|DICT|INTERRES
   175   89   90 1    
   176   89  210 1    
   177   90   91 1    
   178   90   92 1    
   179   90  211 1    
   180   91  212 1    
   181   91  213 1    
   182   91  214 1    
   183   92   93 2    
   184   92   94 am   BACKBONE|DICT|INTERRES
   185   94   95 1    
   186   94  215 1    
   187   95   96 1    
   188   95   97 1    
   189   95  216 1    
   190   96  217 1    
   191   96  218 1    
   192   96  219 1    
   193   97   98 2    
   194   97   99 am   BACKBONE|DICT|INTERRES
   195   99  100 1    
   196   99  220 1    
   197  100  101 1    
   198  100  102 1    
   199  100  221 1    
   200  101  222 1    
   201  101  223 1    
   202  101  224 1    
   203  102  103 2    
   204  102  104 am   BACKBONE|DICT|INTERRES
   205  104  105 1    
   206  104  225 1    
   207  105  106 1    
   208  105  107 1    
   209  105  226 1    
   210  106  227 1    
   211  106  228 1    
   212  106  229 1    
   213  107  108 2    
   214  107  109 am   BACKBONE|DICT|INTERRES
   215  109  110 1    
   216  109  230 1    
   217  110  111 1    
   218  110  112 1    
   219  110  231 1    
   220  111  232 1    
   221  111  233 1    
   222  111  234 1    
   223  112  113 2    
   224  112  114 am   BACKBONE|DICT|INTERRES
   225  114  115 1    
   226  114  235 1    
   227  115  116 1    
   228  115  117 1    
   229  115  236 1    
   230  116  237 1    
   231  116  238 1    
   232  116  239 1    
   233  117  118 2    
   234  117  119 am   BACKBONE|DICT|INTERRES
   235  119  120 1    
   236  119  240 1    
   237  120  121 1    
   238  120  124 1    
   239  120  241 1    
   240  121  122 am   BACKBONE|DICT|INTERRES
   241  121  123 2    
   242  122  242 1    
   243  122  243 1    
   244  124  125 1    
   245  124  244 1    
   246  124  245 1    
   247  125  126 1    
   248  126  246 1    
   249  126  247 1    
@<TRIPOS>SUBSTRUCTURE
     1 UNK         1 GROUP             0       ****    0 ROOT    
