@<TRIPOS>MOLECULE
3R540
247   249    1
SMALL
USER_CHARGES


@<TRIPOS>ATOM
      1 CA         -4.8522  -14.7185  -46.3532 C.3       0 UNK        -0.1800 
      2 C          -4.1377  -13.6766  -47.1990 C.2       0 UNK         0.5000 
      3 O          -4.6082  -12.5446  -47.3123 O.2       0 UNK        -0.5000 
      4 N          -2.9868  -14.0437  -47.7733 N.am      1 UNK        -0.5000 
      5 CA         -2.1257  -13.2125  -48.6260 C.3       1 UNK         0.1400 
      6 C6         -1.2755  -14.0844  -49.5879 C.3       23 UNK        -0.0398 
      7 S7         -0.2337  -15.3272  -48.7423 S.3       23 UNK        -0.2404 
      8 C8         -0.8515  -16.8815  -49.4512 C.3       23 UNK        -0.0205 
      9 C9         -2.2239  -17.2651  -48.9178 C.ar      23 UNK        -0.0193 
     10 C10        -3.2981  -17.4381  -49.7926 C.ar      23 UNK        -0.1150 
     11 C11        -4.5407  -17.8728  -49.3213 C.ar      23 UNK        -0.0193 
     12 C12        -4.7010  -18.1337  -47.9583 C.ar      23 UNK        -0.1150 
     13 C13        -3.6382  -17.9518  -47.0700 C.ar      23 UNK        -0.0193 
     14 C14        -2.4118  -17.4932  -47.5529 C.ar      23 UNK        -0.1150 
     15 C15        -3.8188  -18.2585  -45.5934 C.3       23 UNK        -0.0205 
     16 S16        -3.3327  -19.9685  -45.2177 S.3       23 UNK        -0.2404 
     17 C17        -1.5399  -19.8231  -44.8634 C.3       23 UNK        -0.0398 
     18 CA         -0.5525  -20.0406  -46.0451 C.3       11 UNK         0.1400 
     19 N           0.8030  -20.2900  -45.5630 N.am      11 UNK        -0.5000 
     20 C           1.9160  -20.2477  -46.3084 C.2       10 UNK         0.5000 
     21 O           1.9313  -19.9524  -47.5036 O.2       10 UNK        -0.5000 
     22 CA          3.2344  -20.5892  -45.5946 C.3       10 UNK         0.1400 
     23 CB          3.7998  -19.3506  -44.8805 C.3       10 UNK        -0.1800 
     24 N           3.0570  -21.6681  -44.6227 N.am      10 UNK        -0.5000 
     25 C           3.1331  -22.9743  -44.9147 C.2       9 UNK         0.5000 
     26 O           3.3888  -23.4101  -46.0375 O.2       9 UNK        -0.5000 
     27 CA          2.9047  -23.9649  -43.7553 C.3       9 UNK         0.1400 
     28 CB          4.2447  -24.3533  -43.1117 C.3       9 UNK        -0.1800 
     29 N           2.0199  -23.4285  -42.7204 N.am      9 UNK        -0.5000 
     30 C           0.6873  -23.3513  -42.8366 C.2       8 UNK         0.5000 
     31 O           0.0618  -23.8127  -43.7883 O.2       8 UNK        -0.5000 
     32 CA         -0.0745  -22.6200  -41.7111 C.3       8 UNK         0.1400 
     33 CB         -0.6328  -23.6298  -40.6973 C.3       8 UNK        -0.1800 
     34 N           0.7275  -21.6173  -40.9992 N.am      8 UNK        -0.5000 
     35 C           1.2522  -20.5209  -41.5603 C.2       7 UNK         0.5000 
     36 O           1.1208  -20.2368  -42.7540 O.2       7 UNK        -0.5000 
     37 CA          2.1196  -19.6329  -40.6601 C.3       7 UNK         0.1400 
     38 CB          3.4551  -20.3324  -40.3376 C.3       7 UNK        -0.1800 
     39 N           2.3734  -18.3763  -41.3560 N.am      7 UNK        -0.5000 
     40 C           2.8187  -17.2445  -40.8023 C.2       6 UNK         0.5000 
     41 O           3.0454  -17.1177  -39.5982 O.2       6 UNK        -0.5000 
     42 CA          3.0725  -16.0535  -41.7460 C.3       6 UNK         0.1400 
     43 CB          4.5672  -15.9528  -42.0874 C.3       6 UNK        -0.1800 
     44 N           2.3158  -16.1000  -42.9985 N.am      6 UNK        -0.5000 
     45 C           1.0031  -15.8687  -43.1195 C.2       5 UNK         0.5000 
     46 O           0.2527  -15.7066  -42.1560 O.2       5 UNK        -0.5000 
     47 CA          0.4639  -15.7538  -44.5632 C.3       5 UNK         0.1400 
     48 CB         -1.0375  -15.4203  -44.6091 C.3       5 UNK        -0.1800 
     49 N           1.1973  -14.7314  -45.3141 N.am      5 UNK        -0.5000 
     50 C           2.3930  -14.9103  -45.8960 C.2       4 UNK         0.5000 
     51 O           2.9766  -15.9947  -45.9046 O.2       4 UNK        -0.5000 
     52 CA          3.0920  -13.6804  -46.5108 C.3       4 UNK         0.1400 
     53 CB          3.0248  -13.6973  -48.0444 C.3       4 UNK        -0.1800 
     54 N           2.5686  -12.4075  -46.0125 N.am      4 UNK        -0.5000 
     55 C           2.8294  -11.9153  -44.7925 C.2       3 UNK         0.5000 
     56 O           3.5774  -12.4672  -43.9846 O.2       3 UNK        -0.5000 
     57 CA          2.1416  -10.5938  -44.3929 C.3       3 UNK         0.1400 
     58 CB          3.1244   -9.4194  -44.5190 C.3       3 UNK        -0.1800 
     59 N           0.9298  -10.2776  -45.1543 N.am      3 UNK        -0.5000 
     60 C          -0.1981  -11.0005  -45.1566 C.2       2 UNK         0.5000 
     61 O          -0.3219  -12.0606  -44.5415 O.2       2 UNK        -0.5000 
     62 CA         -1.3880  -10.4647  -45.9833 C.3       2 UNK         0.1400 
     63 CB         -1.0848   -9.1711  -46.7735 C.3       2 UNK        -0.1800 
     64 N          -1.9391  -11.4868  -46.8764 N.am      2 UNK        -0.5000 
     65 C          -1.2926  -12.1727  -47.8293 C.2       1 UNK         0.5000 
     66 O          -0.1002  -11.9980  -48.0880 O.2       1 UNK        -0.5000 
     67 C          -0.9792  -21.1390  -47.0385 C.2       11 UNK         0.5000 
     68 O          -1.0525  -22.3088  -46.6618 O.2       11 UNK        -0.5000 
     69 N          -1.2588  -20.7355  -48.2849 N.am      12 UNK        -0.5000 
     70 CA         -1.5893  -21.6275  -49.3941 C.3       12 UNK         0.1400 
     71 CB         -1.6603  -20.8154  -50.6939 C.3       12 UNK        -0.1800 
     72 C          -2.8894  -22.4176  -49.1821 C.2       12 UNK         0.5000 
     73 O          -2.9643  -23.5686  -49.6126 O.2       12 UNK        -0.5000 
     74 N          -3.8793  -21.8020  -48.5223 N.am      13 UNK        -0.5000 
     75 CA         -5.1520  -22.4397  -48.1878 C.3       13 UNK         0.1400 
     76 CB         -6.1790  -21.3715  -47.7893 C.3       13 UNK        -0.1800 
     77 C          -4.9988  -23.4956  -47.0792 C.2       13 UNK         0.5000 
     78 O          -5.5617  -24.5832  -47.1990 O.2       13 UNK        -0.5000 
     79 N          -4.2125  -23.1753  -46.0416 N.am      14 UNK        -0.5000 
     80 CA         -3.9101  -24.0702  -44.9211 C.3       14 UNK         0.1400 
     81 CB         -3.2826  -23.2655  -43.7757 C.3       14 UNK        -0.1800 
     82 C          -3.0055  -25.2459  -45.3328 C.2       14 UNK         0.5000 
     83 O          -3.2037  -26.3624  -44.8524 O.2       14 UNK        -0.5000 
     84 N          -2.0718  -24.9881  -46.2586 N.am      15 UNK        -0.5000 
     85 CA         -1.2270  -25.9929  -46.9063 C.3       15 UNK         0.1400 
     86 CB         -0.0541  -25.2780  -47.5964 C.3       15 UNK        -0.1800 
     87 C          -1.9889  -26.8768  -47.9183 C.2       15 UNK         0.5000 
     88 O          -1.4371  -27.8824  -48.3665 O.2       15 UNK        -0.5000 
     89 N          -3.2239  -26.4824  -48.2687 N.am      16 UNK        -0.5000 
     90 CA         -4.1331  -27.1067  -49.2364 C.3       16 UNK         0.1400 
     91 CB         -4.5458  -28.5210  -48.7785 C.3       16 UNK        -0.1800 
     92 C          -3.6033  -27.0689  -50.6858 C.2       16 UNK         0.5000 
     93 O          -3.9625  -27.9230  -51.4983 O.2       16 UNK        -0.5000 
     94 N          -2.7684  -26.0674  -50.9854 N.am      17 UNK        -0.5000 
     95 CA         -2.2312  -25.7904  -52.3133 C.3       17 UNK         0.1400 
     96 CB         -0.8328  -25.1675  -52.1695 C.3       17 UNK        -0.1800 
     97 C          -3.1685  -24.8523  -53.0895 C.2       17 UNK         0.5000 
     98 O          -3.4629  -25.1206  -54.2547 O.2       17 UNK        -0.5000 
     99 N          -3.6251  -23.7875  -52.4099 N.am      18 UNK        -0.5000 
    100 CA        -4.4824  -22.7031  -52.8973 C.3       18 UNK         0.1400 
    101 CB        -5.9501  -23.1797  -52.9433 C.3       18 UNK        -0.1800 
    102 C         -3.9621  -22.0934  -54.2197 C.2       18 UNK         0.5000 
    103 O         -2.8305  -21.6056  -54.2489 O.2       18 UNK        -0.5000 
    104 N         -4.7749  -22.1639  -55.2839 N.am      19 UNK        -0.5000 
    105 CA        -4.4619  -21.7845  -56.6638 C.3       19 UNK         0.1400 
    106 CB        -3.4275  -22.7659  -57.2624 C.3       19 UNK        -0.1800 
    107 C         -4.0755  -20.2961  -56.8027 C.2       19 UNK         0.5000 
    108 O         -4.7116  -19.4455  -56.1767 O.2       19 UNK        -0.5000 
    109 N         -3.0603  -20.0036  -57.6283 N.am      20 UNK        -0.5000 
    110 CA        -2.6000  -18.6591  -57.9870 C.3       20 UNK         0.1400 
    111 CB        -1.4808  -18.7764  -59.0327 C.3       20 UNK        -0.1800 
    112 C         -2.1346  -17.7998  -56.7966 C.2       20 UNK         0.5000 
    113 O         -2.2624  -16.5760  -56.8546 O.2       20 UNK        -0.5000 
    114 N         -1.6507  -18.4431  -55.7239 N.am      21 UNK        -0.5000 
    115 CA        -1.2631  -17.7911  -54.4696 C.3       21 UNK         0.1400 
    116 CB        -0.5794  -18.8172  -53.5556 C.3       21 UNK        -0.1800 
    117 C         -2.4445  -17.1194  -53.7414 C.2       21 UNK         0.5000 
    118 O         -2.2310  -16.1447  -53.0202 O.2       21 UNK        -0.5000 
    119 N         -3.6608  -17.6310  -53.9680 N.am      22 UNK        -0.5000 
    120 CA        -4.9266  -17.0503  -53.4998 C.3       22 UNK         0.1400 
    121 C         -5.5611  -16.0491  -54.5116 C.2       22 UNK         0.5000 
    122 N         -4.9245  -15.7178  -55.6299 N.am      22 UNK        -0.7600 
    123 O         -6.6516  -15.5393  -54.2690 O.2       22 UNK        -0.5000 
    124 C124       -5.9339  -18.1507  -53.0697 C.3       23 UNK        -0.0398 
    125 S125       -5.3264  -19.1493  -51.6676 S.3       23 UNK        -0.2404 
    126 C126       -5.7149  -18.0367  -50.2758 C.3       23 UNK        -0.0205 
    127 H127       -5.4553  -15.3697  -46.9857 H         1 UNK         0.0600 
    128 H128       -4.1367  -15.3284  -45.8031 H         1 UNK         0.0600 
    129 H129       -5.5100  -14.2394  -45.6281 H         1 UNK         0.0600 
    130 H130       -2.6517  -14.9877  -47.6404 H         1 UNK         0.3000 
    131 H131       -2.7837  -12.6163  -49.2617 H         1 UNK         0.0600 
    132 H132       -0.6335  -13.4611  -50.2124 H         1 UNK         0.0800 
    133 H133       -1.9414  -14.5938  -50.2861 H         1 UNK         0.0800 
    134 H134       -0.1456  -17.6767  -49.2078 H         1 UNK         0.0800 
    135 H135       -0.8587  -16.8038  -50.5398 H         1 UNK         0.0800 
    136 H136       -3.1659  -17.2519  -50.8475 H         1 UNK         0.1150 
    137 H137       -5.6576  -18.4686  -47.5838 H         1 UNK         0.1150 
    138 H138       -1.5954  -17.3233  -46.8685 H         1 UNK         0.1150 
    139 H139       -3.2566  -17.5580  -44.9781 H         1 UNK         0.0800 
    140 H140       -4.8657  -18.1264  -45.3160 H         1 UNK         0.0800 
    141 H141       -1.3342  -20.5655  -44.0917 H         1 UNK         0.0800 
    142 H142       -1.3404  -18.8614  -44.3897 H         1 UNK         0.0800 
    143 H143       -0.4887  -19.1082  -46.5996 H         1 UNK         0.0600 
    144 H144        0.8939  -20.5032  -44.5739 H         1 UNK         0.3000 
    145 H145        3.9582  -20.8994  -46.3514 H         1 UNK         0.0600 
    146 H146        4.7339  -19.5804  -44.3679 H         1 UNK         0.0600 
    147 H147        4.0096  -18.5547  -45.5960 H         1 UNK         0.0600 
    148 H148        3.1027  -18.9506  -44.1451 H         1 UNK         0.0600 
    149 H149        2.7810  -21.3943  -43.6909 H         1 UNK         0.3000 
    150 H150        2.4533  -24.8677  -44.1730 H         1 UNK         0.0600 
    151 H151        4.9237  -24.7797  -43.8513 H         1 UNK         0.0600 
    152 H152        4.1051  -25.1015  -42.3312 H         1 UNK         0.0600 
    153 H153        4.7435  -23.4914  -42.6665 H         1 UNK         0.0600 
    154 H154        2.4559  -23.0555  -41.8906 H         1 UNK         0.3000 
    155 H155       -0.9167  -22.1017  -42.1730 H         1 UNK         0.0600 
    156 H156        0.1655  -24.1521  -40.1686 H         1 UNK         0.0600 
    157 H157       -1.2456  -24.3843  -41.1924 H         1 UNK         0.0600 
    158 H158       -1.2627  -23.1378  -39.9560 H         1 UNK         0.0600 
    159 H159        0.8870  -21.7887  -40.0166 H         1 UNK         0.3000 
    160 H160        1.5687  -19.4315  -39.7392 H         1 UNK         0.0600 
    161 H161        4.0776  -19.7208  -39.6845 H         1 UNK         0.0600 
    162 H162        4.0278  -20.5396  -41.2426 H         1 UNK         0.0600 
    163 H163        3.2943  -21.2809  -39.8242 H         1 UNK         0.0600 
    164 H164        2.1452  -18.3935  -42.3412 H         1 UNK         0.3000 
    165 H165        2.7846  -15.1463  -41.2106 H         1 UNK         0.0600 
    166 H166        4.7754  -15.0642  -42.6844 H         1 UNK         0.0600 
    167 H167        5.1729  -15.8844  -41.1828 H         1 UNK         0.0600 
    168 H168        4.9104  -16.8231  -42.6486 H         1 UNK         0.0600 
    169 H169        2.8518  -16.2062  -43.8528 H         1 UNK         0.3000 
    170 H170        0.6038  -16.7237  -45.0457 H         1 UNK         0.0600 
    171 H171       -1.6214  -16.1972  -44.1170 H         1 UNK         0.0600 
    172 H172       -1.2587  -14.4813  -44.1018 H         1 UNK         0.0600 
    173 H173       -1.3940  -15.3325  -45.6343 H         1 UNK         0.0600 
    174 H174        0.8065  -13.7970  -45.2863 H         1 UNK         0.3000 
    175 H175        4.1457  -13.7489  -46.2317 H         1 UNK         0.0600 
    176 H176        2.0117  -13.5325  -48.4062 H         1 UNK         0.0600 
    177 H177        3.6595  -12.9217  -48.4728 H         1 UNK         0.0600 
    178 H178        3.3650  -14.6537  -48.4434 H         1 UNK         0.0600 
    179 H179        1.9192  -11.9156  -46.6126 H         1 UNK         0.3000 
    180 H180        1.8555  -10.6872  -43.3433 H         1 UNK         0.0600 
    181 H181        3.4265   -9.2582  -45.5546 H         1 UNK         0.0600 
    182 H182        4.0294   -9.6017  -43.9378 H         1 UNK         0.0600 
    183 H183        2.6842   -8.4936  -44.1482 H         1 UNK         0.0600 
    184 H184        0.9550   -9.4315  -45.7045 H         1 UNK         0.3000 
    185 H185       -2.1735  -10.2339  -45.2627 H         1 UNK         0.0600 
    186 H186       -0.7908   -8.3586  -46.1079 H         1 UNK         0.0600 
    187 H187       -0.2883   -9.3121  -47.5051 H         1 UNK         0.0600 
    188 H188       -1.9687   -8.8316  -47.3137 H         1 UNK         0.0600 
    189 H189       -2.9221  -11.7055  -46.7485 H         1 UNK         0.3000 
    190 H190       -1.1875  -19.7547  -48.5097 H         1 UNK         0.3000 
    191 H191       -0.7765  -22.3504  -49.4888 H         1 UNK         0.0600 
    192 H192       -2.4685  -20.0839  -50.6721 H         1 UNK         0.0600 
    193 H193       -1.8306  -21.4660  -51.5524 H         1 UNK         0.0600 
    194 H194       -0.7278  -20.2808  -50.8743 H         1 UNK         0.0600 
    195 H195       -3.7389  -20.8534  -48.2057 H         1 UNK         0.3000 
    196 H196       -5.5254  -22.9458  -49.0811 H         1 UNK         0.0600 
    197 H197       -7.1423  -21.8257  -47.5542 H         1 UNK         0.0600 
    198 H198       -6.3445  -20.6662  -48.6035 H         1 UNK         0.0600 
    199 H199       -5.8588  -20.8099  -46.9113 H         1 UNK         0.0600 
    200 H200       -3.7674  -22.2680  -46.0277 H         1 UNK         0.3000 
    201 H201       -4.8510  -24.4904  -44.5598 H         1 UNK         0.0600 
    202 H202       -3.9680  -22.5033  -43.4053 H         1 UNK         0.0600 
    203 H203       -2.3691  -22.7680  -44.0992 H         1 UNK         0.0600 
    204 H204       -3.0274  -23.9122  -42.9357 H         1 UNK         0.0600 
    205 H205       -1.9011  -24.0204  -46.5210 H         1 UNK         0.3000 
    206 H206       -0.8216  -26.6498  -46.1343 H         1 UNK         0.0600 
    207 H207        0.5224  -24.6882  -46.8825 H         1 UNK         0.0600 
    208 H208        0.6300  -25.9939  -48.0534 H         1 UNK         0.0600 
    209 H209       -0.4016  -24.6066  -48.3822 H         1 UNK         0.0600 
    210 H210       -3.5764  -25.6368  -47.8404 H         1 UNK         0.3000 
    211 H211       -5.0330  -26.4902  -49.2364 H         1 UNK         0.0600 
    212 H212       -3.7136  -29.2235  -48.8280 H         1 UNK         0.0600 
    213 H213       -5.3445  -28.9176  -49.4061 H         1 UNK         0.0600 
    214 H214       -4.9162  -28.5099  -47.7533 H         1 UNK         0.0600 
    215 H215       -2.5986  -25.3655  -50.2723 H         1 UNK         0.3000 
    216 H216       -2.1325  -26.7217  -52.8752 H         1 UNK         0.0600 
    217 H217       -0.4022  -24.9469  -53.1470 H         1 UNK         0.0600 
    218 H218       -0.1514  -25.8482  -51.6589 H         1 UNK         0.0600 
    219 H219       -0.8584  -24.2352  -51.6037 H         1 UNK         0.0600 
    220 H220       -3.3292  -23.6975  -51.4429 H         1 UNK         0.3000 
    221 H221       -4.4168  -21.9100  -52.1524 H         1 UNK         0.0600 
    222 H222       -6.0923  -24.0019  -53.6456 H         1 UNK         0.0600 
    223 H223       -6.2729  -23.5278  -51.9619 H         1 UNK         0.0600 
    224 H224       -6.6212  -22.3682  -53.2278 H         1 UNK         0.0600 
    225 H225       -5.6923  -22.5615  -55.1438 H         1 UNK         0.3000 
    226 H226       -5.3888  -21.9034  -57.2262 H         1 UNK         0.0600 
    227 H227       -3.7463  -23.7990  -57.1213 H         1 UNK         0.0600 
    228 H228       -3.3084  -22.6169  -58.3362 H         1 UNK         0.0600 
    229 H229       -2.4471  -22.6609  -56.7960 H         1 UNK         0.0600 
    230 H230       -2.5889  -20.7701  -58.0862 H         1 UNK         0.3000 
    231 H231       -3.4430  -18.1397  -58.4472 H         1 UNK         0.0600 
    232 H232       -1.8282  -19.2928  -59.9277 H         1 UNK         0.0600 
    233 H233       -0.6208  -19.3215  -58.6414 H         1 UNK         0.0600 
    234 H234       -1.1310  -17.7911  -59.3439 H         1 UNK         0.0600 
    235 H235       -1.6149  -19.4528  -55.7415 H         1 UNK         0.3000 
    236 H236       -0.5384  -17.0097  -54.7076 H         1 UNK         0.0600 
    237 H237       -0.2621  -18.3577  -52.6187 H         1 UNK         0.0600 
    238 H238       -1.2521  -19.6381  -53.3083 H         1 UNK         0.0600 
    239 H239        0.3073  -19.2401  -54.0278 H         1 UNK         0.0600 
    240 H240       -3.7549  -18.4092  -54.6106 H         1 UNK         0.3000 
    241 H241       -4.7197  -16.4449  -52.6163 H         1 UNK         0.0600 
    242 H242       -5.3547  -15.0616  -56.2621 H         1 UNK         0.3800 
    243 H243       -4.0122  -16.0965  -55.8515 H         1 UNK         0.3800 
    244 H244       -6.8962  -17.7198  -52.7879 H         1 UNK         0.0800 
    245 H245       -6.1394  -18.8212  -53.9054 H         1 UNK         0.0800 
    246 H246       -5.9949  -17.0472  -50.6382 H         1 UNK         0.0800 
    247 H247       -6.5905  -18.4273  -49.7556 H         1 UNK         0.0800 
@<TRIPOS>BOND
     1    1    2 1    
     2    1  127 1    
     3    1  128 1    
     4    1  129 1    
     5    2    3 2    
     6    2    4 am   BACKBONE|DICT|INTERRES
     7    4    5 1    
     8    4  130 1    
     9    5    6 1    
    10    5   65 1    
    11    5  131 1    
    12    6    7 1    
    13    6  132 1    
    14    6  133 1    
    15    7    8 1    
    16    8    9 1    
    17    8  134 1    
    18    8  135 1    
    19    9   10 ar   
    20    9   14 ar   
    21   10   11 ar   
    22   10  136 1    
    23   11   12 ar   
    24   11  126 1    
    25   12   13 ar   
    26   12  137 1    
    27   13   14 ar   
    28   13   15 1    
    29   14  138 1    
    30   15   16 1    
    31   15  139 1    
    32   15  140 1    
    33   16   17 1    
    34   17   18 1    
    35   17  141 1    
    36   17  142 1    
    37   18   19 1    
    38   18   67 1    
    39   18  143 1    
    40   19   20 am   BACKBONE|DICT|INTERRES
    41   19  144 1    
    42   20   21 2    
    43   20   22 1    
    44   22   23 1    
    45   22   24 1    
    46   22  145 1    
    47   23  146 1    
    48   23  147 1    
    49   23  148 1    
    50   24   25 am   BACKBONE|DICT|INTERRES
    51   24  149 1    
    52   25   26 2    
    53   25   27 1    
    54   27   28 1    
    55   27   29 1    
    56   27  150 1    
    57   28  151 1    
    58   28  152 1    
    59   28  153 1    
    60   29   30 am   BACKBONE|DICT|INTERRES
    61   29  154 1    
    62   30   31 2    
    63   30   32 1    
    64   32   33 1    
    65   32   34 1    
    66   32  155 1    
    67   33  156 1    
    68   33  157 1    
    69   33  158 1    
    70   34   35 am   BACKBONE|DICT|INTERRES
    71   34  159 1    
    72   35   36 2    
    73   35   37 1    
    74   37   38 1    
    75   37   39 1    
    76   37  160 1    
    77   38  161 1    
    78   38  162 1    
    79   38  163 1    
    80   39   40 am   BACKBONE|DICT|INTERRES
    81   39  164 1    
    82   40   41 2    
    83   40   42 1    
    84   42   43 1    
    85   42   44 1    
    86   42  165 1    
    87   43  166 1    
    88   43  167 1    
    89   43  168 1    
    90   44   45 am   BACKBONE|DICT|INTERRES
    91   44  169 1    
    92   45   46 2    
    93   45   47 1    
    94   47   48 1    
    95   47   49 1    
    96   47  170 1    
    97   48  171 1    
    98   48  172 1    
    99   48  173 1    
   100   49   50 am   BACKBONE|DICT|INTERRES
   101   49  174 1    
   102   50   51 2    
   103   50   52 1    
   104   52   53 1    
   105   52   54 1    
   106   52  175 1    
   107   53  176 1    
   108   53  177 1    
   109   53  178 1    
   110   54   55 am   BACKBONE|DICT|INTERRES
   111   54  179 1    
   112   55   56 2    
   113   55   57 1    
   114   57   58 1    
   115   57   59 1    
   116   57  180 1    
   117   58  181 1    
   118   58  182 1    
   119   58  183 1    
   120   59   60 am   BACKBONE|DICT|INTERRES
   121   59  184 1    
   122   60   61 2    
   123   60   62 1    
   124   62   63 1    
   125   62   64 1    
   126   62  185 1    
   127   63  186 1    
   128   63  187 1    
   129   63  188 1    
   130   64   65 am   BACKBONE|DICT|INTERRES
   131   64  189 1    
   132   65   66 2    
   133   67   68 2    
   134   67   69 am   BACKBONE|DICT|INTERRES
   135   69   70 1    
   136   69  190 1    
   137   70   71 1    
   138   70   72 1    
   139   70  191 1    
   140   71  192 1    
   141   71  193 1    
   142   71  194 1    
   143   72   73 2    
   144   72   74 am   BACKBONE|DICT|INTERRES
   145   74   75 1    
   146   74  195 1    
   147   75   76 1    
   148   75   77 1    
   149   75  196 1    
   150   76  197 1    
   151   76  198 1    
   152   76  199 1    
   153   77   78 2    
   154   77   79 am   BACKBONE|DICT|INTERRES
   155   79   80 1    
   156   79  200 1    
   157   80   81 1    
   158   80   82 1    
   159   80  201 1    
   160   81  202 1    
   161   81  203 1    
   162   81  204 1    
   163   82   83 2    
   164   82   84 am   BACKBONE|DICT|INTERRES
   165   84   85 1    
   166   84  205 1    
   167   85   86 1    
   168   85   87 1    
   169   85  206 1    
   170   86  207 1    
   171   86  208 1    
   172   86  209 1    
   173   87   88 2    
   174   87   89 am   BACKBONE|DICT|INTERRES
   175   89   90 1    
   176   89  210 1    
   177   90   91 1    
   178   90   92 1    
   179   90  211 1    
   180   91  212 1    
   181   91  213 1    
   182   91  214 1    
   183   92   93 2    
   184   92   94 am   BACKBONE|DICT|INTERRES
   185   94   95 1    
   186   94  215 1    
   187   95   96 1    
   188   95   97 1    
   189   95  216 1    
   190   96  217 1    
   191   96  218 1    
   192   96  219 1    
   193   97   98 2    
   194   97   99 am   BACKBONE|DICT|INTERRES
   195   99  100 1    
   196   99  220 1    
   197  100  101 1    
   198  100  102 1    
   199  100  221 1    
   200  101  222 1    
   201  101  223 1    
   202  101  224 1    
   203  102  103 2    
   204  102  104 am   BACKBONE|DICT|INTERRES
   205  104  105 1    
   206  104  225 1    
   207  105  106 1    
   208  105  107 1    
   209  105  226 1    
   210  106  227 1    
   211  106  228 1    
   212  106  229 1    
   213  107  108 2    
   214  107  109 am   BACKBONE|DICT|INTERRES
   215  109  110 1    
   216  109  230 1    
   217  110  111 1    
   218  110  112 1    
   219  110  231 1    
   220  111  232 1    
   221  111  233 1    
   222  111  234 1    
   223  112  113 2    
   224  112  114 am   BACKBONE|DICT|INTERRES
   225  114  115 1    
   226  114  235 1    
   227  115  116 1    
   228  115  117 1    
   229  115  236 1    
   230  116  237 1    
   231  116  238 1    
   232  116  239 1    
   233  117  118 2    
   234  117  119 am   BACKBONE|DICT|INTERRES
   235  119  120 1    
   236  119  240 1    
   237  120  121 1    
   238  120  124 1    
   239  120  241 1    
   240  121  122 am   BACKBONE|DICT|INTERRES
   241  121  123 2    
   242  122  242 1    
   243  122  243 1    
   244  124  125 1    
   245  124  244 1    
   246  124  245 1    
   247  125  126 1    
   248  126  246 1    
   249  126  247 1    
@<TRIPOS>SUBSTRUCTURE
     1 UNK         1 GROUP             0       ****    0 ROOT    
