@<TRIPOS>MOLECULE
3R540
247   249    1
SMALL
USER_CHARGES


@<TRIPOS>ATOM
      1 CA          4.3502  -18.0154  -47.3538 C.3       0 UNK        -0.1800 
      2 C           4.2098  -16.5062  -47.2128 C.2       0 UNK         0.5000 
      3 O           4.7283  -15.9282  -46.2580 O.2       0 UNK        -0.5000 
      4 N           3.4966  -15.8711  -48.1496 N.am      1 UNK        -0.5000 
      5 CA          3.2100  -14.4322  -48.1583 C.3       1 UNK         0.1400 
      6 C6          2.0905  -14.0754  -49.1700 C.3       23 UNK        -0.0398 
      7 S7          0.5626  -15.0325  -48.8815 S.3       23 UNK        -0.2404 
      8 C8          0.3675  -15.9072  -50.4682 C.3       23 UNK        -0.0205 
      9 C9         -0.2808  -17.2664  -50.2693 C.ar      23 UNK        -0.0193 
     10 C10        -1.6280  -17.3578  -49.9106 C.ar      23 UNK        -0.1150 
     11 C11        -2.2223  -18.6042  -49.6994 C.ar      23 UNK        -0.0193 
     12 C12        -1.4620  -19.7656  -49.8679 C.ar      23 UNK        -0.1150 
     13 C13        -0.1155  -19.6882  -50.2367 C.ar      23 UNK        -0.0193 
     14 C14         0.4684  -18.4346  -50.4378 C.ar      23 UNK        -0.1150 
     15 C15         0.7040  -20.9608  -50.4136 C.3       23 UNK        -0.0205 
     16 S16         2.1782  -21.0340  -49.3380 S.3       23 UNK        -0.2404 
     17 C17         1.4538  -20.8388  -47.6738 C.3       23 UNK        -0.0398 
     18 CA          1.2304  -22.1612  -46.9023 C.3       11 UNK         0.1400 
     19 N           0.9091  -21.8983  -45.4979 N.am      11 UNK        -0.5000 
     20 C           0.7527  -22.8256  -44.5436 C.2       10 UNK         0.5000 
     21 O           0.9226  -24.0297  -44.7237 O.2       10 UNK        -0.5000 
     22 CA          0.2679  -22.3310  -43.1694 C.3       10 UNK         0.1400 
     23 CB          1.4326  -21.7501  -42.3548 C.3       10 UNK        -0.1800 
     24 N          -0.8094  -21.3451  -43.2770 N.am      10 UNK        -0.5000 
     25 C          -2.0130  -21.5979  -43.8130 C.2       9 UNK         0.5000 
     26 O          -2.3564  -22.7050  -44.2273 O.2       9 UNK        -0.5000 
     27 CA         -2.9801  -20.4088  -43.9525 C.3       9 UNK         0.1400 
     28 CB         -3.6685  -20.1023  -42.6143 C.3       9 UNK        -0.1800 
     29 N          -2.3217  -19.2033  -44.4554 N.am      9 UNK        -0.5000 
     30 C          -1.7540  -19.0928  -45.6650 C.2       8 UNK         0.5000 
     31 O          -1.7670  -19.9907  -46.5066 O.2       8 UNK        -0.5000 
     32 CA         -0.9917  -17.7843  -45.9529 C.3       8 UNK         0.1400 
     33 CB         -1.9554  -16.6382  -46.2923 C.3       8 UNK        -0.1800 
     34 N          -0.1455  -17.3857  -44.8272 N.am      8 UNK        -0.5000 
     35 C           0.9011  -18.0939  -44.3813 C.2       7 UNK         0.5000 
     36 O           1.3023  -19.1287  -44.9100 O.2       7 UNK        -0.5000 
     37 CA          1.5865  -17.5916  -43.1019 C.3       7 UNK         0.1400 
     38 CB          2.6506  -16.5430  -43.4348 C.3       7 UNK        -0.1800 
     39 N           0.6310  -17.0425  -42.1409 N.am      7 UNK        -0.5000 
     40 C          -0.2317  -17.7933  -41.4410 C.2       6 UNK         0.5000 
     41 O          -0.2922  -19.0199  -41.5245 O.2       6 UNK        -0.5000 
     42 CA         -1.2242  -17.0466  -40.5318 C.3       6 UNK         0.1400 
     43 CB         -0.5592  -16.6604  -39.2023 C.3       6 UNK        -0.1800 
     44 N          -1.7768  -15.8486  -41.1637 N.am      6 UNK        -0.5000 
     45 C          -2.5221  -15.8484  -42.2778 C.2       5 UNK         0.5000 
     46 O          -2.8623  -16.8718  -42.8691 O.2       5 UNK        -0.5000 
     47 CA         -2.9303  -14.4780  -42.8497 C.3       5 UNK         0.1400 
     48 CB         -4.3461  -14.1050  -42.3862 C.3       5 UNK        -0.1800 
     49 N          -2.0087  -13.3930  -42.5016 N.am      5 UNK        -0.5000 
     50 C          -0.7273  -13.3167  -42.8864 C.2       4 UNK         0.5000 
     51 O          -0.1768  -14.1755  -43.5821 O.2       4 UNK        -0.5000 
     52 CA          0.0353  -12.0585  -42.4173 C.3       4 UNK         0.1400 
     53 CB         -0.0168  -11.8860  -40.8828 C.3       4 UNK        -0.1800 
     54 N           1.4171  -11.9956  -42.9084 N.am      4 UNK        -0.5000 
     55 C           2.4499  -12.7865  -42.5772 C.2       3 UNK         0.5000 
     56 O           2.3942  -13.6809  -41.7318 O.2       3 UNK        -0.5000 
     57 CA          3.7528  -12.5270  -43.3556 C.3       3 UNK         0.1400 
     58 CB          4.8300  -13.6140  -43.1596 C.3       3 UNK        -0.1800 
     59 N           3.4447  -12.3543  -44.7759 N.am      3 UNK        -0.5000 
     60 C           4.2216  -11.7244  -45.6619 C.2       2 UNK         0.5000 
     61 O           5.3188  -11.2317  -45.3911 O.2       2 UNK        -0.5000 
     62 CA          3.6832  -11.6262  -47.0973 C.3       2 UNK         0.1400 
     63 CB          3.5948  -10.1602  -47.5513 C.3       2 UNK        -0.1800 
     64 N           4.5904  -12.3431  -47.9922 N.am      2 UNK        -0.5000 
     65 C           4.4826  -13.5971  -48.4544 C.2       1 UNK         0.5000 
     66 O           5.3668  -14.0849  -49.1608 O.2       1 UNK        -0.5000 
     67 C           0.1622  -23.0533  -47.5686 C.2       11 UNK         0.5000 
     68 O           0.5133  -24.0644  -48.1777 O.2       11 UNK        -0.5000 
     69 N          -1.1195  -22.6946  -47.4011 N.am      12 UNK        -0.5000 
     70 CA         -2.2584  -23.4551  -47.9167 C.3       12 UNK         0.1400 
     71 CB         -3.5568  -22.6676  -47.6954 C.3       12 UNK        -0.1800 
     72 C          -2.3725  -24.8726  -47.3270 C.2       12 UNK         0.5000 
     73 O          -2.7344  -25.7981  -48.0529 O.2       12 UNK        -0.5000 
     74 N          -2.0546  -25.0185  -46.0340 N.am      13 UNK        -0.5000 
     75 CA         -2.0239  -26.2996  -45.3317 C.3       13 UNK         0.1400 
     76 CB         -1.9995  -26.0509  -43.8156 C.3       13 UNK        -0.1800 
     77 C          -0.8381  -27.1841  -45.7605 C.2       13 UNK         0.5000 
     78 O          -1.0221  -28.3857  -45.9585 O.2       13 UNK        -0.5000 
     79 N           0.3540  -26.5836  -45.8811 N.am      14 UNK        -0.5000 
     80 CA          1.5957  -27.2690  -46.2413 C.3       14 UNK         0.1400 
     81 CB          2.7941  -26.3652  -45.9123 C.3       14 UNK        -0.1800 
     82 C           1.6411  -27.7036  -47.7160 C.2       14 UNK         0.5000 
     83 O           2.0896  -28.8145  -48.0039 O.2       14 UNK        -0.5000 
     84 N           1.1899  -26.8212  -48.6137 N.am      15 UNK        -0.5000 
     85 CA          1.1500  -27.0326  -50.0548 C.3       15 UNK         0.1400 
     86 CB          2.0127  -25.9531  -50.7420 C.3       15 UNK        -0.1800 
     87 C          -0.3193  -27.0439  -50.5054 C.2       15 UNK         0.5000 
     88 O          -1.0032  -28.0498  -50.3091 O.2       15 UNK        -0.5000 
     89 N          -0.7754  -25.9420  -51.1049 N.am      16 UNK        -0.5000 
     90 CA         -2.1255  -25.7159  -51.6033 C.3       16 UNK         0.1400 
     91 CB         -2.3109  -26.4216  -52.9599 C.3       16 UNK        -0.1800 
     92 C          -2.3316  -24.2000  -51.7300 C.2       16 UNK         0.5000 
     93 O          -1.3622  -23.4423  -51.6317 O.2       16 UNK        -0.5000 
     94 N          -3.5853  -23.7802  -51.9378 N.am      17 UNK        -0.5000 
     95 CA         -3.9707  -22.3822  -52.1410 C.3       17 UNK         0.1400 
     96 CB         -5.5014  -22.2998  -52.2456 C.3       17 UNK        -0.1800 
     97 C          -3.3080  -21.7640  -53.3890 C.2       17 UNK         0.5000 
     98 O          -3.1480  -22.4494  -54.4020 O.2       17 UNK        -0.5000 
     99 N          -2.9493  -20.4774  -53.2942 N.am      18 UNK        -0.5000 
    100 CA        -2.2449  -19.7259  -54.3391 C.3       18 UNK         0.1400 
    101 CB        -1.7528  -18.4000  -53.7383 C.3       18 UNK        -0.1800 
    102 C         -3.0857  -19.4593  -55.6050 C.2       18 UNK         0.5000 
    103 O         -2.5203  -19.2296  -56.6746 O.2       18 UNK        -0.5000 
    104 N         -4.4116  -19.4904  -55.4527 N.am      19 UNK        -0.5000 
    105 CA        -5.4480  -19.2554  -56.4514 C.3       19 UNK         0.1400 
    106 CB        -5.4168  -17.7887  -56.9335 C.3       19 UNK        -0.1800 
    107 C         -6.7908  -19.6081  -55.7874 C.2       19 UNK         0.5000 
    108 O         -6.7959  -20.0997  -54.6531 O.2       19 UNK        -0.5000 
    109 N         -7.9086  -19.3225  -56.4688 N.am      20 UNK        -0.5000 
    110 CA        -9.2680  -19.4256  -55.9290 C.3       20 UNK         0.1400 
    111 CB       -10.2779  -19.0534  -57.0262 C.3       20 UNK        -0.1800 
    112 C         -9.4331  -18.5270  -54.6870 C.2       20 UNK         0.5000 
    113 O         -9.3708  -17.3012  -54.8106 O.2       20 UNK        -0.5000 
    114 N         -9.5315  -19.1618  -53.5089 N.am      21 UNK        -0.5000 
    115 CA        -9.5038  -18.5538  -52.1694 C.3       21 UNK         0.1400 
    116 CB       -10.7925  -17.7434  -51.9189 C.3       21 UNK        -0.1800 
    117 C         -8.2205  -17.7335  -51.8893 C.2       21 UNK         0.5000 
    118 O         -8.2509  -16.7997  -51.0860 O.2       21 UNK        -0.5000 
    119 N         -7.1267  -18.0842  -52.5813 N.am      22 UNK        -0.5000 
    120 CA        -5.8448  -17.3604  -52.6333 C.3       22 UNK         0.1400 
    121 C         -5.9267  -15.9481  -53.2928 C.2       22 UNK         0.5000 
    122 N         -6.9770  -15.6191  -54.0379 N.am      22 UNK        -0.7600 
    123 O         -5.0077  -15.1449  -53.1612 O.2       22 UNK        -0.5000 
    124 C124       -5.0784  -17.3567  -51.2824 C.3       23 UNK        -0.0398 
    125 S125       -4.7891  -19.0410  -50.6432 S.3       23 UNK        -0.2404 
    126 C126       -3.6730  -18.6977  -49.2534 C.3       23 UNK        -0.0205 
    127 H127        3.9502  -18.5114  -46.4691 H         1 UNK         0.0600 
    128 H128        5.4005  -18.2881  -47.4544 H         1 UNK         0.0600 
    129 H129        3.8143  -18.3931  -48.2252 H         1 UNK         0.0600 
    130 H130        3.1038  -16.3967  -48.9159 H         1 UNK         0.3000 
    131 H131        2.8556  -14.2010  -47.1533 H         1 UNK         0.0600 
    132 H132        2.4395  -14.2236  -50.1931 H         1 UNK         0.0800 
    133 H133        1.8298  -13.0185  -49.1007 H         1 UNK         0.0800 
    134 H134       -0.2427  -15.3029  -51.1409 H         1 UNK         0.0800 
    135 H135        1.3343  -16.0310  -50.9575 H         1 UNK         0.0800 
    136 H136       -2.2050  -16.4542  -49.7736 H         1 UNK         0.1150 
    137 H137       -1.9165  -20.7311  -49.6989 H         1 UNK         0.1150 
    138 H138        1.5107  -18.3731  -50.7170 H         1 UNK         0.1150 
    139 H139        0.0912  -21.8408  -50.2211 H         1 UNK         0.0800 
    140 H140        1.0204  -21.0340  -51.4547 H         1 UNK         0.0800 
    141 H141        0.5357  -20.2549  -47.7220 H         1 UNK         0.0800 
    142 H142        2.1573  -20.2198  -47.1176 H         1 UNK         0.0800 
    143 H143        2.1698  -22.7178  -46.9102 H         1 UNK         0.0600 
    144 H144        0.7986  -20.9200  -45.2437 H         1 UNK         0.3000 
    145 H145       -0.1259  -23.1931  -42.6274 H         1 UNK         0.0600 
    146 H146        1.1090  -21.4613  -41.3548 H         1 UNK         0.0600 
    147 H147        2.2311  -22.4840  -42.2390 H         1 UNK         0.0600 
    148 H148        1.8622  -20.8713  -42.8350 H         1 UNK         0.0600 
    149 H149       -0.6197  -20.4194  -42.9058 H         1 UNK         0.3000 
    150 H150       -3.7502  -20.6911  -44.6732 H         1 UNK         0.0600 
    151 H151       -4.1788  -20.9845  -42.2260 H         1 UNK         0.0600 
    152 H152       -4.4159  -19.3169  -42.7276 H         1 UNK         0.0600 
    153 H153       -2.9539  -19.7753  -41.8584 H         1 UNK         0.0600 
    154 H154       -2.3139  -18.3985  -43.8340 H         1 UNK         0.3000 
    155 H155       -0.3464  -17.9529  -46.8182 H         1 UNK         0.0600 
    156 H156       -2.6603  -16.4450  -45.4850 H         1 UNK         0.0600 
    157 H157       -2.5387  -16.8720  -47.1804 H         1 UNK         0.0600 
    158 H158       -1.4142  -15.7138  -46.4951 H         1 UNK         0.0600 
    159 H159       -0.4005  -16.5399  -44.3355 H         1 UNK         0.3000 
    160 H160        2.0900  -18.4408  -42.6358 H         1 UNK         0.0600 
    161 H161        2.2186  -15.6653  -43.9170 H         1 UNK         0.0600 
    162 H162        3.4019  -16.9544  -44.1091 H         1 UNK         0.0600 
    163 H163        3.1692  -16.2151  -42.5340 H         1 UNK         0.0600 
    164 H164        0.6002  -16.0355  -42.0531 H         1 UNK         0.3000 
    165 H165       -2.0526  -17.7250  -40.3167 H         1 UNK         0.0600 
    166 H166       -1.2774  -16.2060  -38.5195 H         1 UNK         0.0600 
    167 H167       -0.1479  -17.5385  -38.7026 H         1 UNK         0.0600 
    168 H168        0.2582  -15.9532  -39.3500 H         1 UNK         0.0600 
    169 H169       -1.5438  -14.9613  -40.7437 H         1 UNK         0.3000 
    170 H170       -2.9406  -14.5680  -43.9376 H         1 UNK         0.0600 
    171 H171       -5.0624  -14.8828  -42.6544 H         1 UNK         0.0600 
    172 H172       -4.3943  -13.9734  -41.3045 H         1 UNK         0.0600 
    173 H173       -4.6841  -13.1799  -42.8536 H         1 UNK         0.0600 
    174 H174       -2.3942  -12.6455  -41.9428 H         1 UNK         0.3000 
    175 H175       -0.4750  -11.2046  -42.8654 H         1 UNK         0.0600 
    176 H176        0.3461  -12.7708  -40.3588 H         1 UNK         0.0600 
    177 H177        0.5871  -11.0372  -40.5616 H         1 UNK         0.0600 
    178 H178       -1.0339  -11.6999  -40.5374 H         1 UNK         0.0600 
    179 H179        1.5820  -11.2940  -43.6160 H         1 UNK         0.3000 
    180 H180        4.1493  -11.5871  -42.9657 H         1 UNK         0.0600 
    181 H181        4.5527  -14.5456  -43.6504 H         1 UNK         0.0600 
    182 H182        4.9972  -13.8271  -42.1032 H         1 UNK         0.0600 
    183 H183        5.7867  -13.2991  -43.5758 H         1 UNK         0.0600 
    184 H184        2.5590  -12.7432  -45.0701 H         1 UNK         0.3000 
    185 H185        2.6708  -12.0269  -47.1360 H         1 UNK         0.0600 
    186 H186        2.9396   -9.5870  -46.8941 H         1 UNK         0.0600 
    187 H187        4.5705   -9.6723  -47.5487 H         1 UNK         0.0600 
    188 H188        3.1882  -10.0855  -48.5602 H         1 UNK         0.0600 
    189 H189        5.4485  -11.8490  -48.1895 H         1 UNK         0.3000 
    190 H190       -1.3321  -21.8304  -46.9090 H         1 UNK         0.3000 
    191 H191       -2.1111  -23.5624  -48.9904 H         1 UNK         0.0600 
    192 H192       -3.5339  -21.7197  -48.2282 H         1 UNK         0.0600 
    193 H193       -4.4201  -23.2230  -48.0640 H         1 UNK         0.0600 
    194 H194       -3.7254  -22.4561  -46.6393 H         1 UNK         0.0600 
    195 H195       -1.8361  -24.1908  -45.4884 H         1 UNK         0.3000 
    196 H196       -2.9438  -26.8388  -45.5678 H         1 UNK         0.0600 
    197 H197       -1.9954  -26.9923  -43.2650 H         1 UNK         0.0600 
    198 H198       -2.8773  -25.4895  -43.4950 H         1 UNK         0.0600 
    199 H199       -1.1159  -25.4885  -43.5126 H         1 UNK         0.0600 
    200 H200        0.4349  -25.5971  -45.6468 H         1 UNK         0.3000 
    201 H201        1.6759  -28.1686  -45.6274 H         1 UNK         0.0600 
    202 H202        2.8273  -26.1273  -44.8490 H         1 UNK         0.0600 
    203 H203        2.7515  -25.4250  -46.4640 H         1 UNK         0.0600 
    204 H204        3.7356  -26.8541  -46.1657 H         1 UNK         0.0600 
    205 H205        0.8353  -25.9231  -48.2919 H         1 UNK         0.3000 
    206 H206        1.5659  -28.0066  -50.3199 H         1 UNK         0.0600 
    207 H207        3.0587  -26.0541  -50.4525 H         1 UNK         0.0600 
    208 H208        1.9699  -26.0471  -51.8279 H         1 UNK         0.0600 
    209 H209        1.6991  -24.9419  -50.4797 H         1 UNK         0.0600 
    210 H210       -0.1795  -25.1254  -51.1753 H         1 UNK         0.3000 
    211 H211       -2.8459  -26.1026  -50.8796 H         1 UNK         0.0600 
    212 H212       -1.6039  -26.0503  -53.7030 H         1 UNK         0.0600 
    213 H213       -3.3151  -26.2626  -53.3541 H         1 UNK         0.0600 
    214 H214       -2.1679  -27.4985  -52.8713 H         1 UNK         0.0600 
    215 H215       -4.3211  -24.4643  -52.0338 H         1 UNK         0.3000 
    216 H216       -3.6501  -21.8223  -51.2602 H         1 UNK         0.0600 
    217 H217       -5.8317  -21.2688  -52.3740 H         1 UNK         0.0600 
    218 H218       -5.9808  -22.6810  -51.3439 H         1 UNK         0.0600 
    219 H219       -5.8782  -22.8690  -53.0964 H         1 UNK         0.0600 
    220 H220       -3.1235  -19.9841  -52.4292 H         1 UNK         0.3000 
    221 H221       -1.3726  -20.3082  -54.6435 H         1 UNK         0.0600 
    222 H222       -2.5792  -17.7896  -53.3725 H         1 UNK         0.0600 
    223 H223       -1.0724  -18.5757  -52.9061 H         1 UNK         0.0600 
    224 H224       -1.2106  -17.8099  -54.4783 H         1 UNK         0.0600 
    225 H225       -4.7895  -19.7749  -54.5572 H         1 UNK         0.3000 
    226 H226       -5.2905  -19.9310  -57.2938 H         1 UNK         0.0600 
    227 H227       -4.4586  -17.5330  -57.3847 H         1 UNK         0.0600 
    228 H228       -6.1770  -17.5998  -57.6916 H         1 UNK         0.0600 
    229 H229       -5.5913  -17.0936  -56.1125 H         1 UNK         0.0600 
    230 H230       -7.8262  -18.9018  -57.3826 H         1 UNK         0.3000 
    231 H231       -9.4425  -20.4653  -55.6446 H         1 UNK         0.0600 
    232 H232      -10.1981  -19.7258  -57.8805 H         1 UNK         0.0600 
    233 H233      -10.1277  -18.0346  -57.3857 H         1 UNK         0.0600 
    234 H234      -11.3006  -19.1223  -56.6532 H         1 UNK         0.0600 
    235 H235       -9.5185  -20.1725  -53.5181 H         1 UNK         0.3000 
    236 H236       -9.4903  -19.3812  -51.4587 H         1 UNK         0.0600 
    237 H237      -10.8512  -17.4095  -50.8824 H         1 UNK         0.0600 
    238 H238      -10.8419  -16.8563  -52.5511 H         1 UNK         0.0600 
    239 H239      -11.6805  -18.3445  -52.1143 H         1 UNK         0.0600 
    240 H240       -7.1977  -18.8750  -53.2141 H         1 UNK         0.3000 
    241 H241       -5.2322  -17.9307  -53.3294 H         1 UNK         0.0600 
    242 H242       -7.0083  -14.7065  -54.4632 H         1 UNK         0.3800 
    243 H243       -7.7532  -16.2577  -54.1752 H         1 UNK         0.3800 
    244 H244       -5.6201  -16.7796  -50.5320 H         1 UNK         0.0800 
    245 H245       -4.1079  -16.8732  -51.4009 H         1 UNK         0.0800 
    246 H246       -3.9883  -17.7798  -48.7565 H         1 UNK         0.0800 
    247 H247       -3.7744  -19.4860  -48.5084 H         1 UNK         0.0800 
@<TRIPOS>BOND
     1    1    2 1    
     2    1  127 1    
     3    1  128 1    
     4    1  129 1    
     5    2    3 2    
     6    2    4 am   BACKBONE|DICT|INTERRES
     7    4    5 1    
     8    4  130 1    
     9    5    6 1    
    10    5   65 1    
    11    5  131 1    
    12    6    7 1    
    13    6  132 1    
    14    6  133 1    
    15    7    8 1    
    16    8    9 1    
    17    8  134 1    
    18    8  135 1    
    19    9   10 ar   
    20    9   14 ar   
    21   10   11 ar   
    22   10  136 1    
    23   11   12 ar   
    24   11  126 1    
    25   12   13 ar   
    26   12  137 1    
    27   13   14 ar   
    28   13   15 1    
    29   14  138 1    
    30   15   16 1    
    31   15  139 1    
    32   15  140 1    
    33   16   17 1    
    34   17   18 1    
    35   17  141 1    
    36   17  142 1    
    37   18   19 1    
    38   18   67 1    
    39   18  143 1    
    40   19   20 am   BACKBONE|DICT|INTERRES
    41   19  144 1    
    42   20   21 2    
    43   20   22 1    
    44   22   23 1    
    45   22   24 1    
    46   22  145 1    
    47   23  146 1    
    48   23  147 1    
    49   23  148 1    
    50   24   25 am   BACKBONE|DICT|INTERRES
    51   24  149 1    
    52   25   26 2    
    53   25   27 1    
    54   27   28 1    
    55   27   29 1    
    56   27  150 1    
    57   28  151 1    
    58   28  152 1    
    59   28  153 1    
    60   29   30 am   BACKBONE|DICT|INTERRES
    61   29  154 1    
    62   30   31 2    
    63   30   32 1    
    64   32   33 1    
    65   32   34 1    
    66   32  155 1    
    67   33  156 1    
    68   33  157 1    
    69   33  158 1    
    70   34   35 am   BACKBONE|DICT|INTERRES
    71   34  159 1    
    72   35   36 2    
    73   35   37 1    
    74   37   38 1    
    75   37   39 1    
    76   37  160 1    
    77   38  161 1    
    78   38  162 1    
    79   38  163 1    
    80   39   40 am   BACKBONE|DICT|INTERRES
    81   39  164 1    
    82   40   41 2    
    83   40   42 1    
    84   42   43 1    
    85   42   44 1    
    86   42  165 1    
    87   43  166 1    
    88   43  167 1    
    89   43  168 1    
    90   44   45 am   BACKBONE|DICT|INTERRES
    91   44  169 1    
    92   45   46 2    
    93   45   47 1    
    94   47   48 1    
    95   47   49 1    
    96   47  170 1    
    97   48  171 1    
    98   48  172 1    
    99   48  173 1    
   100   49   50 am   BACKBONE|DICT|INTERRES
   101   49  174 1    
   102   50   51 2    
   103   50   52 1    
   104   52   53 1    
   105   52   54 1    
   106   52  175 1    
   107   53  176 1    
   108   53  177 1    
   109   53  178 1    
   110   54   55 am   BACKBONE|DICT|INTERRES
   111   54  179 1    
   112   55   56 2    
   113   55   57 1    
   114   57   58 1    
   115   57   59 1    
   116   57  180 1    
   117   58  181 1    
   118   58  182 1    
   119   58  183 1    
   120   59   60 am   BACKBONE|DICT|INTERRES
   121   59  184 1    
   122   60   61 2    
   123   60   62 1    
   124   62   63 1    
   125   62   64 1    
   126   62  185 1    
   127   63  186 1    
   128   63  187 1    
   129   63  188 1    
   130   64   65 am   BACKBONE|DICT|INTERRES
   131   64  189 1    
   132   65   66 2    
   133   67   68 2    
   134   67   69 am   BACKBONE|DICT|INTERRES
   135   69   70 1    
   136   69  190 1    
   137   70   71 1    
   138   70   72 1    
   139   70  191 1    
   140   71  192 1    
   141   71  193 1    
   142   71  194 1    
   143   72   73 2    
   144   72   74 am   BACKBONE|DICT|INTERRES
   145   74   75 1    
   146   74  195 1    
   147   75   76 1    
   148   75   77 1    
   149   75  196 1    
   150   76  197 1    
   151   76  198 1    
   152   76  199 1    
   153   77   78 2    
   154   77   79 am   BACKBONE|DICT|INTERRES
   155   79   80 1    
   156   79  200 1    
   157   80   81 1    
   158   80   82 1    
   159   80  201 1    
   160   81  202 1    
   161   81  203 1    
   162   81  204 1    
   163   82   83 2    
   164   82   84 am   BACKBONE|DICT|INTERRES
   165   84   85 1    
   166   84  205 1    
   167   85   86 1    
   168   85   87 1    
   169   85  206 1    
   170   86  207 1    
   171   86  208 1    
   172   86  209 1    
   173   87   88 2    
   174   87   89 am   BACKBONE|DICT|INTERRES
   175   89   90 1    
   176   89  210 1    
   177   90   91 1    
   178   90   92 1    
   179   90  211 1    
   180   91  212 1    
   181   91  213 1    
   182   91  214 1    
   183   92   93 2    
   184   92   94 am   BACKBONE|DICT|INTERRES
   185   94   95 1    
   186   94  215 1    
   187   95   96 1    
   188   95   97 1    
   189   95  216 1    
   190   96  217 1    
   191   96  218 1    
   192   96  219 1    
   193   97   98 2    
   194   97   99 am   BACKBONE|DICT|INTERRES
   195   99  100 1    
   196   99  220 1    
   197  100  101 1    
   198  100  102 1    
   199  100  221 1    
   200  101  222 1    
   201  101  223 1    
   202  101  224 1    
   203  102  103 2    
   204  102  104 am   BACKBONE|DICT|INTERRES
   205  104  105 1    
   206  104  225 1    
   207  105  106 1    
   208  105  107 1    
   209  105  226 1    
   210  106  227 1    
   211  106  228 1    
   212  106  229 1    
   213  107  108 2    
   214  107  109 am   BACKBONE|DICT|INTERRES
   215  109  110 1    
   216  109  230 1    
   217  110  111 1    
   218  110  112 1    
   219  110  231 1    
   220  111  232 1    
   221  111  233 1    
   222  111  234 1    
   223  112  113 2    
   224  112  114 am   BACKBONE|DICT|INTERRES
   225  114  115 1    
   226  114  235 1    
   227  115  116 1    
   228  115  117 1    
   229  115  236 1    
   230  116  237 1    
   231  116  238 1    
   232  116  239 1    
   233  117  118 2    
   234  117  119 am   BACKBONE|DICT|INTERRES
   235  119  120 1    
   236  119  240 1    
   237  120  121 1    
   238  120  124 1    
   239  120  241 1    
   240  121  122 am   BACKBONE|DICT|INTERRES
   241  121  123 2    
   242  122  242 1    
   243  122  243 1    
   244  124  125 1    
   245  124  244 1    
   246  124  245 1    
   247  125  126 1    
   248  126  246 1    
   249  126  247 1    
@<TRIPOS>SUBSTRUCTURE
     1 UNK         1 GROUP             0       ****    0 ROOT    
