@<TRIPOS>MOLECULE
3R540
247   249    1
SMALL
USER_CHARGES


@<TRIPOS>ATOM
      1 CA         -1.9749  -11.9419  -49.2756 C.3       0 UNK        -0.1800 
      2 C          -0.5988  -11.5072  -48.7906 C.2       0 UNK         0.5000 
      3 O          -0.3900  -10.3254  -48.5161 O.2       0 UNK        -0.5000 
      4 N           0.3346  -12.4598  -48.6858 N.am      1 UNK        -0.5000 
      5 CA          1.6935  -12.2697  -48.1672 C.3       1 UNK         0.1400 
      6 C6          2.5791  -13.5067  -48.4576 C.3       23 UNK        -0.0398 
      7 S7          3.0107  -13.5995  -50.2241 S.3       23 UNK        -0.2404 
      8 C8          3.4228  -15.3627  -50.4179 C.3       23 UNK        -0.0205 
      9 C9          2.2180  -16.2141  -50.7958 C.ar      23 UNK        -0.0193 
     10 C10         1.4873  -15.9212  -51.9502 C.ar      23 UNK        -0.1150 
     11 C11         0.4202  -16.7307  -52.3460 C.ar      23 UNK        -0.0193 
     12 C12         0.0933  -17.8579  -51.5864 C.ar      23 UNK        -0.1150 
     13 C13         0.8229  -18.1710  -50.4342 C.ar      23 UNK        -0.0193 
     14 C14         1.8701  -17.3324  -50.0337 C.ar      23 UNK        -0.1150 
     15 C15         0.4834  -19.4119  -49.6196 C.3       23 UNK        -0.0205 
     16 S16         1.9073  -20.5365  -49.5013 S.3       23 UNK        -0.2404 
     17 C17         1.2092  -22.1449  -50.0155 C.3       23 UNK        -0.0398 
     18 CA          0.8755  -23.1152  -48.8505 C.3       11 UNK         0.1400 
     19 N           1.8547  -23.0378  -47.7631 N.am      11 UNK        -0.5000 
     20 C           1.9884  -23.8977  -46.7476 C.2       10 UNK         0.5000 
     21 O           1.3187  -24.9237  -46.6308 O.2       10 UNK        -0.5000 
     22 CA          3.0032  -23.5099  -45.6524 C.3       10 UNK         0.1400 
     23 CB          4.3727  -24.1411  -45.9439 C.3       10 UNK        -0.1800 
     24 N           3.1701  -22.0602  -45.4655 N.am      10 UNK        -0.5000 
     25 C           2.1867  -21.2146  -45.1263 C.2       9 UNK         0.5000 
     26 O           1.0091  -21.5586  -45.0173 O.2       9 UNK        -0.5000 
     27 CA          2.5741  -19.7398  -44.9074 C.3       9 UNK         0.1400 
     28 CB          2.5452  -18.9647  -46.2325 C.3       9 UNK        -0.1800 
     29 N           1.6582  -19.0964  -43.9664 N.am      9 UNK        -0.5000 
     30 C           1.6696  -19.2993  -42.6418 C.2       8 UNK         0.5000 
     31 O           2.5306  -19.9685  -42.0679 O.2       8 UNK        -0.5000 
     32 CA          0.5459  -18.6535  -41.8089 C.3       8 UNK         0.1400 
     33 CB          1.1130  -17.6005  -40.8426 C.3       8 UNK        -0.1800 
     34 N          -0.4953  -18.0444  -42.6440 N.am      8 UNK        -0.5000 
     35 C          -1.6406  -18.6581  -42.9743 C.2       7 UNK         0.5000 
     36 O          -1.9475  -19.7800  -42.5705 O.2       7 UNK        -0.5000 
     37 CA         -2.6276  -17.9091  -43.8902 C.3       7 UNK         0.1400 
     38 CB         -3.7720  -17.3116  -43.0586 C.3       7 UNK        -0.1800 
     39 N          -2.0104  -16.8560  -44.6998 N.am      7 UNK        -0.5000 
     40 C          -1.2856  -17.0851  -45.8045 C.2       6 UNK         0.5000 
     41 O          -1.0162  -18.2193  -46.1984 O.2       6 UNK        -0.5000 
     42 CA         -0.7368  -15.8780  -46.5991 C.3       6 UNK         0.1400 
     43 CB         -1.0485  -15.9922  -48.1055 C.3       6 UNK        -0.1800 
     44 N          -1.1208  -14.5603  -46.0837 N.am      6 UNK        -0.5000 
     45 C          -2.3287  -13.9795  -46.0654 C.2       5 UNK         0.5000 
     46 O          -3.3490  -14.4772  -46.5423 O.2       5 UNK        -0.5000 
     47 CA         -2.3820  -12.6187  -45.3377 C.3       5 UNK         0.1400 
     48 CB         -3.8167  -12.0900  -45.1291 C.3       5 UNK        -0.1800 
     49 N          -1.6340  -12.6552  -44.0719 N.am      5 UNK        -0.5000 
     50 C          -1.8907  -13.4509  -43.0228 C.2       4 UNK         0.5000 
     51 O          -2.8554  -14.2130  -42.9709 O.2       4 UNK        -0.5000 
     52 CA         -0.8765  -13.4131  -41.8607 C.3       4 UNK         0.1400 
     53 CB         -1.1672  -14.4822  -40.7864 C.3       4 UNK        -0.1800 
     54 N           0.5188  -13.5107  -42.3046 N.am      4 UNK        -0.5000 
     55 C           1.0911  -14.4962  -43.0100 C.2       3 UNK         0.5000 
     56 O           0.4746  -15.4636  -43.4592 O.2       3 UNK        -0.5000 
     57 CA          2.6124  -14.3680  -43.2550 C.3       3 UNK         0.1400 
     58 CB          3.2023  -15.6160  -43.9374 C.3       3 UNK        -0.1800 
     59 N           2.9350  -13.2033  -44.0768 N.am      3 UNK        -0.5000 
     60 C           2.8495  -11.9191  -43.7070 C.2       2 UNK         0.5000 
     61 O           2.6164  -11.5599  -42.5516 O.2       2 UNK        -0.5000 
     62 CA          3.0049  -10.8547  -44.8140 C.3       2 UNK         0.1400 
     63 CB          4.3900  -10.1954  -44.7283 C.3       2 UNK        -0.1800 
     64 N           2.7927  -11.3313  -46.1887 N.am      2 UNK        -0.5000 
     65 C           1.6932  -11.9388  -46.6595 C.2       1 UNK         0.5000 
     66 O           0.7399  -12.2687  -45.9507 O.2       1 UNK        -0.5000 
     67 C          -0.5934  -22.9939  -48.3840 C.2       11 UNK         0.5000 
     68 O          -1.4820  -23.4225  -49.1198 O.2       11 UNK        -0.5000 
     69 N          -0.8465  -22.4986  -47.1606 N.am      12 UNK        -0.5000 
     70 CA         -2.1729  -22.4907  -46.5312 C.3       12 UNK         0.1400 
     71 CB         -2.1329  -21.6625  -45.2428 C.3       12 UNK        -0.1800 
     72 C          -2.7391  -23.8977  -46.2497 C.2       12 UNK         0.5000 
     73 O          -3.9470  -24.0282  -46.0559 O.2       12 UNK        -0.5000 
     74 N          -1.8862  -24.9340  -46.2833 N.am      13 UNK        -0.5000 
     75 CA         -2.2778  -26.3447  -46.2227 C.3       13 UNK         0.1400 
     76 CB         -1.0145  -27.2143  -46.1473 C.3       13 UNK        -0.1800 
     77 C          -3.1711  -26.7952  -47.3992 C.2       13 UNK         0.5000 
     78 O          -3.8636  -27.8067  -47.2731 O.2       13 UNK        -0.5000 
     79 N          -3.1718  -26.0376  -48.5072 N.am      14 UNK        -0.5000 
     80 CA         -4.0612  -26.2142  -49.6527 C.3       14 UNK         0.1400 
     81 CB         -3.4619  -25.4855  -50.8662 C.3       14 UNK        -0.1800 
     82 C          -5.4923  -25.7410  -49.3240 C.2       14 UNK         0.5000 
     83 O          -5.9137  -24.6692  -49.7645 O.2       14 UNK        -0.5000 
     84 N          -6.1966  -26.5474  -48.5173 N.am      15 UNK        -0.5000 
     85 CA         -7.6149  -26.4466  -48.1479 C.3       15 UNK         0.1400 
     86 CB         -8.4939  -26.7563  -49.3780 C.3       15 UNK        -0.1800 
     87 C          -8.0182  -25.1210  -47.4640 C.2       15 UNK         0.5000 
     88 O          -9.1802  -24.7218  -47.5548 O.2       15 UNK        -0.5000 
     89 N          -7.0527  -24.4506  -46.8149 N.am      16 UNK        -0.5000 
     90 CA         -7.1518  -23.1186  -46.2015 C.3       16 UNK         0.1400 
     91 CB         -8.1871  -23.1033  -45.0568 C.3       16 UNK        -0.1800 
     92 C          -7.3758  -21.9732  -47.2149 C.2       16 UNK         0.5000 
     93 O          -7.6590  -20.8492  -46.7973 O.2       16 UNK        -0.5000 
     94 N          -7.2359  -22.2545  -48.5192 N.am      17 UNK        -0.5000 
     95 CA         -7.4111  -21.2791  -49.5938 C.3       17 UNK         0.1400 
     96 CB         -7.7868  -22.0132  -50.8905 C.3       17 UNK        -0.1800 
     97 C          -6.1506  -20.4279  -49.8094 C.2       17 UNK         0.5000 
     98 O          -6.2698  -19.2645  -50.1949 O.2       17 UNK        -0.5000 
     99 N          -4.9726  -21.0318  -49.5819 N.am      18 UNK        -0.5000 
    100 CA        -3.6118  -20.5018  -49.7544 C.3       18 UNK         0.1400 
    101 CB        -3.3542  -19.2828  -48.8471 C.3       18 UNK        -0.1800 
    102 C         -3.2361  -20.2146  -51.2200 C.2       18 UNK         0.5000 
    103 O         -2.2197  -20.7187  -51.6982 O.2       18 UNK        -0.5000 
    104 N         -4.0878  -19.4613  -51.9268 N.am      19 UNK        -0.5000 
    105 CA        -3.9678  -19.1020  -53.3418 C.3       19 UNK         0.1400 
    106 CB        -5.1327  -18.1775  -53.7223 C.3       19 UNK        -0.1800 
    107 C         -3.9089  -20.3156  -54.2911 C.2       19 UNK         0.5000 
    108 O         -3.3093  -20.2247  -55.3622 O.2       19 UNK        -0.5000 
    109 N         -4.4871  -21.4422  -53.8541 N.am      20 UNK        -0.5000 
    110 CA        -4.4506  -22.7436  -54.5203 C.3       20 UNK         0.1400 
    111 CB        -5.4053  -23.6922  -53.7780 C.3       20 UNK        -0.1800 
    112 C         -3.0398  -23.3638  -54.6322 C.2       20 UNK         0.5000 
    113 O         -2.8481  -24.2513  -55.4644 O.2       20 UNK        -0.5000 
    114 N         -2.0834  -22.8939  -53.8188 N.am      21 UNK        -0.5000 
    115 CA        -0.6851  -23.3257  -53.8265 C.3       21 UNK         0.1400 
    116 CB        -0.4399  -24.2841  -52.6476 C.3       21 UNK        -0.1800 
    117 C          0.2755  -22.1209  -53.8496 C.2       21 UNK         0.5000 
    118 O          1.3898  -22.2145  -53.3337 O.2       21 UNK        -0.5000 
    119 N         -0.1653  -21.0118  -54.4580 N.am      22 UNK        -0.5000 
    120 CA         0.6352  -19.8016  -54.6970 C.3       22 UNK         0.1400 
    121 C          1.8540  -20.0662  -55.6280 C.2       22 UNK         0.5000 
    122 N          3.0222  -19.5266  -55.3078 N.am      22 UNK        -0.7600 
    123 O          1.7382  -20.7306  -56.6560 O.2       22 UNK        -0.5000 
    124 C124       -0.2672  -18.6736  -55.2544 C.3       23 UNK        -0.0398 
    125 S125        0.4417  -16.9991  -55.1025 S.3       23 UNK        -0.2404 
    126 C126       -0.3676  -16.3721  -53.5958 C.3       23 UNK        -0.0205 
    127 H127       -2.2019  -11.4715  -50.2322 H         1 UNK         0.0600 
    128 H128       -2.7383  -11.6429  -48.5574 H         1 UNK         0.0600 
    129 H129       -2.0373  -13.0232  -49.4033 H         1 UNK         0.0600 
    130 H130        0.0987  -13.4067  -48.9398 H         1 UNK         0.3000 
    131 H131        2.1220  -11.4044  -48.6781 H         1 UNK         0.0600 
    132 H132        3.5195  -13.4662  -47.9048 H         1 UNK         0.0800 
    133 H133        2.0785  -14.4259  -48.1472 H         1 UNK         0.0800 
    134 H134        3.8994  -15.7317  -49.5083 H         1 UNK         0.0800 
    135 H135        4.1671  -15.4571  -51.2095 H         1 UNK         0.0800 
    136 H136        1.7567  -15.0622  -52.5489 H         1 UNK         0.1150 
    137 H137       -0.7210  -18.4954  -51.8995 H         1 UNK         0.1150 
    138 H138        2.4354  -17.5754  -49.1450 H         1 UNK         0.1150 
    139 H139        0.1813  -19.1195  -48.6141 H         1 UNK         0.0800 
    140 H140       -0.3688  -19.9318  -50.0527 H         1 UNK         0.0800 
    141 H141        1.9671  -22.6140  -50.6441 H         1 UNK         0.0800 
    142 H142        0.3564  -21.9913  -50.6786 H         1 UNK         0.0800 
    143 H143        0.9525  -24.1263  -49.2567 H         1 UNK         0.0600 
    144 H144        2.4333  -22.2096  -47.7666 H         1 UNK         0.3000 
    145 H145        2.6321  -23.9203  -44.7110 H         1 UNK         0.0600 
    146 H146        5.0723  -23.9624  -45.1272 H         1 UNK         0.0600 
    147 H147        4.2872  -25.2218  -46.0653 H         1 UNK         0.0600 
    148 H148        4.8131  -23.7418  -46.8584 H         1 UNK         0.0600 
    149 H149        4.1112  -21.7047  -45.5541 H         1 UNK         0.3000 
    150 H150        3.5863  -19.6969  -44.4998 H         1 UNK         0.0600 
    151 H151        3.2455  -19.3907  -46.9516 H         1 UNK         0.0600 
    152 H152        2.8252  -17.9217  -46.0889 H         1 UNK         0.0600 
    153 H153        1.5543  -18.9854  -46.6852 H         1 UNK         0.0600 
    154 H154        0.8736  -18.6023  -44.3660 H         1 UNK         0.3000 
    155 H155        0.1136  -19.4479  -41.1973 H         1 UNK         0.0600 
    156 H156        1.6258  -16.7980  -41.3685 H         1 UNK         0.0600 
    157 H157        1.8336  -18.0495  -40.1581 H         1 UNK         0.0600 
    158 H158        0.3252  -17.1585  -40.2333 H         1 UNK         0.0600 
    159 H159       -0.3002  -17.1143  -43.0098 H         1 UNK         0.3000 
    160 H160       -3.0639  -18.6437  -44.5706 H         1 UNK         0.0600 
    161 H161       -3.3970  -16.6568  -42.2718 H         1 UNK         0.0600 
    162 H162       -4.3511  -18.0989  -42.5747 H         1 UNK         0.0600 
    163 H163       -4.4587  -16.7360  -43.6797 H         1 UNK         0.0600 
    164 H164       -2.1631  -15.9015  -44.4001 H         1 UNK         0.3000 
    165 H165        0.3471  -15.9302  -46.4868 H         1 UNK         0.0600 
    166 H166       -2.1177  -15.9436  -48.3102 H         1 UNK         0.0600 
    167 H167       -0.5573  -15.2066  -48.6769 H         1 UNK         0.0600 
    168 H168       -0.6969  -16.9408  -48.5032 H         1 UNK         0.0600 
    169 H169       -0.3672  -14.0285  -45.6624 H         1 UNK         0.3000 
    170 H170       -1.8687  -11.9040  -45.9814 H         1 UNK         0.0600 
    171 H171       -4.3176  -11.9416  -46.0864 H         1 UNK         0.0600 
    172 H172       -4.4276  -12.7803  -44.5470 H         1 UNK         0.0600 
    173 H173       -3.8113  -11.1297  -44.6137 H         1 UNK         0.0600 
    174 H174       -0.7807  -12.1123  -44.0628 H         1 UNK         0.3000 
    175 H175       -0.9838  -12.4344  -41.3911 H         1 UNK         0.0600 
    176 H176       -1.1496  -15.4886  -41.2049 H         1 UNK         0.0600 
    177 H177       -0.4374  -14.4412  -39.9780 H         1 UNK         0.0600 
    178 H178       -2.1521  -14.3322  -40.3429 H         1 UNK         0.0600 
    179 H179        1.1186  -12.7316  -42.0490 H         1 UNK         0.3000 
    180 H180        3.0940  -14.2555  -42.2816 H         1 UNK         0.0600 
    181 H181        2.7636  -15.7795  -44.9223 H         1 UNK         0.0600 
    182 H182        3.0224  -16.5126  -43.3444 H         1 UNK         0.0600 
    183 H183        4.2814  -15.5251  -44.0623 H         1 UNK         0.0600 
    184 H184        3.1129  -13.3881  -45.0516 H         1 UNK         0.3000 
    185 H185        2.2511  -10.0891  -44.6207 H         1 UNK         0.0600 
    186 H186        4.4758   -9.3624  -45.4263 H         1 UNK         0.0600 
    187 H187        4.5749   -9.7980  -43.7292 H         1 UNK         0.0600 
    188 H188        5.1871  -10.9058  -44.9514 H         1 UNK         0.0600 
    189 H189        3.5338  -11.1120  -46.8390 H         1 UNK         0.3000 
    190 H190       -0.0777  -22.1803  -46.5777 H         1 UNK         0.3000 
    191 H191       -2.8645  -22.0006  -47.2167 H         1 UNK         0.0600 
    192 H192       -3.1337  -21.5295  -44.8303 H         1 UNK         0.0600 
    193 H193       -1.7218  -20.6706  -45.4258 H         1 UNK         0.0600 
    194 H194       -1.5244  -22.1401  -44.4742 H         1 UNK         0.0600 
    195 H195       -0.9021  -24.7492  -46.4364 H         1 UNK         0.3000 
    196 H196       -2.8508  -26.4911  -45.3050 H         1 UNK         0.0600 
    197 H197       -0.4004  -27.1071  -47.0424 H         1 UNK         0.0600 
    198 H198       -0.4013  -26.9470  -45.2864 H         1 UNK         0.0600 
    199 H199       -1.2704  -28.2700  -46.0486 H         1 UNK         0.0600 
    200 H200       -2.5840  -25.2126  -48.5305 H         1 UNK         0.3000 
    201 H201       -4.1083  -27.2771  -49.8988 H         1 UNK         0.0600 
    202 H202       -3.4189  -24.4056  -50.7189 H         1 UNK         0.0600 
    203 H203       -4.0517  -25.6758  -51.7628 H         1 UNK         0.0600 
    204 H204       -2.4502  -25.8367  -51.0636 H         1 UNK         0.0600 
    205 H205       -5.7010  -27.3432  -48.1285 H         1 UNK         0.3000 
    206 H206       -7.7922  -27.2292  -47.4091 H         1 UNK         0.0600 
    207 H207       -8.2116  -27.7040  -49.8364 H         1 UNK         0.0600 
    208 H208       -9.5463  -26.8344  -49.1028 H         1 UNK         0.0600 
    209 H209       -8.4102  -25.9782  -50.1378 H         1 UNK         0.0600 
    210 H210       -6.1228  -24.8497  -46.8080 H         1 UNK         0.3000 
    211 H211       -6.1828  -22.9166  -45.7479 H         1 UNK         0.0600 
    212 H212       -8.1252  -22.1751  -44.4877 H         1 UNK         0.0600 
    213 H213       -8.0144  -23.9215  -44.3577 H         1 UNK         0.0600 
    214 H214       -9.2088  -23.1863  -45.4275 H         1 UNK         0.0600 
    215 H215       -6.9761  -23.1953  -48.7971 H         1 UNK         0.3000 
    216 H216       -8.2324  -20.6065  -49.3368 H         1 UNK         0.0600 
    217 H217       -6.9953  -22.6869  -51.2194 H         1 UNK         0.0600 
    218 H218       -7.9722  -21.3061  -51.7001 H         1 UNK         0.0600 
    219 H219       -8.6940  -22.6036  -50.7598 H         1 UNK         0.0600 
    220 H220       -5.0169  -22.0027  -49.3044 H         1 UNK         0.3000 
    221 H221       -2.9435  -21.2954  -49.4260 H         1 UNK         0.0600 
    222 H222       -3.5352  -19.5253  -47.7998 H         1 UNK         0.0600 
    223 H223       -3.9860  -18.4335  -49.1072 H         1 UNK         0.0600 
    224 H224       -2.3205  -18.9476  -48.9235 H         1 UNK         0.0600 
    225 H225       -4.9177  -19.1304  -51.4392 H         1 UNK         0.3000 
    226 H226       -3.0396  -18.5433  -53.4525 H         1 UNK         0.0600 
    227 H227       -6.0964  -18.6710  -53.5899 H         1 UNK         0.0600 
    228 H228       -5.1331  -17.2730  -53.1136 H         1 UNK         0.0600 
    229 H229       -5.0616  -17.8664  -54.7655 H         1 UNK         0.0600 
    230 H230       -4.9473  -21.4124  -52.9572 H         1 UNK         0.3000 
    231 H231       -4.8229  -22.6090  -55.5379 H         1 UNK         0.0600 
    232 H232       -5.1382  -23.7869  -52.7253 H         1 UNK         0.0600 
    233 H233       -5.3895  -24.6918  -54.2144 H         1 UNK         0.0600 
    234 H234       -6.4337  -23.3340  -53.8289 H         1 UNK         0.0600 
    235 H235       -2.3064  -22.1548  -53.1587 H         1 UNK         0.3000 
    236 H236       -0.4668  -23.8730  -54.7455 H         1 UNK         0.0600 
    237 H237       -1.0057  -25.2052  -52.7819 H         1 UNK         0.0600 
    238 H238        0.6101  -24.5666  -52.5649 H         1 UNK         0.0600 
    239 H239       -0.7437  -23.8396  -51.7008 H         1 UNK         0.0600 
    240 H240       -1.0842  -21.0302  -54.8785 H         1 UNK         0.3000 
    241 H241        1.0139  -19.4886  -53.7225 H         1 UNK         0.0600 
    242 H242        3.8165  -19.6807  -55.9091 H         1 UNK         0.3800 
    243 H243        3.1295  -18.9616  -54.4797 H         1 UNK         0.3800 
    244 H244       -1.2220  -18.6767  -54.7362 H         1 UNK         0.0800 
    245 H245       -0.5100  -18.8559  -56.3029 H         1 UNK         0.0800 
    246 H246       -0.4418  -15.2863  -53.6724 H         1 UNK         0.0800 
    247 H247       -1.3941  -16.7324  -53.5253 H         1 UNK         0.0800 
@<TRIPOS>BOND
     1    1    2 1    
     2    1  127 1    
     3    1  128 1    
     4    1  129 1    
     5    2    3 2    
     6    2    4 am   BACKBONE|DICT|INTERRES
     7    4    5 1    
     8    4  130 1    
     9    5    6 1    
    10    5   65 1    
    11    5  131 1    
    12    6    7 1    
    13    6  132 1    
    14    6  133 1    
    15    7    8 1    
    16    8    9 1    
    17    8  134 1    
    18    8  135 1    
    19    9   10 ar   
    20    9   14 ar   
    21   10   11 ar   
    22   10  136 1    
    23   11   12 ar   
    24   11  126 1    
    25   12   13 ar   
    26   12  137 1    
    27   13   14 ar   
    28   13   15 1    
    29   14  138 1    
    30   15   16 1    
    31   15  139 1    
    32   15  140 1    
    33   16   17 1    
    34   17   18 1    
    35   17  141 1    
    36   17  142 1    
    37   18   19 1    
    38   18   67 1    
    39   18  143 1    
    40   19   20 am   BACKBONE|DICT|INTERRES
    41   19  144 1    
    42   20   21 2    
    43   20   22 1    
    44   22   23 1    
    45   22   24 1    
    46   22  145 1    
    47   23  146 1    
    48   23  147 1    
    49   23  148 1    
    50   24   25 am   BACKBONE|DICT|INTERRES
    51   24  149 1    
    52   25   26 2    
    53   25   27 1    
    54   27   28 1    
    55   27   29 1    
    56   27  150 1    
    57   28  151 1    
    58   28  152 1    
    59   28  153 1    
    60   29   30 am   BACKBONE|DICT|INTERRES
    61   29  154 1    
    62   30   31 2    
    63   30   32 1    
    64   32   33 1    
    65   32   34 1    
    66   32  155 1    
    67   33  156 1    
    68   33  157 1    
    69   33  158 1    
    70   34   35 am   BACKBONE|DICT|INTERRES
    71   34  159 1    
    72   35   36 2    
    73   35   37 1    
    74   37   38 1    
    75   37   39 1    
    76   37  160 1    
    77   38  161 1    
    78   38  162 1    
    79   38  163 1    
    80   39   40 am   BACKBONE|DICT|INTERRES
    81   39  164 1    
    82   40   41 2    
    83   40   42 1    
    84   42   43 1    
    85   42   44 1    
    86   42  165 1    
    87   43  166 1    
    88   43  167 1    
    89   43  168 1    
    90   44   45 am   BACKBONE|DICT|INTERRES
    91   44  169 1    
    92   45   46 2    
    93   45   47 1    
    94   47   48 1    
    95   47   49 1    
    96   47  170 1    
    97   48  171 1    
    98   48  172 1    
    99   48  173 1    
   100   49   50 am   BACKBONE|DICT|INTERRES
   101   49  174 1    
   102   50   51 2    
   103   50   52 1    
   104   52   53 1    
   105   52   54 1    
   106   52  175 1    
   107   53  176 1    
   108   53  177 1    
   109   53  178 1    
   110   54   55 am   BACKBONE|DICT|INTERRES
   111   54  179 1    
   112   55   56 2    
   113   55   57 1    
   114   57   58 1    
   115   57   59 1    
   116   57  180 1    
   117   58  181 1    
   118   58  182 1    
   119   58  183 1    
   120   59   60 am   BACKBONE|DICT|INTERRES
   121   59  184 1    
   122   60   61 2    
   123   60   62 1    
   124   62   63 1    
   125   62   64 1    
   126   62  185 1    
   127   63  186 1    
   128   63  187 1    
   129   63  188 1    
   130   64   65 am   BACKBONE|DICT|INTERRES
   131   64  189 1    
   132   65   66 2    
   133   67   68 2    
   134   67   69 am   BACKBONE|DICT|INTERRES
   135   69   70 1    
   136   69  190 1    
   137   70   71 1    
   138   70   72 1    
   139   70  191 1    
   140   71  192 1    
   141   71  193 1    
   142   71  194 1    
   143   72   73 2    
   144   72   74 am   BACKBONE|DICT|INTERRES
   145   74   75 1    
   146   74  195 1    
   147   75   76 1    
   148   75   77 1    
   149   75  196 1    
   150   76  197 1    
   151   76  198 1    
   152   76  199 1    
   153   77   78 2    
   154   77   79 am   BACKBONE|DICT|INTERRES
   155   79   80 1    
   156   79  200 1    
   157   80   81 1    
   158   80   82 1    
   159   80  201 1    
   160   81  202 1    
   161   81  203 1    
   162   81  204 1    
   163   82   83 2    
   164   82   84 am   BACKBONE|DICT|INTERRES
   165   84   85 1    
   166   84  205 1    
   167   85   86 1    
   168   85   87 1    
   169   85  206 1    
   170   86  207 1    
   171   86  208 1    
   172   86  209 1    
   173   87   88 2    
   174   87   89 am   BACKBONE|DICT|INTERRES
   175   89   90 1    
   176   89  210 1    
   177   90   91 1    
   178   90   92 1    
   179   90  211 1    
   180   91  212 1    
   181   91  213 1    
   182   91  214 1    
   183   92   93 2    
   184   92   94 am   BACKBONE|DICT|INTERRES
   185   94   95 1    
   186   94  215 1    
   187   95   96 1    
   188   95   97 1    
   189   95  216 1    
   190   96  217 1    
   191   96  218 1    
   192   96  219 1    
   193   97   98 2    
   194   97   99 am   BACKBONE|DICT|INTERRES
   195   99  100 1    
   196   99  220 1    
   197  100  101 1    
   198  100  102 1    
   199  100  221 1    
   200  101  222 1    
   201  101  223 1    
   202  101  224 1    
   203  102  103 2    
   204  102  104 am   BACKBONE|DICT|INTERRES
   205  104  105 1    
   206  104  225 1    
   207  105  106 1    
   208  105  107 1    
   209  105  226 1    
   210  106  227 1    
   211  106  228 1    
   212  106  229 1    
   213  107  108 2    
   214  107  109 am   BACKBONE|DICT|INTERRES
   215  109  110 1    
   216  109  230 1    
   217  110  111 1    
   218  110  112 1    
   219  110  231 1    
   220  111  232 1    
   221  111  233 1    
   222  111  234 1    
   223  112  113 2    
   224  112  114 am   BACKBONE|DICT|INTERRES
   225  114  115 1    
   226  114  235 1    
   227  115  116 1    
   228  115  117 1    
   229  115  236 1    
   230  116  237 1    
   231  116  238 1    
   232  116  239 1    
   233  117  118 2    
   234  117  119 am   BACKBONE|DICT|INTERRES
   235  119  120 1    
   236  119  240 1    
   237  120  121 1    
   238  120  124 1    
   239  120  241 1    
   240  121  122 am   BACKBONE|DICT|INTERRES
   241  121  123 2    
   242  122  242 1    
   243  122  243 1    
   244  124  125 1    
   245  124  244 1    
   246  124  245 1    
   247  125  126 1    
   248  126  246 1    
   249  126  247 1    
@<TRIPOS>SUBSTRUCTURE
     1 UNK         1 GROUP             0       ****    0 ROOT    
