@<TRIPOS>MOLECULE
3R540
247   249    1
SMALL
USER_CHARGES


@<TRIPOS>ATOM
      1 CA         -2.0839  -15.9960  -45.8610 C.3       0 UNK        -0.1800 
      2 C          -2.3116  -14.7598  -46.7207 C.2       0 UNK         0.5000 
      3 O          -3.2096  -13.9684  -46.4345 O.2       0 UNK        -0.5000 
      4 N          -1.4944  -14.5881  -47.7685 N.am      1 UNK        -0.5000 
      5 CA         -1.5934  -13.5258  -48.7832 C.3       1 UNK         0.1400 
      6 C6         -0.5710  -13.7249  -49.9288 C.3       23 UNK        -0.0398 
      7 S7         -0.6942  -15.3743  -50.6970 S.3       23 UNK        -0.2404 
      8 C8          1.0008  -16.0050  -50.4704 C.3       23 UNK        -0.0205 
      9 C9          1.1384  -17.4231  -51.0043 C.ar      23 UNK        -0.0193 
     10 C10         0.9126  -17.6793  -52.3590 C.ar      23 UNK        -0.1150 
     11 C11         0.9820  -18.9809  -52.8568 C.ar      23 UNK        -0.0193 
     12 C12         1.3166  -20.0269  -51.9935 C.ar      23 UNK        -0.1150 
     13 C13         1.5753  -19.7902  -50.6394 C.ar      23 UNK        -0.0193 
     14 C14         1.4791  -18.4784  -50.1510 C.ar      23 UNK        -0.1150 
     15 C15         1.9727  -20.9882  -49.7737 C.3       23 UNK        -0.0205 
     16 S16         2.1875  -20.6804  -47.9853 S.3       23 UNK        -0.2404 
     17 C17         0.4639  -20.6525  -47.3829 C.3       23 UNK        -0.0398 
     18 CA         -0.1626  -22.0641  -47.2576 C.3       11 UNK         0.1400 
     19 N           0.6751  -23.0114  -46.5182 N.am      11 UNK        -0.5000 
     20 C           0.5415  -24.3428  -46.5780 C.2       10 UNK         0.5000 
     21 O          -0.3086  -24.9144  -47.2596 O.2       10 UNK        -0.5000 
     22 CA          1.5019  -25.1729  -45.7078 C.3       10 UNK         0.1400 
     23 CB          2.8558  -25.3457  -46.4127 C.3       10 UNK        -0.1800 
     24 N           1.7156  -24.5868  -44.3841 N.am      10 UNK        -0.5000 
     25 C           0.7656  -24.4771  -43.4455 C.2       9 UNK         0.5000 
     26 O          -0.3910  -24.8709  -43.5904 O.2       9 UNK        -0.5000 
     27 CA          1.1619  -23.7602  -42.1424 C.3       9 UNK         0.1400 
     28 CB          1.8566  -24.7349  -41.1797 C.3       9 UNK        -0.1800 
     29 N           2.0104  -22.5796  -42.3374 N.am      9 UNK        -0.5000 
     30 C           1.6916  -21.5226  -43.0956 C.2       8 UNK         0.5000 
     31 O           0.6998  -21.4743  -43.8273 O.2       8 UNK        -0.5000 
     32 CA          2.6467  -20.3186  -43.0445 C.3       8 UNK         0.1400 
     33 CB          3.6665  -20.3902  -44.1897 C.3       8 UNK        -0.1800 
     34 N           1.8904  -19.0740  -43.1577 N.am      8 UNK        -0.5000 
     35 C           1.0644  -18.5939  -42.2211 C.2       7 UNK         0.5000 
     36 O           0.9943  -19.0547  -41.0797 O.2       7 UNK        -0.5000 
     37 CA          0.1722  -17.4068  -42.6407 C.3       7 UNK         0.1400 
     38 CB         -0.7235  -16.9025  -41.4959 C.3       7 UNK        -0.1800 
     39 N           0.9441  -16.2813  -43.1693 N.am      7 UNK        -0.5000 
     40 C           1.4633  -16.2002  -44.4016 C.2       6 UNK         0.5000 
     41 O           1.3903  -17.1172  -45.2214 O.2       6 UNK        -0.5000 
     42 CA          2.1742  -14.8920  -44.7955 C.3       6 UNK         0.1400 
     43 CB          1.6196  -14.3481  -46.1199 C.3       6 UNK        -0.1800 
     44 N           2.0307  -13.8521  -43.7729 N.am      6 UNK        -0.5000 
     45 C           3.0482  -13.2338  -43.1572 C.2       5 UNK         0.5000 
     46 O           4.2332  -13.4829  -43.3820 O.2       5 UNK        -0.5000 
     47 CA          2.7018  -12.1503  -42.1140 C.3       5 UNK         0.1400 
     48 CB          2.9148  -10.7476  -42.7031 C.3       5 UNK        -0.1800 
     49 N           1.3373  -12.2435  -41.5921 N.am      5 UNK        -0.5000 
     50 C           0.8994  -13.2091  -40.7720 C.2       4 UNK         0.5000 
     51 O           1.6133  -14.1195  -40.3516 O.2       4 UNK        -0.5000 
     52 CA         -0.5931  -13.1818  -40.3832 C.3       4 UNK         0.1400 
     53 CB         -0.7783  -12.4765  -39.0312 C.3       4 UNK        -0.1800 
     54 N          -1.4802  -12.5564  -41.3699 N.am      4 UNK        -0.5000 
     55 C          -1.5938  -12.8987  -42.6606 C.2       3 UNK         0.5000 
     56 O          -0.9000  -13.7642  -43.1990 O.2       3 UNK        -0.5000 
     57 CA         -2.6283  -12.1360  -43.5133 C.3       3 UNK         0.1400 
     58 CB         -3.3146  -10.9535  -42.7919 C.3       3 UNK        -0.1800 
     59 N          -2.0358  -11.7046  -44.7804 N.am      3 UNK        -0.5000 
     60 C          -0.9817  -10.8893  -44.9420 C.2       2 UNK         0.5000 
     61 O          -0.4195  -10.3100  -44.0108 O.2       2 UNK        -0.5000 
     62 CA         -0.4490  -10.7294  -46.3796 C.3       2 UNK         0.1400 
     63 CB          1.0522  -10.3878  -46.4096 C.3       2 UNK        -0.1800 
     64 N          -0.6665  -11.9602  -47.1400 N.am      2 UNK        -0.5000 
     65 C          -1.4591  -12.0980  -48.2087 C.2       1 UNK         0.5000 
     66 O          -2.0765  -11.1698  -48.7319 O.2       1 UNK        -0.5000 
     67 C          -1.5730  -21.9939  -46.6464 C.2       11 UNK         0.5000 
     68 O          -2.5547  -21.9880  -47.3882 O.2       11 UNK        -0.5000 
     69 N          -1.6508  -21.9934  -45.3079 N.am      12 UNK        -0.5000 
     70 CA         -2.8908  -22.0508  -44.5355 C.3       12 UNK         0.1400 
     71 CB         -2.5733  -21.9165  -43.0388 C.3       12 UNK        -0.1800 
     72 C          -3.6987  -23.3286  -44.8234 C.2       12 UNK         0.5000 
     73 O          -4.8966  -23.2338  -45.0949 O.2       12 UNK        -0.5000 
     74 N          -3.0150  -24.4841  -44.8241 N.am      13 UNK        -0.5000 
     75 CA         -3.5724  -25.7906  -45.1845 C.3       13 UNK         0.1400 
     76 CB         -2.5313  -26.8884  -44.9211 C.3       13 UNK        -0.1800 
     77 C          -4.0690  -25.8572  -46.6405 C.2       13 UNK         0.5000 
     78 O          -5.0858  -26.4990  -46.9041 O.2       13 UNK        -0.5000 
     79 N          -3.3923  -25.1417  -47.5487 N.am      14 UNK        -0.5000 
     80 CA         -3.7765  -24.9532  -48.9489 C.3       14 UNK         0.1400 
     81 CB         -2.5170  -24.6525  -49.7797 C.3       14 UNK        -0.1800 
     82 C          -4.8696  -23.8748  -49.1313 C.2       14 UNK         0.5000 
     83 O          -4.8195  -23.1116  -50.0983 O.2       14 UNK        -0.5000 
     84 N          -5.8436  -23.8395  -48.2104 N.am      15 UNK        -0.5000 
     85 CA         -7.0210  -22.9670  -48.1791 C.3       15 UNK         0.1400 
     86 CB         -7.9957  -23.3557  -49.3109 C.3       15 UNK        -0.1800 
     87 C          -6.6637  -21.4666  -48.1803 C.2       15 UNK         0.5000 
     88 O          -7.2742  -20.6900  -48.9151 O.2       15 UNK        -0.5000 
     89 N          -5.6550  -21.0938  -47.3776 N.am      16 UNK        -0.5000 
     90 CA         -5.0457  -19.7579  -47.3086 C.3       16 UNK         0.1400 
     91 CB         -6.0179  -18.7360  -46.6842 C.3       16 UNK        -0.1800 
     92 C          -4.4873  -19.3170  -48.6786 C.2       16 UNK         0.5000 
     93 O          -4.8165  -18.2405  -49.1778 O.2       16 UNK        -0.5000 
     94 N          -3.6798  -20.2105  -49.2639 N.am      17 UNK        -0.5000 
     95 CA         -3.0107  -20.1501  -50.5655 C.3       17 UNK         0.1400 
     96 CB         -2.1224  -18.8985  -50.6755 C.3       17 UNK        -0.1800 
     97 C          -3.9315  -20.2943  -51.7945 C.2       17 UNK         0.5000 
     98 O          -3.4145  -20.3650  -52.9112 O.2       17 UNK        -0.5000 
     99 N          -5.2560  -20.3737  -51.6043 N.am      18 UNK        -0.5000 
    100 CA        -6.2366  -20.4773  -52.6875 C.3       18 UNK         0.1400 
    101 CB        -7.6511  -20.2643  -52.1309 C.3       18 UNK        -0.1800 
    102 C         -6.1575  -21.8016  -53.4693 C.2       18 UNK         0.5000 
    103 O         -6.4101  -21.7995  -54.6747 O.2       18 UNK        -0.5000 
    104 N         -5.7950  -22.8985  -52.7885 N.am      19 UNK        -0.5000 
    105 CA        -5.5889  -24.2070  -53.4129 C.3       19 UNK         0.1400 
    106 CB        -5.8753  -25.3201  -52.3937 C.3       19 UNK        -0.1800 
    107 C         -4.1691  -24.3524  -53.9904 C.2       19 UNK         0.5000 
    108 O         -3.9733  -25.1584  -54.9006 O.2       19 UNK        -0.5000 
    109 N         -3.2078  -23.5784  -53.4629 N.am      20 UNK        -0.5000 
    110 CA        -1.8357  -23.5135  -53.9681 C.3       20 UNK         0.1400 
    111 CB        -0.9109  -22.8806  -52.9157 C.3       20 UNK        -0.1800 
    112 C         -1.7697  -22.7426  -55.2970 C.2       20 UNK         0.5000 
    113 O         -1.1490  -23.2218  -56.2465 O.2       20 UNK        -0.5000 
    114 N         -2.4345  -21.5776  -55.3355 N.am      21 UNK        -0.5000 
    115 CA        -2.6781  -20.6740  -56.4680 C.3       21 UNK         0.1400 
    116 CB        -3.5137  -21.3743  -57.5554 C.3       21 UNK        -0.1800 
    117 C         -1.4317  -19.9995  -57.0795 C.2       21 UNK         0.5000 
    118 O         -1.5059  -18.8204  -57.4260 O.2       21 UNK        -0.5000 
    119 N         -0.3209  -20.7377  -57.1973 N.am      22 UNK        -0.5000 
    120 CA         0.9711  -20.3160  -57.7721 C.3       22 UNK         0.1400 
    121 C          0.9311  -20.0216  -59.3057 C.2       22 UNK         0.5000 
    122 N         -0.0726  -20.4826  -60.0425 N.am      22 UNK        -0.7600 
    123 O          1.8375  -19.3964  -59.8502 O.2       22 UNK        -0.5000 
    124 C124        1.6587  -19.1800  -56.9598 C.3       23 UNK        -0.0398 
    125 S125        2.1419  -19.6821  -55.2713 S.3       23 UNK        -0.2404 
    126 C126        0.6552  -19.2561  -54.3150 C.3       23 UNK        -0.0205 
    127 H127       -1.8518  -15.7052  -44.8367 H         1 UNK         0.0600 
    128 H128       -1.2604  -16.6048  -46.2352 H         1 UNK         0.0600 
    129 H129       -2.9824  -16.6128  -45.8461 H         1 UNK         0.0600 
    130 H130       -0.8007  -15.2950  -47.9638 H         1 UNK         0.3000 
    131 H131       -2.5948  -13.5978  -49.2129 H         1 UNK         0.0600 
    132 H132        0.4465  -13.5659  -49.5664 H         1 UNK         0.0800 
    133 H133       -0.7318  -12.9838  -50.7141 H         1 UNK         0.0800 
    134 H134        1.2632  -15.9649  -49.4122 H         1 UNK         0.0800 
    135 H135        1.7038  -15.3559  -50.9943 H         1 UNK         0.0800 
    136 H136        0.6475  -16.8642  -53.0178 H         1 UNK         0.1150 
    137 H137        1.3837  -21.0323  -52.3834 H         1 UNK         0.1150 
    138 H138        1.6662  -18.2663  -49.1089 H         1 UNK         0.1150 
    139 H139        1.2491  -21.7915  -49.9154 H         1 UNK         0.0800 
    140 H140        2.9217  -21.3693  -50.1530 H         1 UNK         0.0800 
    141 H141        0.4685  -20.1485  -46.4142 H         1 UNK         0.0800 
    142 H142       -0.1327  -20.0268  -48.0486 H         1 UNK         0.0800 
    143 H143       -0.2822  -22.4564  -48.2692 H         1 UNK         0.0600 
    144 H144        1.3635  -22.6130  -45.8967 H         1 UNK         0.3000 
    145 H145        1.0578  -26.1615  -45.5731 H         1 UNK         0.0600 
    146 H146        3.5180  -25.9961  -45.8410 H         1 UNK         0.0600 
    147 H147        2.7275  -25.7982  -47.3970 H         1 UNK         0.0600 
    148 H148        3.3625  -24.3902  -46.5545 H         1 UNK         0.0600 
    149 H149        2.6361  -24.2248  -44.1837 H         1 UNK         0.3000 
    150 H150        0.2396  -23.4190  -41.6681 H         1 UNK         0.0600 
    151 H151        1.2390  -25.6167  -41.0034 H         1 UNK         0.0600 
    152 H152        2.0392  -24.2700  -40.2107 H         1 UNK         0.0600 
    153 H153        2.8139  -25.0780  -41.5741 H         1 UNK         0.0600 
    154 H154        2.8527  -22.5418  -41.7817 H         1 UNK         0.3000 
    155 H155        3.1802  -20.3203  -42.0918 H         1 UNK         0.0600 
    156 H156        4.3620  -19.5517  -44.1506 H         1 UNK         0.0600 
    157 H157        3.1774  -20.3724  -45.1637 H         1 UNK         0.0600 
    158 H158        4.2569  -21.3057  -44.1340 H         1 UNK         0.0600 
    159 H159        1.8601  -18.6355  -44.0727 H         1 UNK         0.3000 
    160 H160       -0.4875  -17.7740  -43.4300 H         1 UNK         0.0600 
    161 H161       -0.1320  -16.5114  -40.6675 H         1 UNK         0.0600 
    162 H162       -1.3496  -17.7052  -41.1045 H         1 UNK         0.0600 
    163 H163       -1.3925  -16.1135  -41.8390 H         1 UNK         0.0600 
    164 H164        1.0775  -15.5001  -42.5441 H         1 UNK         0.3000 
    165 H165        3.2244  -15.1489  -44.9453 H         1 UNK         0.0600 
    166 H166        0.5695  -14.0881  -46.0092 H         1 UNK         0.0600 
    167 H167        2.1628  -13.4595  -46.4407 H         1 UNK         0.0600 
    168 H168        1.7012  -15.0835  -46.9213 H         1 UNK         0.0600 
    169 H169        1.0771  -13.6109  -43.5182 H         1 UNK         0.3000 
    170 H170        3.3930  -12.2736  -41.2776 H         1 UNK         0.0600 
    171 H171        3.9369  -10.6250  -43.0639 H         1 UNK         0.0600 
    172 H172        2.2466  -10.5584  -43.5431 H         1 UNK         0.0600 
    173 H173        2.7403   -9.9740  -41.9551 H         1 UNK         0.0600 
    174 H174        0.6781  -11.5501  -41.9196 H         1 UNK         0.3000 
    175 H175       -0.9172  -14.2169  -40.2693 H         1 UNK         0.0600 
    176 H176       -0.5093  -11.4210  -39.0888 H         1 UNK         0.0600 
    177 H177       -1.8111  -12.5427  -38.6886 H         1 UNK         0.0600 
    178 H178       -0.1535  -12.9332  -38.2623 H         1 UNK         0.0600 
    179 H179       -2.0710  -11.8136  -41.0257 H         1 UNK         0.3000 
    180 H180       -3.4013  -12.8620  -43.7688 H         1 UNK         0.0600 
    181 H181       -3.8778  -11.2941  -41.9222 H         1 UNK         0.0600 
    182 H182       -2.5999  -10.2021  -42.4547 H         1 UNK         0.0600 
    183 H183       -4.0247  -10.4568  -43.4532 H         1 UNK         0.0600 
    184 H184       -2.3992  -12.1823  -45.5974 H         1 UNK         0.3000 
    185 H185       -0.9969   -9.8981  -46.8272 H         1 UNK         0.0600 
    186 H186        1.2487   -9.4351  -45.9163 H         1 UNK         0.0600 
    187 H187        1.6483  -11.1484  -45.9048 H         1 UNK         0.0600 
    188 H188        1.4159  -10.3017  -47.4335 H         1 UNK         0.0600 
    189 H189       -0.2297  -12.7907  -46.7684 H         1 UNK         0.3000 
    190 H190       -0.7856  -21.9601  -44.7715 H         1 UNK         0.3000 
    191 H191       -3.5035  -21.1961  -44.8254 H         1 UNK         0.0600 
    192 H192       -3.4873  -21.9206  -42.4438 H         1 UNK         0.0600 
    193 H193       -2.0513  -20.9824  -42.8291 H         1 UNK         0.0600 
    194 H194       -1.9464  -22.7345  -42.6843 H         1 UNK         0.0600 
    195 H195       -2.0362  -24.4763  -44.5504 H         1 UNK         0.3000 
    196 H196       -4.4313  -25.9734  -44.5358 H         1 UNK         0.0600 
    197 H197       -2.9246  -27.8724  -45.1798 H         1 UNK         0.0600 
    198 H198       -2.2491  -26.9189  -43.8687 H         1 UNK         0.0600 
    199 H199       -1.6249  -26.7313  -45.5068 H         1 UNK         0.0600 
    200 H200       -2.5587  -24.6517  -47.2490 H         1 UNK         0.3000 
    201 H201       -4.1957  -25.8904  -49.3198 H         1 UNK         0.0600 
    202 H202       -1.7551  -25.4184  -49.6350 H         1 UNK         0.0600 
    203 H203       -2.0796  -23.6900  -49.5144 H         1 UNK         0.0600 
    204 H204       -2.7491  -24.6288  -50.8440 H         1 UNK         0.0600 
    205 H205       -5.7825  -24.5129  -47.4571 H         1 UNK         0.3000 
    206 H206       -7.5219  -23.1586  -47.2292 H         1 UNK         0.0600 
    207 H207       -8.2659  -24.4100  -49.2521 H         1 UNK         0.0600 
    208 H208       -8.9205  -22.7810  -49.2486 H         1 UNK         0.0600 
    209 H209       -7.5644  -23.1774  -50.2959 H         1 UNK         0.0600 
    210 H210       -5.2040  -21.8168  -46.8294 H         1 UNK         0.3000 
    211 H211       -4.1867  -19.8376  -46.6422 H         1 UNK         0.0600 
    212 H212       -6.8932  -18.5683  -47.3122 H         1 UNK         0.0600 
    213 H213       -5.5291  -17.7714  -46.5426 H         1 UNK         0.0600 
    214 H214       -6.3656  -19.0705  -45.7068 H         1 UNK         0.0600 
    215 H215       -3.4857  -21.0566  -48.7328 H         1 UNK         0.3000 
    216 H216       -2.3522  -21.0195  -50.5873 H         1 UNK         0.0600 
    217 H217       -2.7071  -17.9793  -50.7073 H         1 UNK         0.0600 
    218 H218       -1.5301  -18.9285  -51.5885 H         1 UNK         0.0600 
    219 H219       -1.4290  -18.8270  -49.8384 H         1 UNK         0.0600 
    220 H220       -5.6161  -20.3459  -50.6594 H         1 UNK         0.3000 
    221 H221       -6.0305  -19.6691  -53.3924 H         1 UNK         0.0600 
    222 H222       -7.9464  -21.0727  -51.4625 H         1 UNK         0.0600 
    223 H223       -7.7236  -19.3275  -51.5781 H         1 UNK         0.0600 
    224 H224       -8.3843  -20.2253  -52.9374 H         1 UNK         0.0600 
    225 H225       -5.5726  -22.8231  -51.7979 H         1 UNK         0.3000 
    226 H226       -6.2971  -24.3252  -54.2358 H         1 UNK         0.0600 
    227 H227       -6.8405  -25.1783  -51.9072 H         1 UNK         0.0600 
    228 H228       -5.8970  -26.2940  -52.8839 H         1 UNK         0.0600 
    229 H229       -5.1094  -25.3675  -51.6218 H         1 UNK         0.0600 
    230 H230       -3.4651  -22.9240  -52.7392 H         1 UNK         0.3000 
    231 H231       -1.4861  -24.5319  -54.1513 H         1 UNK         0.0600 
    232 H232       -0.9194  -23.4471  -51.9853 H         1 UNK         0.0600 
    233 H233        0.1193  -22.8657  -53.2731 H         1 UNK         0.0600 
    234 H234       -1.1907  -21.8528  -52.6862 H         1 UNK         0.0600 
    235 H235       -2.8498  -21.2570  -54.4631 H         1 UNK         0.3000 
    236 H236       -3.2904  -19.8686  -56.0588 H         1 UNK         0.0600 
    237 H237       -4.4444  -21.7650  -57.1428 H         1 UNK         0.0600 
    238 H238       -3.7785  -20.6785  -58.3525 H         1 UNK         0.0600 
    239 H239       -2.9752  -22.2050  -58.0122 H         1 UNK         0.0600 
    240 H240       -0.3849  -21.7107  -56.9070 H         1 UNK         0.3000 
    241 H241        1.6140  -21.1932  -57.6944 H         1 UNK         0.0600 
    242 H242       -0.0862  -20.2992  -61.0337 H         1 UNK         0.3800 
    243 H243       -0.8162  -21.0144  -59.6197 H         1 UNK         0.3800 
    244 H244        1.0373  -18.2849  -56.9259 H         1 UNK         0.0800 
    245 H245        2.5833  -18.8715  -57.4497 H         1 UNK         0.0800 
    246 H246       -0.0573  -20.0790  -54.3724 H         1 UNK         0.0800 
    247 H247        0.1611  -18.3903  -54.7583 H         1 UNK         0.0800 
@<TRIPOS>BOND
     1    1    2 1    
     2    1  127 1    
     3    1  128 1    
     4    1  129 1    
     5    2    3 2    
     6    2    4 am   BACKBONE|DICT|INTERRES
     7    4    5 1    
     8    4  130 1    
     9    5    6 1    
    10    5   65 1    
    11    5  131 1    
    12    6    7 1    
    13    6  132 1    
    14    6  133 1    
    15    7    8 1    
    16    8    9 1    
    17    8  134 1    
    18    8  135 1    
    19    9   10 ar   
    20    9   14 ar   
    21   10   11 ar   
    22   10  136 1    
    23   11   12 ar   
    24   11  126 1    
    25   12   13 ar   
    26   12  137 1    
    27   13   14 ar   
    28   13   15 1    
    29   14  138 1    
    30   15   16 1    
    31   15  139 1    
    32   15  140 1    
    33   16   17 1    
    34   17   18 1    
    35   17  141 1    
    36   17  142 1    
    37   18   19 1    
    38   18   67 1    
    39   18  143 1    
    40   19   20 am   BACKBONE|DICT|INTERRES
    41   19  144 1    
    42   20   21 2    
    43   20   22 1    
    44   22   23 1    
    45   22   24 1    
    46   22  145 1    
    47   23  146 1    
    48   23  147 1    
    49   23  148 1    
    50   24   25 am   BACKBONE|DICT|INTERRES
    51   24  149 1    
    52   25   26 2    
    53   25   27 1    
    54   27   28 1    
    55   27   29 1    
    56   27  150 1    
    57   28  151 1    
    58   28  152 1    
    59   28  153 1    
    60   29   30 am   BACKBONE|DICT|INTERRES
    61   29  154 1    
    62   30   31 2    
    63   30   32 1    
    64   32   33 1    
    65   32   34 1    
    66   32  155 1    
    67   33  156 1    
    68   33  157 1    
    69   33  158 1    
    70   34   35 am   BACKBONE|DICT|INTERRES
    71   34  159 1    
    72   35   36 2    
    73   35   37 1    
    74   37   38 1    
    75   37   39 1    
    76   37  160 1    
    77   38  161 1    
    78   38  162 1    
    79   38  163 1    
    80   39   40 am   BACKBONE|DICT|INTERRES
    81   39  164 1    
    82   40   41 2    
    83   40   42 1    
    84   42   43 1    
    85   42   44 1    
    86   42  165 1    
    87   43  166 1    
    88   43  167 1    
    89   43  168 1    
    90   44   45 am   BACKBONE|DICT|INTERRES
    91   44  169 1    
    92   45   46 2    
    93   45   47 1    
    94   47   48 1    
    95   47   49 1    
    96   47  170 1    
    97   48  171 1    
    98   48  172 1    
    99   48  173 1    
   100   49   50 am   BACKBONE|DICT|INTERRES
   101   49  174 1    
   102   50   51 2    
   103   50   52 1    
   104   52   53 1    
   105   52   54 1    
   106   52  175 1    
   107   53  176 1    
   108   53  177 1    
   109   53  178 1    
   110   54   55 am   BACKBONE|DICT|INTERRES
   111   54  179 1    
   112   55   56 2    
   113   55   57 1    
   114   57   58 1    
   115   57   59 1    
   116   57  180 1    
   117   58  181 1    
   118   58  182 1    
   119   58  183 1    
   120   59   60 am   BACKBONE|DICT|INTERRES
   121   59  184 1    
   122   60   61 2    
   123   60   62 1    
   124   62   63 1    
   125   62   64 1    
   126   62  185 1    
   127   63  186 1    
   128   63  187 1    
   129   63  188 1    
   130   64   65 am   BACKBONE|DICT|INTERRES
   131   64  189 1    
   132   65   66 2    
   133   67   68 2    
   134   67   69 am   BACKBONE|DICT|INTERRES
   135   69   70 1    
   136   69  190 1    
   137   70   71 1    
   138   70   72 1    
   139   70  191 1    
   140   71  192 1    
   141   71  193 1    
   142   71  194 1    
   143   72   73 2    
   144   72   74 am   BACKBONE|DICT|INTERRES
   145   74   75 1    
   146   74  195 1    
   147   75   76 1    
   148   75   77 1    
   149   75  196 1    
   150   76  197 1    
   151   76  198 1    
   152   76  199 1    
   153   77   78 2    
   154   77   79 am   BACKBONE|DICT|INTERRES
   155   79   80 1    
   156   79  200 1    
   157   80   81 1    
   158   80   82 1    
   159   80  201 1    
   160   81  202 1    
   161   81  203 1    
   162   81  204 1    
   163   82   83 2    
   164   82   84 am   BACKBONE|DICT|INTERRES
   165   84   85 1    
   166   84  205 1    
   167   85   86 1    
   168   85   87 1    
   169   85  206 1    
   170   86  207 1    
   171   86  208 1    
   172   86  209 1    
   173   87   88 2    
   174   87   89 am   BACKBONE|DICT|INTERRES
   175   89   90 1    
   176   89  210 1    
   177   90   91 1    
   178   90   92 1    
   179   90  211 1    
   180   91  212 1    
   181   91  213 1    
   182   91  214 1    
   183   92   93 2    
   184   92   94 am   BACKBONE|DICT|INTERRES
   185   94   95 1    
   186   94  215 1    
   187   95   96 1    
   188   95   97 1    
   189   95  216 1    
   190   96  217 1    
   191   96  218 1    
   192   96  219 1    
   193   97   98 2    
   194   97   99 am   BACKBONE|DICT|INTERRES
   195   99  100 1    
   196   99  220 1    
   197  100  101 1    
   198  100  102 1    
   199  100  221 1    
   200  101  222 1    
   201  101  223 1    
   202  101  224 1    
   203  102  103 2    
   204  102  104 am   BACKBONE|DICT|INTERRES
   205  104  105 1    
   206  104  225 1    
   207  105  106 1    
   208  105  107 1    
   209  105  226 1    
   210  106  227 1    
   211  106  228 1    
   212  106  229 1    
   213  107  108 2    
   214  107  109 am   BACKBONE|DICT|INTERRES
   215  109  110 1    
   216  109  230 1    
   217  110  111 1    
   218  110  112 1    
   219  110  231 1    
   220  111  232 1    
   221  111  233 1    
   222  111  234 1    
   223  112  113 2    
   224  112  114 am   BACKBONE|DICT|INTERRES
   225  114  115 1    
   226  114  235 1    
   227  115  116 1    
   228  115  117 1    
   229  115  236 1    
   230  116  237 1    
   231  116  238 1    
   232  116  239 1    
   233  117  118 2    
   234  117  119 am   BACKBONE|DICT|INTERRES
   235  119  120 1    
   236  119  240 1    
   237  120  121 1    
   238  120  124 1    
   239  120  241 1    
   240  121  122 am   BACKBONE|DICT|INTERRES
   241  121  123 2    
   242  122  242 1    
   243  122  243 1    
   244  124  125 1    
   245  124  244 1    
   246  124  245 1    
   247  125  126 1    
   248  126  246 1    
   249  126  247 1    
@<TRIPOS>SUBSTRUCTURE
     1 UNK         1 GROUP             0       ****    0 ROOT    
