@<TRIPOS>MOLECULE
3R540
247   249    1
SMALL
USER_CHARGES


@<TRIPOS>ATOM
      1 CA         -2.9229  -14.9434  -50.5278 C.3       0 UNK        -0.1800 
      2 C          -2.2104  -14.9003  -49.1832 C.2       0 UNK         0.5000 
      3 O          -2.4126  -15.7952  -48.3658 O.2       0 UNK        -0.5000 
      4 N          -1.4016  -13.8512  -48.9627 N.am      1 UNK        -0.5000 
      5 CA         -0.5037  -13.5977  -47.8198 C.3       1 UNK         0.1400 
      6 C6          0.9097  -14.2295  -47.9759 C.3       23 UNK        -0.0398 
      7 S7          0.9437  -16.0498  -48.0749 S.3       23 UNK        -0.2404 
      8 C8          2.4126  -16.3337  -49.1073 C.3       23 UNK        -0.0205 
      9 C9          2.4161  -17.7358  -49.6967 C.ar      23 UNK        -0.0193 
     10 C10         1.7051  -17.9877  -50.8711 C.ar      23 UNK        -0.1150 
     11 C11         1.7147  -19.2560  -51.4567 C.ar      23 UNK        -0.0193 
     12 C12         2.4645  -20.2780  -50.8626 C.ar      23 UNK        -0.1150 
     13 C13         3.1979  -20.0368  -49.6939 C.ar      23 UNK        -0.0193 
     14 C14         3.1550  -18.7661  -49.1069 C.ar      23 UNK        -0.1150 
     15 C15         4.1140  -21.1138  -49.1185 C.3       23 UNK        -0.0205 
     16 S16         3.2390  -22.5908  -48.5061 S.3       23 UNK        -0.2404 
     17 C17         2.4196  -21.9470  -47.0063 C.3       23 UNK        -0.0398 
     18 CA          0.9722  -22.4645  -46.8164 C.3       11 UNK         0.1400 
     19 N           0.3825  -22.0202  -45.5504 N.am      11 UNK        -0.5000 
     20 C          -0.8108  -22.4169  -45.0825 C.2       10 UNK         0.5000 
     21 O          -1.5104  -23.2680  -45.6318 O.2       10 UNK        -0.5000 
     22 CA         -1.3332  -21.7260  -43.8110 C.3       10 UNK         0.1400 
     23 CB         -0.7466  -22.3916  -42.5579 C.3       10 UNK        -0.1800 
     24 N          -1.0566  -20.2885  -43.7893 N.am      10 UNK        -0.5000 
     25 C          -1.5770  -19.3990  -44.6489 C.2       9 UNK         0.5000 
     26 O          -2.3963  -19.6933  -45.5181 O.2       9 UNK        -0.5000 
     27 CA         -1.0543  -17.9509  -44.5620 C.3       9 UNK         0.1400 
     28 CB         -1.7384  -17.1789  -43.4245 C.3       9 UNK        -0.1800 
     29 N           0.3965  -17.8860  -44.3901 N.am      9 UNK        -0.5000 
     30 C           1.2826  -18.3839  -45.2635 C.2       8 UNK         0.5000 
     31 O           0.9712  -18.9471  -46.3119 O.2       8 UNK        -0.5000 
     32 CA          2.7621  -18.3109  -44.8542 C.3       8 UNK         0.1400 
     33 CB          3.3295  -16.8943  -45.0383 C.3       8 UNK        -0.1800 
     34 N           2.9492  -18.7484  -43.4708 N.am      8 UNK        -0.5000 
     35 C           2.8102  -20.0164  -43.0577 C.2       7 UNK         0.5000 
     36 O           2.5556  -20.9552  -43.8114 O.2       7 UNK        -0.5000 
     37 CA          2.9447  -20.2754  -41.5456 C.3       7 UNK         0.1400 
     38 CB          4.4205  -20.4444  -41.1554 C.3       7 UNK        -0.1800 
     39 N           2.3475  -19.2153  -40.7326 N.am      7 UNK        -0.5000 
     40 C           1.0356  -18.9432  -40.6849 C.2       6 UNK         0.5000 
     41 O           0.1821  -19.5819  -41.2969 O.2       6 UNK        -0.5000 
     42 CA          0.6109  -17.7180  -39.8548 C.3       6 UNK         0.1400 
     43 CB          0.3847  -18.1116  -38.3876 C.3       6 UNK        -0.1800 
     44 N           1.5683  -16.6102  -39.9206 N.am      6 UNK        -0.5000 
     45 C           1.9230  -15.9790  -41.0473 C.2       5 UNK         0.5000 
     46 O           1.5099  -16.2930  -42.1666 O.2       5 UNK        -0.5000 
     47 CA          2.9631  -14.8536  -40.8985 C.3       5 UNK         0.1400 
     48 CB          4.3827  -15.4373  -40.9778 C.3       5 UNK        -0.1800 
     49 N           2.8216  -13.8270  -41.9303 N.am      5 UNK        -0.5000 
     50 C           1.7558  -13.0304  -42.0830 C.2       4 UNK         0.5000 
     51 O           0.8033  -13.0187  -41.2984 O.2       4 UNK        -0.5000 
     52 CA          1.7803  -12.0794  -43.2995 C.3       4 UNK         0.1400 
     53 CB          2.4751  -12.7003  -44.5285 C.3       4 UNK        -0.1800 
     54 N           0.4269  -11.6694  -43.6758 N.am      4 UNK        -0.5000 
     55 C          -0.2272  -10.6185  -43.1588 C.2       3 UNK         0.5000 
     56 O           0.2746   -9.8436  -42.3422 O.2       3 UNK        -0.5000 
     57 CA         -1.6708  -10.3568  -43.6400 C.3       3 UNK         0.1400 
     58 CB         -1.7396   -9.0545  -44.4546 C.3       3 UNK        -0.1800 
     59 N          -2.2168  -11.4403  -44.4573 N.am      3 UNK        -0.5000 
     60 C          -2.7736  -12.5633  -43.9843 C.2       2 UNK         0.5000 
     61 O          -2.9512  -12.7887  -42.7873 O.2       2 UNK        -0.5000 
     62 CA         -3.1901  -13.6190  -45.0298 C.3       2 UNK         0.1400 
     63 CB         -4.6911  -13.5135  -45.3380 C.3       2 UNK        -0.1800 
     64 N          -2.4387  -13.5307  -46.2868 N.am      2 UNK        -0.5000 
     65 C          -1.1246  -13.7678  -46.4102 C.2       1 UNK         0.5000 
     66 O          -0.4078  -14.0407  -45.4475 O.2       1 UNK        -0.5000 
     67 C           0.0566  -22.1167  -48.0064 C.2       11 UNK         0.5000 
     68 O          -0.2764  -23.0060  -48.7883 O.2       11 UNK        -0.5000 
     69 N          -0.3859  -20.8562  -48.0823 N.am      12 UNK        -0.5000 
     70 CA         -1.3234  -20.3907  -49.0989 C.3       12 UNK         0.1400 
     71 CB         -1.5011  -18.8732  -48.9750 C.3       12 UNK        -0.1800 
     72 C          -2.6809  -21.1140  -49.0345 C.2       12 UNK         0.5000 
     73 O          -3.1660  -21.5875  -50.0602 O.2       12 UNK        -0.5000 
     74 N          -3.2626  -21.1942  -47.8307 N.am      13 UNK        -0.5000 
     75 CA         -4.5838  -21.7681  -47.5937 C.3       13 UNK         0.1400 
     76 CB         -5.0488  -21.4178  -46.1722 C.3       13 UNK        -0.1800 
     77 C          -4.6678  -23.2862  -47.8285 C.2       13 UNK         0.5000 
     78 O          -5.6285  -23.7332  -48.4546 O.2       13 UNK        -0.5000 
     79 N          -3.7047  -24.0491  -47.2939 N.am      14 UNK        -0.5000 
     80 CA         -3.7513  -25.5104  -47.2694 C.3       14 UNK         0.1400 
     81 CB         -3.4389  -26.0144  -45.8495 C.3       14 UNK        -0.1800 
     82 C          -2.8014  -26.1342  -48.2997 C.2       14 UNK         0.5000 
     83 O          -3.2627  -26.8648  -49.1777 O.2       14 UNK        -0.5000 
     84 N          -1.4935  -25.8671  -48.1685 N.am      15 UNK        -0.5000 
     85 CA         -0.4416  -26.5245  -48.9551 C.3       15 UNK         0.1400 
     86 CB          0.9402  -26.1959  -48.3688 C.3       15 UNK        -0.1800 
     87 C          -0.5005  -26.1869  -50.4559 C.2       15 UNK         0.5000 
     88 O          -0.2861  -27.0678  -51.2888 O.2       15 UNK        -0.5000 
     89 N          -0.8421  -24.9325  -50.7680 N.am      16 UNK        -0.5000 
     90 CA         -1.0437  -24.4121  -52.1191 C.3       16 UNK         0.1400 
     91 CB         -0.5266  -22.9668  -52.1664 C.3       16 UNK        -0.1800 
     92 C          -2.5122  -24.5357  -52.5888 C.2       16 UNK         0.5000 
     93 O          -2.9284  -23.8049  -53.4888 O.2       16 UNK        -0.5000 
     94 N          -3.2656  -25.4668  -51.9835 N.am      17 UNK        -0.5000 
     95 CA         -4.6394  -25.8991  -52.2687 C.3       17 UNK         0.1400 
     96 CB         -4.8013  -26.3634  -53.7293 C.3       17 UNK        -0.1800 
     97 C          -5.7349  -24.8918  -51.8760 C.2       17 UNK         0.5000 
     98 O          -6.7263  -25.2976  -51.2678 O.2       17 UNK        -0.5000 
     99 N          -5.5511  -23.6163  -52.2230 N.am      18 UNK        -0.5000 
    100 CA        -6.4321  -22.5031  -51.8906 C.3       18 UNK         0.1400 
    101 CB        -7.7271  -22.5565  -52.7238 C.3       18 UNK        -0.1800 
    102 C         -5.6702  -21.2093  -52.1783 C.2       18 UNK         0.5000 
    103 O         -5.0528  -21.1056  -53.2392 O.2       18 UNK        -0.5000 
    104 N         -5.7535  -20.2341  -51.2649 N.am      19 UNK        -0.5000 
    105 CA        -4.9807  -18.9868  -51.3092 C.3       19 UNK         0.1400 
    106 CB        -5.1678  -18.2397  -49.9795 C.3       19 UNK        -0.1800 
    107 C         -5.3219  -18.0715  -52.5011 C.2       19 UNK         0.5000 
    108 O         -4.4791  -17.2785  -52.9198 O.2       19 UNK        -0.5000 
    109 N         -6.5432  -18.2092  -53.0354 N.am      20 UNK        -0.5000 
    110 CA        -7.0148  -17.5076  -54.2295 C.3       20 UNK         0.1400 
    111 CB        -8.5439  -17.6357  -54.3083 C.3       20 UNK        -0.1800 
    112 C         -6.3648  -18.0187  -55.5313 C.2       20 UNK         0.5000 
    113 O         -6.2827  -17.2594  -56.4977 O.2       20 UNK        -0.5000 
    114 N         -5.9253  -19.2843  -55.5384 N.am      21 UNK        -0.5000 
    115 CA        -5.2359  -19.9203  -56.6590 C.3       21 UNK         0.1400 
    116 CB        -5.7564  -21.3587  -56.8242 C.3       21 UNK        -0.1800 
    117 C         -3.7190  -19.9050  -56.4204 C.2       21 UNK         0.5000 
    118 O         -2.9695  -19.4121  -57.2639 O.2       21 UNK        -0.5000 
    119 N         -3.3091  -20.4270  -55.2585 N.am      22 UNK        -0.5000 
    120 CA        -1.9299  -20.5288  -54.7667 C.3       22 UNK         0.1400 
    121 C         -0.9765  -21.3920  -55.6519 C.2       22 UNK         0.5000 
    122 N         -1.4862  -22.3679  -56.3934 N.am      22 UNK        -0.7600 
    123 O          0.2363  -21.1997  -55.6577 O.2       22 UNK        -0.5000 
    124 C124       -1.3460  -19.1443  -54.3547 C.3       23 UNK        -0.0398 
    125 S125       -0.8116  -19.1139  -52.6111 S.3       23 UNK        -0.2404 
    126 C126        0.9646  -19.4891  -52.7624 C.3       23 UNK        -0.0205 
    127 H127       -2.6292  -14.1145  -51.1720 H         1 UNK         0.0600 
    128 H128       -4.0023  -14.8973  -50.3844 H         1 UNK         0.0600 
    129 H129       -2.6866  -15.8737  -51.0454 H         1 UNK         0.0600 
    130 H130       -1.3388  -13.1554  -49.6925 H         1 UNK         0.3000 
    131 H131       -0.3338  -12.5212  -47.8717 H         1 UNK         0.0600 
    132 H132        1.5680  -13.9190  -47.1638 H         1 UNK         0.0800 
    133 H133        1.3651  -13.8267  -48.8808 H         1 UNK         0.0800 
    134 H134        3.3118  -16.1634  -48.5143 H         1 UNK         0.0800 
    135 H135        2.4391  -15.6078  -49.9212 H         1 UNK         0.0800 
    136 H136        1.1402  -17.1905  -51.3337 H         1 UNK         0.1150 
    137 H137        2.5040  -21.2552  -51.3230 H         1 UNK         0.1150 
    138 H138        3.7217  -18.5670  -48.2086 H         1 UNK         0.1150 
    139 H139        4.8088  -21.4264  -49.8991 H         1 UNK         0.0800 
    140 H140        4.7304  -20.7102  -48.3137 H         1 UNK         0.0800 
    141 H141        2.4370  -20.8591  -47.0296 H         1 UNK         0.0800 
    142 H142        3.0286  -22.2377  -46.1498 H         1 UNK         0.0800 
    143 H143        1.0241  -23.5531  -46.7594 H         1 UNK         0.0600 
    144 H144        0.9173  -21.3432  -45.0180 H         1 UNK         0.3000 
    145 H145       -2.4168  -21.8565  -43.7863 H         1 UNK         0.0600 
    146 H146       -1.1856  -21.9774  -41.6502 H         1 UNK         0.0600 
    147 H147        0.3339  -22.2571  -42.4994 H         1 UNK         0.0600 
    148 H148       -0.9461  -23.4640  -42.5547 H         1 UNK         0.0600 
    149 H149       -0.4333  -19.9595  -43.0568 H         1 UNK         0.3000 
    150 H150       -1.2937  -17.4523  -45.5043 H         1 UNK         0.0600 
    151 H151       -2.8200  -17.1589  -43.5628 H         1 UNK         0.0600 
    152 H152       -1.3930  -16.1450  -43.3887 H         1 UNK         0.0600 
    153 H153       -1.5377  -17.6316  -42.4534 H         1 UNK         0.0600 
    154 H154        0.7426  -17.4154  -43.5585 H         1 UNK         0.3000 
    155 H155        3.3250  -18.9841  -45.5043 H         1 UNK         0.0600 
    156 H156        3.2595  -16.5837  -46.0804 H         1 UNK         0.0600 
    157 H157        4.3812  -16.8493  -44.7561 H         1 UNK         0.0600 
    158 H158        2.7903  -16.1562  -44.4449 H         1 UNK         0.0600 
    159 H159        3.0814  -18.0237  -42.7809 H         1 UNK         0.3000 
    160 H160        2.4233  -21.2083  -41.3212 H         1 UNK         0.0600 
    161 H161        4.9919  -19.5320  -41.3308 H         1 UNK         0.0600 
    162 H162        4.8881  -21.2415  -41.7351 H         1 UNK         0.0600 
    163 H163        4.5222  -20.7076  -40.1024 H         1 UNK         0.0600 
    164 H164        2.9782  -18.6382  -40.1967 H         1 UNK         0.3000 
    165 H165       -0.3369  -17.3592  -40.2612 H         1 UNK         0.0600 
    166 H166       -0.0050  -17.2734  -37.8096 H         1 UNK         0.0600 
    167 H167       -0.3399  -18.9233  -38.3088 H         1 UNK         0.0600 
    168 H168        1.3074  -18.4478  -37.9130 H         1 UNK         0.0600 
    169 H169        1.9615  -16.3043  -39.0422 H         1 UNK         0.3000 
    170 H170        2.8290  -14.3772  -39.9252 H         1 UNK         0.0600 
    171 H171        4.5693  -15.9134  -41.9416 H         1 UNK         0.0600 
    172 H172        5.1363  -14.6626  -40.8353 H         1 UNK         0.0600 
    173 H173        4.5436  -16.1889  -40.2039 H         1 UNK         0.0600 
    174 H174        3.5503  -13.7922  -42.6270 H         1 UNK         0.3000 
    175 H175        2.3534  -11.1970  -43.0080 H         1 UNK         0.0600 
    176 H176        2.0876  -13.6947  -44.7518 H         1 UNK         0.0600 
    177 H177        2.3392  -12.0809  -45.4152 H         1 UNK         0.0600 
    178 H178        3.5498  -12.7950  -44.3711 H         1 UNK         0.0600 
    179 H179       -0.0726  -12.3110  -44.2800 H         1 UNK         0.3000 
    180 H180       -2.2928  -10.2340  -42.7507 H         1 UNK         0.0600 
    181 H181       -2.7633   -8.8312  -44.7561 H         1 UNK         0.0600 
    182 H182       -1.1277   -9.1106  -45.3558 H         1 UNK         0.0600 
    183 H183       -1.3839   -8.2057  -43.8690 H         1 UNK         0.0600 
    184 H184       -2.1231  -11.3422  -45.4573 H         1 UNK         0.3000 
    185 H185       -2.9995  -14.6022  -44.5955 H         1 UNK         0.0600 
    186 H186       -4.9415  -12.5563  -45.7971 H         1 UNK         0.0600 
    187 H187       -5.0108  -14.3061  -46.0150 H         1 UNK         0.0600 
    188 H188       -5.2845  -13.6066  -44.4274 H         1 UNK         0.0600 
    189 H189       -2.9677  -13.3243  -47.1214 H         1 UNK         0.3000 
    190 H190       -0.0506  -20.1702  -47.4103 H         1 UNK         0.3000 
    191 H191       -0.8761  -20.6002  -50.0710 H         1 UNK         0.0600 
    192 H192       -1.9044  -18.5863  -48.0035 H         1 UNK         0.0600 
    193 H193       -2.1765  -18.4912  -49.7403 H         1 UNK         0.0600 
    194 H194       -0.5496  -18.3605  -49.1030 H         1 UNK         0.0600 
    195 H195       -2.8073  -20.7556  -47.0335 H         1 UNK         0.3000 
    196 H196       -5.2750  -21.2934  -48.2930 H         1 UNK         0.0600 
    197 H197       -5.1041  -20.3382  -46.0310 H         1 UNK         0.0600 
    198 H198       -4.3711  -21.8196  -45.4182 H         1 UNK         0.0600 
    199 H199       -6.0416  -21.8230  -45.9727 H         1 UNK         0.0600 
    200 H200       -2.9322  -23.6107  -46.7974 H         1 UNK         0.3000 
    201 H201       -4.7579  -25.8597  -47.5094 H         1 UNK         0.0600 
    202 H202       -4.1504  -25.6146  -45.1270 H         1 UNK         0.0600 
    203 H203       -2.4386  -25.7330  -45.5206 H         1 UNK         0.0600 
    204 H204       -3.5035  -27.1021  -45.8007 H         1 UNK         0.0600 
    205 H205       -1.1964  -25.2102  -47.4608 H         1 UNK         0.3000 
    206 H206       -0.5926  -27.6017  -48.8578 H         1 UNK         0.0600 
    207 H207        1.7143  -26.7938  -48.8510 H         1 UNK         0.0600 
    208 H208        1.2066  -25.1503  -48.5162 H         1 UNK         0.0600 
    209 H209        0.9824  -26.4100  -47.3008 H         1 UNK         0.0600 
    210 H210       -0.9283  -24.2582  -50.0093 H         1 UNK         0.3000 
    211 H211       -0.4391  -24.9955  -52.8160 H         1 UNK         0.0600 
    212 H212       -1.2277  -22.2721  -51.7066 H         1 UNK         0.0600 
    213 H213       -0.3719  -22.6523  -53.1957 H         1 UNK         0.0600 
    214 H214        0.4309  -22.8636  -51.6553 H         1 UNK         0.0600 
    215 H215       -2.8375  -25.9595  -51.2096 H         1 UNK         0.3000 
    216 H216       -4.7920  -26.7762  -51.6377 H         1 UNK         0.0600 
    217 H217       -5.7890  -26.7973  -53.8895 H         1 UNK         0.0600 
    218 H218       -4.0657  -27.1259  -53.9851 H         1 UNK         0.0600 
    219 H219       -4.6925  -25.5399  -54.4355 H         1 UNK         0.0600 
    220 H220       -4.7013  -23.3646  -52.7235 H         1 UNK         0.3000 
    221 H221       -6.6746  -22.5504  -50.8270 H         1 UNK         0.0600 
    222 H222       -7.5150  -22.5558  -53.7939 H         1 UNK         0.0600 
    223 H223       -8.3119  -23.4484  -52.5001 H         1 UNK         0.0600 
    224 H224       -8.3624  -21.6952  -52.5139 H         1 UNK         0.0600 
    225 H225       -6.3069  -20.3873  -50.4354 H         1 UNK         0.3000 
    226 H226       -3.9263  -19.2546  -51.4064 H         1 UNK         0.0600 
    227 H227       -4.8486  -18.8482  -49.1335 H         1 UNK         0.0600 
    228 H228       -4.5730  -17.3266  -49.9570 H         1 UNK         0.0600 
    229 H229       -6.2089  -17.9579  -49.8186 H         1 UNK         0.0600 
    230 H230       -7.1741  -18.8776  -52.6189 H         1 UNK         0.3000 
    231 H231       -6.7649  -16.4493  -54.1280 H         1 UNK         0.0600 
    232 H232       -8.9366  -17.1004  -55.1739 H         1 UNK         0.0600 
    233 H233       -9.0217  -17.2145  -53.4236 H         1 UNK         0.0600 
    234 H234       -8.8568  -18.6770  -54.3967 H         1 UNK         0.0600 
    235 H235       -5.9665  -19.8165  -54.6782 H         1 UNK         0.3000 
    236 H236       -5.4385  -19.3831  -57.5880 H         1 UNK         0.0600 
    237 H237       -5.6120  -21.9538  -55.9214 H         1 UNK         0.0600 
    238 H238       -6.8212  -21.3642  -57.0573 H         1 UNK         0.0600 
    239 H239       -5.2426  -21.8681  -57.6403 H         1 UNK         0.0600 
    240 H240       -4.0083  -20.7856  -54.6093 H         1 UNK         0.3000 
    241 H241       -2.0479  -21.1250  -53.8625 H         1 UNK         0.0600 
    242 H242       -0.8751  -22.9321  -56.9617 H         1 UNK         0.3800 
    243 H243       -2.4729  -22.5687  -56.3604 H         1 UNK         0.3800 
    244 H244       -0.5342  -18.8203  -55.0074 H         1 UNK         0.0800 
    245 H245       -2.1048  -18.3659  -54.4486 H         1 UNK         0.0800 
    246 H246        1.4064  -18.8574  -53.5340 H         1 UNK         0.0800 
    247 H247        1.0827  -20.5202  -53.0975 H         1 UNK         0.0800 
@<TRIPOS>BOND
     1    1    2 1    
     2    1  127 1    
     3    1  128 1    
     4    1  129 1    
     5    2    3 2    
     6    2    4 am   BACKBONE|DICT|INTERRES
     7    4    5 1    
     8    4  130 1    
     9    5    6 1    
    10    5   65 1    
    11    5  131 1    
    12    6    7 1    
    13    6  132 1    
    14    6  133 1    
    15    7    8 1    
    16    8    9 1    
    17    8  134 1    
    18    8  135 1    
    19    9   10 ar   
    20    9   14 ar   
    21   10   11 ar   
    22   10  136 1    
    23   11   12 ar   
    24   11  126 1    
    25   12   13 ar   
    26   12  137 1    
    27   13   14 ar   
    28   13   15 1    
    29   14  138 1    
    30   15   16 1    
    31   15  139 1    
    32   15  140 1    
    33   16   17 1    
    34   17   18 1    
    35   17  141 1    
    36   17  142 1    
    37   18   19 1    
    38   18   67 1    
    39   18  143 1    
    40   19   20 am   BACKBONE|DICT|INTERRES
    41   19  144 1    
    42   20   21 2    
    43   20   22 1    
    44   22   23 1    
    45   22   24 1    
    46   22  145 1    
    47   23  146 1    
    48   23  147 1    
    49   23  148 1    
    50   24   25 am   BACKBONE|DICT|INTERRES
    51   24  149 1    
    52   25   26 2    
    53   25   27 1    
    54   27   28 1    
    55   27   29 1    
    56   27  150 1    
    57   28  151 1    
    58   28  152 1    
    59   28  153 1    
    60   29   30 am   BACKBONE|DICT|INTERRES
    61   29  154 1    
    62   30   31 2    
    63   30   32 1    
    64   32   33 1    
    65   32   34 1    
    66   32  155 1    
    67   33  156 1    
    68   33  157 1    
    69   33  158 1    
    70   34   35 am   BACKBONE|DICT|INTERRES
    71   34  159 1    
    72   35   36 2    
    73   35   37 1    
    74   37   38 1    
    75   37   39 1    
    76   37  160 1    
    77   38  161 1    
    78   38  162 1    
    79   38  163 1    
    80   39   40 am   BACKBONE|DICT|INTERRES
    81   39  164 1    
    82   40   41 2    
    83   40   42 1    
    84   42   43 1    
    85   42   44 1    
    86   42  165 1    
    87   43  166 1    
    88   43  167 1    
    89   43  168 1    
    90   44   45 am   BACKBONE|DICT|INTERRES
    91   44  169 1    
    92   45   46 2    
    93   45   47 1    
    94   47   48 1    
    95   47   49 1    
    96   47  170 1    
    97   48  171 1    
    98   48  172 1    
    99   48  173 1    
   100   49   50 am   BACKBONE|DICT|INTERRES
   101   49  174 1    
   102   50   51 2    
   103   50   52 1    
   104   52   53 1    
   105   52   54 1    
   106   52  175 1    
   107   53  176 1    
   108   53  177 1    
   109   53  178 1    
   110   54   55 am   BACKBONE|DICT|INTERRES
   111   54  179 1    
   112   55   56 2    
   113   55   57 1    
   114   57   58 1    
   115   57   59 1    
   116   57  180 1    
   117   58  181 1    
   118   58  182 1    
   119   58  183 1    
   120   59   60 am   BACKBONE|DICT|INTERRES
   121   59  184 1    
   122   60   61 2    
   123   60   62 1    
   124   62   63 1    
   125   62   64 1    
   126   62  185 1    
   127   63  186 1    
   128   63  187 1    
   129   63  188 1    
   130   64   65 am   BACKBONE|DICT|INTERRES
   131   64  189 1    
   132   65   66 2    
   133   67   68 2    
   134   67   69 am   BACKBONE|DICT|INTERRES
   135   69   70 1    
   136   69  190 1    
   137   70   71 1    
   138   70   72 1    
   139   70  191 1    
   140   71  192 1    
   141   71  193 1    
   142   71  194 1    
   143   72   73 2    
   144   72   74 am   BACKBONE|DICT|INTERRES
   145   74   75 1    
   146   74  195 1    
   147   75   76 1    
   148   75   77 1    
   149   75  196 1    
   150   76  197 1    
   151   76  198 1    
   152   76  199 1    
   153   77   78 2    
   154   77   79 am   BACKBONE|DICT|INTERRES
   155   79   80 1    
   156   79  200 1    
   157   80   81 1    
   158   80   82 1    
   159   80  201 1    
   160   81  202 1    
   161   81  203 1    
   162   81  204 1    
   163   82   83 2    
   164   82   84 am   BACKBONE|DICT|INTERRES
   165   84   85 1    
   166   84  205 1    
   167   85   86 1    
   168   85   87 1    
   169   85  206 1    
   170   86  207 1    
   171   86  208 1    
   172   86  209 1    
   173   87   88 2    
   174   87   89 am   BACKBONE|DICT|INTERRES
   175   89   90 1    
   176   89  210 1    
   177   90   91 1    
   178   90   92 1    
   179   90  211 1    
   180   91  212 1    
   181   91  213 1    
   182   91  214 1    
   183   92   93 2    
   184   92   94 am   BACKBONE|DICT|INTERRES
   185   94   95 1    
   186   94  215 1    
   187   95   96 1    
   188   95   97 1    
   189   95  216 1    
   190   96  217 1    
   191   96  218 1    
   192   96  219 1    
   193   97   98 2    
   194   97   99 am   BACKBONE|DICT|INTERRES
   195   99  100 1    
   196   99  220 1    
   197  100  101 1    
   198  100  102 1    
   199  100  221 1    
   200  101  222 1    
   201  101  223 1    
   202  101  224 1    
   203  102  103 2    
   204  102  104 am   BACKBONE|DICT|INTERRES
   205  104  105 1    
   206  104  225 1    
   207  105  106 1    
   208  105  107 1    
   209  105  226 1    
   210  106  227 1    
   211  106  228 1    
   212  106  229 1    
   213  107  108 2    
   214  107  109 am   BACKBONE|DICT|INTERRES
   215  109  110 1    
   216  109  230 1    
   217  110  111 1    
   218  110  112 1    
   219  110  231 1    
   220  111  232 1    
   221  111  233 1    
   222  111  234 1    
   223  112  113 2    
   224  112  114 am   BACKBONE|DICT|INTERRES
   225  114  115 1    
   226  114  235 1    
   227  115  116 1    
   228  115  117 1    
   229  115  236 1    
   230  116  237 1    
   231  116  238 1    
   232  116  239 1    
   233  117  118 2    
   234  117  119 am   BACKBONE|DICT|INTERRES
   235  119  120 1    
   236  119  240 1    
   237  120  121 1    
   238  120  124 1    
   239  120  241 1    
   240  121  122 am   BACKBONE|DICT|INTERRES
   241  121  123 2    
   242  122  242 1    
   243  122  243 1    
   244  124  125 1    
   245  124  244 1    
   246  124  245 1    
   247  125  126 1    
   248  126  246 1    
   249  126  247 1    
@<TRIPOS>SUBSTRUCTURE
     1 UNK         1 GROUP             0       ****    0 ROOT    
