@<TRIPOS>MOLECULE
3R540
247   249    1
SMALL
USER_CHARGES


@<TRIPOS>ATOM
      1 CA         -3.2827  -11.7394  -47.4098 C.3       0 UNK        -0.1800 
      2 C          -1.8155  -11.7690  -47.8155 C.2       0 UNK         0.5000 
      3 O          -1.2006  -10.7135  -47.9716 O.2       0 UNK        -0.5000 
      4 N          -1.2599  -12.9731  -47.9940 N.am      1 UNK        -0.5000 
      5 CA          0.1518  -13.2165  -48.3108 C.3       1 UNK         0.1400 
      6 C6          0.3933  -14.6851  -48.7404 C.3       23 UNK        -0.0398 
      7 S7         -0.4303  -15.0584  -50.3255 S.3       23 UNK        -0.2404 
      8 C8          0.9878  -15.3658  -51.4282 C.3       23 UNK        -0.0205 
      9 C9          1.3437  -16.8443  -51.4820 C.ar      23 UNK        -0.0193 
     10 C10         0.8714  -17.6357  -52.5333 C.ar      23 UNK        -0.1150 
     11 C11         1.1666  -18.9998  -52.5873 C.ar      23 UNK        -0.0193 
     12 C12         1.9470  -19.5726  -51.5804 C.ar      23 UNK        -0.1150 
     13 C13         2.4193  -18.7959  -50.5182 C.ar      23 UNK        -0.0193 
     14 C14         2.1298  -17.4280  -50.4835 C.ar      23 UNK        -0.1150 
     15 C15         3.2115  -19.4492  -49.3933 C.3       23 UNK        -0.0205 
     16 S16         2.3433  -19.3744  -47.7903 S.3       23 UNK        -0.2404 
     17 C17         0.7330  -20.1519  -48.1613 C.3       23 UNK        -0.0398 
     18 CA          0.5200  -21.5047  -47.4426 C.3       11 UNK         0.1400 
     19 N           0.4598  -21.3825  -45.9812 N.am      11 UNK        -0.5000 
     20 C           0.3750  -22.4158  -45.1296 C.2       10 UNK         0.5000 
     21 O           0.4201  -23.5946  -45.4815 O.2       10 UNK        -0.5000 
     22 CA          0.1345  -22.0850  -43.6443 C.3       10 UNK         0.1400 
     23 CB          1.4475  -21.7407  -42.9255 C.3       10 UNK        -0.1800 
     24 N          -0.8397  -21.0062  -43.4648 N.am      10 UNK        -0.5000 
     25 C          -2.1390  -21.1109  -43.7808 C.2       9 UNK         0.5000 
     26 O          -2.6543  -22.1474  -44.1973 O.2       9 UNK        -0.5000 
     27 CA         -3.0024  -19.8419  -43.6564 C.3       9 UNK         0.1400 
     28 CB         -3.4971  -19.6575  -42.2145 C.3       9 UNK        -0.1800 
     29 N          -2.3046  -18.6348  -44.0982 N.am      9 UNK        -0.5000 
     30 C          -1.8787  -18.4178  -45.3505 C.2       8 UNK         0.5000 
     31 O          -2.0931  -19.1898  -46.2838 O.2       8 UNK        -0.5000 
     32 CA         -1.0127  -17.1643  -45.5851 C.3       8 UNK         0.1400 
     33 CB         -1.8887  -15.9170  -45.7726 C.3       8 UNK        -0.1800 
     34 N          -0.0485  -16.9380  -44.5050 N.am      8 UNK        -0.5000 
     35 C           0.9197  -17.8033  -44.1677 C.2       7 UNK         0.5000 
     36 O           1.1240  -18.8594  -44.7606 O.2       7 UNK        -0.5000 
     37 CA          1.7484  -17.4762  -42.9161 C.3       7 UNK         0.1400 
     38 CB          2.8837  -16.4945  -43.2416 C.3       7 UNK        -0.1800 
     39 N           0.9011  -16.9367  -41.8537 N.am      7 UNK        -0.5000 
     40 C           0.0659  -17.6796  -41.1131 C.2       6 UNK         0.5000 
     41 O          -0.0196  -18.9042  -41.2070 O.2       6 UNK        -0.5000 
     42 CA         -0.8522  -16.9270  -40.1295 C.3       6 UNK         0.1400 
     43 CB         -0.1411  -16.7124  -38.7852 C.3       6 UNK        -0.1800 
     44 N          -1.3043  -15.6338  -40.6471 N.am      6 UNK        -0.5000 
     45 C          -2.1223  -15.4818  -41.6984 C.2       5 UNK         0.5000 
     46 O          -2.6362  -16.4237  -42.2988 O.2       5 UNK        -0.5000 
     47 CA         -2.3668  -14.0433  -42.1991 C.3       5 UNK         0.1400 
     48 CB         -3.6223  -13.4525  -41.5414 C.3       5 UNK        -0.1800 
     49 N          -1.2364  -13.1318  -41.9898 N.am      5 UNK        -0.5000 
     50 C           0.0049  -13.3230  -42.4558 C.2       4 UNK         0.5000 
     51 O           0.3458  -14.3191  -43.0990 O.2       4 UNK        -0.5000 
     52 CA          1.0465  -12.2611  -42.0786 C.3       4 UNK         0.1400 
     53 CB          1.3160  -12.2798  -40.5596 C.3       4 UNK        -0.1800 
     54 N           2.2838  -12.5289  -42.8047 N.am      4 UNK        -0.5000 
     55 C           3.2988  -11.6729  -42.9618 C.2       3 UNK         0.5000 
     56 O           3.2829  -10.5150  -42.5435 O.2       3 UNK        -0.5000 
     57 CA          4.5511  -12.1819  -43.7027 C.3       3 UNK         0.1400 
     58 CB          5.6781  -12.4593  -42.6955 C.3       3 UNK        -0.1800 
     59 N           4.3196  -13.4048  -44.4789 N.am      3 UNK        -0.5000 
     60 C           3.7967  -13.5124  -45.7088 C.2       2 UNK         0.5000 
     61 O           3.6655  -14.6126  -46.2464 O.2       2 UNK        -0.5000 
     62 CA          3.3986  -12.2407  -46.4965 C.3       2 UNK         0.1400 
     63 CB          4.6070  -11.6863  -47.2699 C.3       2 UNK        -0.1800 
     64 N           2.3300  -12.5111  -47.4573 N.am      2 UNK        -0.5000 
     65 C           1.0736  -12.8387  -47.1316 C.2       1 UNK         0.5000 
     66 O           0.6519  -12.8674  -45.9732 O.2       1 UNK        -0.5000 
     67 C          -0.7353  -22.2040  -48.0018 C.2       11 UNK         0.5000 
     68 O          -0.6012  -23.1368  -48.7924 O.2       11 UNK        -0.5000 
     69 N          -1.9232  -21.7720  -47.5537 N.am      12 UNK        -0.5000 
     70 CA         -3.2121  -22.3570  -47.9264 C.3       12 UNK         0.1400 
     71 CB         -4.3507  -21.4966  -47.3588 C.3       12 UNK        -0.1800 
     72 C          -3.3613  -23.8230  -47.4781 C.2       12 UNK         0.5000 
     73 O          -3.8997  -24.6341  -48.2277 O.2       12 UNK        -0.5000 
     74 N          -2.8592  -24.1528  -46.2803 N.am      13 UNK        -0.5000 
     75 CA         -2.8146  -25.5192  -45.7595 C.3       13 UNK         0.1400 
     76 CB         -2.4119  -25.4987  -44.2772 C.3       13 UNK        -0.1800 
     77 C          -1.8755  -26.4287  -46.5737 C.2       13 UNK         0.5000 
     78 O          -2.2427  -27.5663  -46.8692 O.2       13 UNK        -0.5000 
     79 N          -0.6967  -25.9064  -46.9404 N.am      14 UNK        -0.5000 
     80 CA          0.3051  -26.6011  -47.7492 C.3       14 UNK         0.1400 
     81 CB          1.6290  -25.8224  -47.7042 C.3       14 UNK        -0.1800 
     82 C          -0.1479  -26.8270  -49.2037 C.2       14 UNK         0.5000 
     83 O           0.0314  -27.9255  -49.7312 O.2       14 UNK        -0.5000 
     84 N          -0.7315  -25.7920  -49.8224 N.am      15 UNK        -0.5000 
     85 CA         -1.2267  -25.8207  -51.2006 C.3       15 UNK         0.1400 
     86 CB         -1.3175  -24.3802  -51.7277 C.3       15 UNK        -0.1800 
     87 C          -2.5837  -26.5349  -51.3567 C.2       15 UNK         0.5000 
     88 O          -2.9680  -26.8455  -52.4848 O.2       15 UNK        -0.5000 
     89 N          -3.2994  -26.7482  -50.2434 N.am      16 UNK        -0.5000 
     90 CA         -4.6559  -27.2936  -50.0915 C.3       16 UNK         0.1400 
     91 CB         -4.7864  -28.7037  -50.6979 C.3       16 UNK        -0.1800 
     92 C          -5.7601  -26.3452  -50.6013 C.2       16 UNK         0.5000 
     93 O          -6.7593  -26.1479  -49.9078 O.2       16 UNK        -0.5000 
     94 N          -5.5522  -25.7512  -51.7811 N.am      17 UNK        -0.5000 
     95 CA         -6.2866  -24.5915  -52.2783 C.3       17 UNK         0.1400 
     96 CB         -6.0610  -24.4839  -53.7929 C.3       17 UNK        -0.1800 
     97 C          -5.8080  -23.3105  -51.5690 C.2       17 UNK         0.5000 
     98 O          -4.6731  -23.2625  -51.0909 O.2       17 UNK        -0.5000 
     99 N          -6.6747  -22.2900  -51.5311 N.am      18 UNK        -0.5000 
    100 CA        -6.4178  -20.9930  -50.8997 C.3       18 UNK         0.1400 
    101 CB        -7.6669  -20.1111  -51.0463 C.3       18 UNK        -0.1800 
    102 C         -5.1896  -20.2699  -51.4832 C.2       18 UNK         0.5000 
    103 O         -4.9651  -20.3289  -52.6952 O.2       18 UNK        -0.5000 
    104 N         -4.4519  -19.5600  -50.6170 N.am      19 UNK        -0.5000 
    105 CA        -3.1957  -18.8666  -50.9323 C.3       19 UNK         0.1400 
    106 CB        -2.5771  -18.3263  -49.6347 C.3       19 UNK        -0.1800 
    107 C         -3.3183  -17.7529  -51.9931 C.2       19 UNK         0.5000 
    108 O         -2.3172  -17.3640  -52.5903 O.2       19 UNK        -0.5000 
    109 N         -4.5478  -17.2846  -52.2423 N.am      20 UNK        -0.5000 
    110 CA        -4.8901  -16.3611  -53.3224 C.3       20 UNK         0.1400 
    111 CB        -6.3359  -15.8828  -53.1155 C.3       20 UNK        -0.1800 
    112 C         -4.7182  -16.9592  -54.7366 C.2       20 UNK         0.5000 
    113 O         -4.6487  -16.1895  -55.6962 O.2       20 UNK        -0.5000 
    114 N         -4.6679  -18.2950  -54.8526 N.am      21 UNK        -0.5000 
    115 CA        -4.5379  -19.0103  -56.1217 C.3       21 UNK         0.1400 
    116 CB        -5.9086  -19.5792  -56.5252 C.3       21 UNK        -0.1800 
    117 C         -3.4822  -20.1259  -56.0651 C.2       21 UNK         0.5000 
    118 O         -2.6990  -20.2525  -57.0070 O.2       21 UNK        -0.5000 
    119 N         -3.4928  -20.9288  -54.9915 N.am      22 UNK        -0.5000 
    120 CA        -2.6672  -22.1388  -54.7991 C.3       22 UNK         0.1400 
    121 C         -2.9407  -23.2894  -55.8202 C.2       22 UNK         0.5000 
    122 N         -4.0599  -23.2911  -56.5348 N.am      22 UNK        -0.7600 
    123 O         -2.1465  -24.2170  -55.9484 O.2       22 UNK        -0.5000 
    124 C124       -1.1497  -21.8346  -54.6437 C.3       23 UNK        -0.0398 
    125 S125       -0.7983  -20.8385  -53.1613 S.3       23 UNK        -0.2404 
    126 C126        0.6287  -19.8621  -53.7180 C.3       23 UNK        -0.0205 
    127 H127       -3.6968  -12.7433  -47.3115 H         1 UNK         0.0600 
    128 H128       -3.8680  -11.2013  -48.1554 H         1 UNK         0.0600 
    129 H129       -3.3962  -11.2306  -46.4526 H         1 UNK         0.0600 
    130 H130       -1.8218  -13.7991  -47.8570 H         1 UNK         0.3000 
    131 H131        0.4156  -12.5668  -49.1486 H         1 UNK         0.0600 
    132 H132        1.4603  -14.8919  -48.8320 H         1 UNK         0.0800 
    133 H133        0.0237  -15.3776  -47.9839 H         1 UNK         0.0800 
    134 H134        1.8530  -14.7760  -51.1228 H         1 UNK         0.0800 
    135 H135        0.7257  -15.0134  -52.4269 H         1 UNK         0.0800 
    136 H136        0.2538  -17.1922  -53.3017 H         1 UNK         0.1150 
    137 H137        2.1607  -20.6319  -51.6126 H         1 UNK         0.1150 
    138 H138        2.4930  -16.8289  -49.6611 H         1 UNK         0.1150 
    139 H139        3.4302  -20.4925  -49.6260 H         1 UNK         0.0800 
    140 H140        4.1750  -18.9472  -49.2974 H         1 UNK         0.0800 
    141 H141        0.6361  -20.2869  -49.2385 H         1 UNK         0.0800 
    142 H142       -0.0469  -19.4424  -47.8862 H         1 UNK         0.0800 
    143 H143        1.3726  -22.1457  -47.6766 H         1 UNK         0.0600 
    144 H144        0.4915  -20.4393  -45.6016 H         1 UNK         0.3000 
    145 H145       -0.2752  -22.9796  -43.1706 H         1 UNK         0.0600 
    146 H146        1.2752  -21.5247  -41.8709 H         1 UNK         0.0600 
    147 H147        2.1463  -22.5764  -42.9773 H         1 UNK         0.0600 
    148 H148        1.9425  -20.8770  -43.3671 H         1 UNK         0.0600 
    149 H149       -0.4889  -20.1247  -43.1131 H         1 UNK         0.3000 
    150 H150       -3.8758  -19.9722  -44.2984 H         1 UNK         0.0600 
    151 H151       -4.0398  -20.5395  -41.8721 H         1 UNK         0.0600 
    152 H152       -4.1754  -18.8077  -42.1366 H         1 UNK         0.0600 
    153 H153       -2.6714  -19.4906  -41.5228 H         1 UNK         0.0600 
    154 H154       -2.1591  -17.9113  -43.3998 H         1 UNK         0.3000 
    155 H155       -0.4411  -17.3213  -46.5021 H         1 UNK         0.0600 
    156 H156       -2.5864  -15.7865  -44.9462 H         1 UNK         0.0600 
    157 H157       -2.4787  -15.9947  -46.6865 H         1 UNK         0.0600 
    158 H158       -1.2840  -15.0129  -45.8439 H         1 UNK         0.0600 
    159 H159       -0.1228  -16.0693  -43.9858 H         1 UNK         0.3000 
    160 H160        2.2021  -18.4034  -42.5590 H         1 UNK         0.0600 
    161 H161        2.5081  -15.5745  -43.6862 H         1 UNK         0.0600 
    162 H162        3.5796  -16.9350  -43.9568 H         1 UNK         0.0600 
    163 H163        3.4525  -16.2335  -42.3491 H         1 UNK         0.0600 
    164 H164        0.8474  -15.9288  -41.7912 H         1 UNK         0.3000 
    165 H165       -1.7325  -17.5494  -39.9552 H         1 UNK         0.0600 
    166 H166       -0.8070  -16.2506  -38.0561 H         1 UNK         0.0600 
    167 H167        0.1916  -17.6621  -38.3642 H         1 UNK         0.0600 
    168 H168        0.7372  -16.0741  -38.8906 H         1 UNK         0.0600 
    169 H169       -0.9294  -14.8073  -40.2062 H         1 UNK         0.3000 
    170 H170       -2.5419  -14.0979  -43.2748 H         1 UNK         0.0600 
    171 H171       -4.4875  -14.0974  -41.7017 H         1 UNK         0.0600 
    172 H172       -3.4952  -13.3350  -40.4645 H         1 UNK         0.0600 
    173 H173       -3.8656  -12.4760  -41.9606 H         1 UNK         0.0600 
    174 H174       -1.4323  -12.2964  -41.4573 H         1 UNK         0.3000 
    175 H175        0.6596  -11.2849  -42.3776 H         1 UNK         0.0600 
    176 H176        1.7045  -13.2458  -40.2345 H         1 UNK         0.0600 
    177 H177        2.0401  -11.5176  -40.2724 H         1 UNK         0.0600 
    178 H178        0.4077  -12.0816  -39.9898 H         1 UNK         0.0600 
    179 H179        2.3158  -13.4405  -43.2435 H         1 UNK         0.3000 
    180 H180        4.8925  -11.3824  -44.3607 H         1 UNK         0.0600 
    181 H181        5.4066  -13.2495  -41.9941 H         1 UNK         0.0600 
    182 H182        5.9105  -11.5679  -42.1109 H         1 UNK         0.0600 
    183 H183        6.5952  -12.7602  -43.2023 H         1 UNK         0.0600 
    184 H184        4.5955  -14.2578  -44.0166 H         1 UNK         0.3000 
    185 H185        3.0306  -11.4757  -45.8123 H         1 UNK         0.0600 
    186 H186        4.3512  -10.7647  -47.7931 H         1 UNK         0.0600 
    187 H187        5.4403  -11.4582  -46.6052 H         1 UNK         0.0600 
    188 H188        4.9713  -12.4011  -48.0092 H         1 UNK         0.0600 
    189 H189        2.6059  -12.5311  -48.4279 H         1 UNK         0.3000 
    190 H190       -1.9510  -20.9697  -46.9291 H         1 UNK         0.3000 
    191 H191       -3.2776  -22.3341  -49.0158 H         1 UNK         0.0600 
    192 H192       -4.3329  -21.4764  -46.2692 H         1 UNK         0.0600 
    193 H193       -5.3221  -21.8882  -47.6622 H         1 UNK         0.0600 
    194 H194       -4.2845  -20.4676  -47.7104 H         1 UNK         0.0600 
    195 H195       -2.4996  -23.4187  -45.6777 H         1 UNK         0.3000 
    196 H196       -3.8217  -25.9359  -45.8279 H         1 UNK         0.0600 
    197 H197       -2.3981  -26.5074  -43.8628 H         1 UNK         0.0600 
    198 H198       -3.1165  -24.9136  -43.6860 H         1 UNK         0.0600 
    199 H199       -1.4197  -25.0712  -44.1334 H         1 UNK         0.0600 
    200 H200       -0.4535  -24.9744  -46.6178 H         1 UNK         0.3000 
    201 H201        0.4771  -27.5814  -47.2999 H         1 UNK         0.0600 
    202 H202        1.9990  -25.7348  -46.6824 H         1 UNK         0.0600 
    203 H203        1.5185  -24.8145  -48.1054 H         1 UNK         0.0600 
    204 H204        2.4000  -26.3268  -48.2879 H         1 UNK         0.0600 
    205 H205       -0.7973  -24.8990  -49.3370 H         1 UNK         0.3000 
    206 H206       -0.5049  -26.3587  -51.8186 H         1 UNK         0.0600 
    207 H207       -1.6576  -24.3635  -52.7635 H         1 UNK         0.0600 
    208 H208       -2.0165  -23.7817  -51.1424 H         1 UNK         0.0600 
    209 H209       -0.3474  -23.8839  -51.6960 H         1 UNK         0.0600 
    210 H210       -2.9205  -26.3578  -49.3899 H         1 UNK         0.3000 
    211 H211       -4.8028  -27.3894  -49.0144 H         1 UNK         0.0600 
    212 H212       -4.7007  -28.6941  -51.7846 H         1 UNK         0.0600 
    213 H213       -5.7563  -29.1390  -50.4548 H         1 UNK         0.0600 
    214 H214       -4.0211  -29.3733  -50.3054 H         1 UNK         0.0600 
    215 H215       -4.6840  -25.9751  -52.2566 H         1 UNK         0.3000 
    216 H216       -7.3525  -24.7289  -52.0850 H         1 UNK         0.0600 
    217 H217       -6.5625  -23.6091  -54.2086 H         1 UNK         0.0600 
    218 H218       -6.4486  -25.3602  -54.3126 H         1 UNK         0.0600 
    219 H219       -5.0003  -24.3996  -54.0275 H         1 UNK         0.0600 
    220 H220       -7.5725  -22.3962  -51.9797 H         1 UNK         0.3000 
    221 H221       -6.2427  -21.1763  -49.8383 H         1 UNK         0.0600 
    222 H222       -7.9002  -19.9165  -52.0942 H         1 UNK         0.0600 
    223 H223       -8.5384  -20.5805  -50.5895 H         1 UNK         0.0600 
    224 H224       -7.5269  -19.1463  -50.5570 H         1 UNK         0.0600 
    225 H225       -4.7361  -19.5302  -49.6495 H         1 UNK         0.3000 
    226 H226       -2.5143  -19.6153  -51.3329 H         1 UNK         0.0600 
    227 H227       -2.4014  -19.1316  -48.9228 H         1 UNK         0.0600 
    228 H228       -1.6120  -17.8563  -49.8291 H         1 UNK         0.0600 
    229 H229       -3.2171  -17.5838  -49.1571 H         1 UNK         0.0600 
    230 H230       -5.3154  -17.6595  -51.7062 H         1 UNK         0.3000 
    231 H231       -4.2276  -15.4960  -53.2503 H         1 UNK         0.0600 
    232 H232       -6.4552  -15.3906  -52.1501 H         1 UNK         0.0600 
    233 H233       -7.0435  -16.7118  -53.1612 H         1 UNK         0.0600 
    234 H234       -6.6237  -15.1629  -53.8828 H         1 UNK         0.0600 
    235 H235       -4.7142  -18.8629  -54.0130 H         1 UNK         0.3000 
    236 H236       -4.2157  -18.3241  -56.9078 H         1 UNK         0.0600 
    237 H237       -5.8429  -20.1356  -57.4611 H         1 UNK         0.0600 
    238 H238       -6.3043  -20.2540  -55.7650 H         1 UNK         0.0600 
    239 H239       -6.6358  -18.7808  -56.6731 H         1 UNK         0.0600 
    240 H240       -4.1477  -20.7410  -54.2354 H         1 UNK         0.3000 
    241 H241       -3.0057  -22.5536  -53.8487 H         1 UNK         0.0600 
    242 H242       -4.2294  -24.0430  -57.1839 H         1 UNK         0.3800 
    243 H243       -4.7312  -22.5473  -56.4420 H         1 UNK         0.3800 
    244 H244       -0.7645  -21.3340  -55.5325 H         1 UNK         0.0800 
    245 H245       -0.5730  -22.7550  -54.5408 H         1 UNK         0.0800 
    246 H246        0.3335  -19.2424  -54.5662 H         1 UNK         0.0800 
    247 H247        1.4132  -20.5311  -54.0748 H         1 UNK         0.0800 
@<TRIPOS>BOND
     1    1    2 1    
     2    1  127 1    
     3    1  128 1    
     4    1  129 1    
     5    2    3 2    
     6    2    4 am   BACKBONE|DICT|INTERRES
     7    4    5 1    
     8    4  130 1    
     9    5    6 1    
    10    5   65 1    
    11    5  131 1    
    12    6    7 1    
    13    6  132 1    
    14    6  133 1    
    15    7    8 1    
    16    8    9 1    
    17    8  134 1    
    18    8  135 1    
    19    9   10 ar   
    20    9   14 ar   
    21   10   11 ar   
    22   10  136 1    
    23   11   12 ar   
    24   11  126 1    
    25   12   13 ar   
    26   12  137 1    
    27   13   14 ar   
    28   13   15 1    
    29   14  138 1    
    30   15   16 1    
    31   15  139 1    
    32   15  140 1    
    33   16   17 1    
    34   17   18 1    
    35   17  141 1    
    36   17  142 1    
    37   18   19 1    
    38   18   67 1    
    39   18  143 1    
    40   19   20 am   BACKBONE|DICT|INTERRES
    41   19  144 1    
    42   20   21 2    
    43   20   22 1    
    44   22   23 1    
    45   22   24 1    
    46   22  145 1    
    47   23  146 1    
    48   23  147 1    
    49   23  148 1    
    50   24   25 am   BACKBONE|DICT|INTERRES
    51   24  149 1    
    52   25   26 2    
    53   25   27 1    
    54   27   28 1    
    55   27   29 1    
    56   27  150 1    
    57   28  151 1    
    58   28  152 1    
    59   28  153 1    
    60   29   30 am   BACKBONE|DICT|INTERRES
    61   29  154 1    
    62   30   31 2    
    63   30   32 1    
    64   32   33 1    
    65   32   34 1    
    66   32  155 1    
    67   33  156 1    
    68   33  157 1    
    69   33  158 1    
    70   34   35 am   BACKBONE|DICT|INTERRES
    71   34  159 1    
    72   35   36 2    
    73   35   37 1    
    74   37   38 1    
    75   37   39 1    
    76   37  160 1    
    77   38  161 1    
    78   38  162 1    
    79   38  163 1    
    80   39   40 am   BACKBONE|DICT|INTERRES
    81   39  164 1    
    82   40   41 2    
    83   40   42 1    
    84   42   43 1    
    85   42   44 1    
    86   42  165 1    
    87   43  166 1    
    88   43  167 1    
    89   43  168 1    
    90   44   45 am   BACKBONE|DICT|INTERRES
    91   44  169 1    
    92   45   46 2    
    93   45   47 1    
    94   47   48 1    
    95   47   49 1    
    96   47  170 1    
    97   48  171 1    
    98   48  172 1    
    99   48  173 1    
   100   49   50 am   BACKBONE|DICT|INTERRES
   101   49  174 1    
   102   50   51 2    
   103   50   52 1    
   104   52   53 1    
   105   52   54 1    
   106   52  175 1    
   107   53  176 1    
   108   53  177 1    
   109   53  178 1    
   110   54   55 am   BACKBONE|DICT|INTERRES
   111   54  179 1    
   112   55   56 2    
   113   55   57 1    
   114   57   58 1    
   115   57   59 1    
   116   57  180 1    
   117   58  181 1    
   118   58  182 1    
   119   58  183 1    
   120   59   60 am   BACKBONE|DICT|INTERRES
   121   59  184 1    
   122   60   61 2    
   123   60   62 1    
   124   62   63 1    
   125   62   64 1    
   126   62  185 1    
   127   63  186 1    
   128   63  187 1    
   129   63  188 1    
   130   64   65 am   BACKBONE|DICT|INTERRES
   131   64  189 1    
   132   65   66 2    
   133   67   68 2    
   134   67   69 am   BACKBONE|DICT|INTERRES
   135   69   70 1    
   136   69  190 1    
   137   70   71 1    
   138   70   72 1    
   139   70  191 1    
   140   71  192 1    
   141   71  193 1    
   142   71  194 1    
   143   72   73 2    
   144   72   74 am   BACKBONE|DICT|INTERRES
   145   74   75 1    
   146   74  195 1    
   147   75   76 1    
   148   75   77 1    
   149   75  196 1    
   150   76  197 1    
   151   76  198 1    
   152   76  199 1    
   153   77   78 2    
   154   77   79 am   BACKBONE|DICT|INTERRES
   155   79   80 1    
   156   79  200 1    
   157   80   81 1    
   158   80   82 1    
   159   80  201 1    
   160   81  202 1    
   161   81  203 1    
   162   81  204 1    
   163   82   83 2    
   164   82   84 am   BACKBONE|DICT|INTERRES
   165   84   85 1    
   166   84  205 1    
   167   85   86 1    
   168   85   87 1    
   169   85  206 1    
   170   86  207 1    
   171   86  208 1    
   172   86  209 1    
   173   87   88 2    
   174   87   89 am   BACKBONE|DICT|INTERRES
   175   89   90 1    
   176   89  210 1    
   177   90   91 1    
   178   90   92 1    
   179   90  211 1    
   180   91  212 1    
   181   91  213 1    
   182   91  214 1    
   183   92   93 2    
   184   92   94 am   BACKBONE|DICT|INTERRES
   185   94   95 1    
   186   94  215 1    
   187   95   96 1    
   188   95   97 1    
   189   95  216 1    
   190   96  217 1    
   191   96  218 1    
   192   96  219 1    
   193   97   98 2    
   194   97   99 am   BACKBONE|DICT|INTERRES
   195   99  100 1    
   196   99  220 1    
   197  100  101 1    
   198  100  102 1    
   199  100  221 1    
   200  101  222 1    
   201  101  223 1    
   202  101  224 1    
   203  102  103 2    
   204  102  104 am   BACKBONE|DICT|INTERRES
   205  104  105 1    
   206  104  225 1    
   207  105  106 1    
   208  105  107 1    
   209  105  226 1    
   210  106  227 1    
   211  106  228 1    
   212  106  229 1    
   213  107  108 2    
   214  107  109 am   BACKBONE|DICT|INTERRES
   215  109  110 1    
   216  109  230 1    
   217  110  111 1    
   218  110  112 1    
   219  110  231 1    
   220  111  232 1    
   221  111  233 1    
   222  111  234 1    
   223  112  113 2    
   224  112  114 am   BACKBONE|DICT|INTERRES
   225  114  115 1    
   226  114  235 1    
   227  115  116 1    
   228  115  117 1    
   229  115  236 1    
   230  116  237 1    
   231  116  238 1    
   232  116  239 1    
   233  117  118 2    
   234  117  119 am   BACKBONE|DICT|INTERRES
   235  119  120 1    
   236  119  240 1    
   237  120  121 1    
   238  120  124 1    
   239  120  241 1    
   240  121  122 am   BACKBONE|DICT|INTERRES
   241  121  123 2    
   242  122  242 1    
   243  122  243 1    
   244  124  125 1    
   245  124  244 1    
   246  124  245 1    
   247  125  126 1    
   248  126  246 1    
   249  126  247 1    
@<TRIPOS>SUBSTRUCTURE
     1 UNK         1 GROUP             0       ****    0 ROOT    
