@<TRIPOS>MOLECULE
3R540
247   249    1
SMALL
USER_CHARGES


@<TRIPOS>ATOM
      1 CA          0.1419  -13.5753  -50.6892 C.3       0 UNK        -0.1800 
      2 C           1.3484  -13.4059  -49.7797 C.2       0 UNK         0.5000 
      3 O           1.2455  -13.6592  -48.5813 O.2       0 UNK        -0.5000 
      4 N           2.4880  -12.9786  -50.3376 N.am      1 UNK        -0.5000 
      5 CA          3.7864  -12.7509  -49.6806 C.3       1 UNK         0.1400 
      6 C6          4.4348  -14.0133  -49.0386 C.3       23 UNK        -0.0398 
      7 S7          4.3564  -15.5239  -50.0637 S.3       23 UNK        -0.2404 
      8 C8          3.2822  -16.5574  -49.0117 C.3       23 UNK        -0.0205 
      9 C9          2.6149  -17.6841  -49.7817 C.ar      23 UNK        -0.0193 
     10 C10         1.6911  -17.3892  -50.7865 C.ar      23 UNK        -0.1150 
     11 C11         1.0251  -18.4132  -51.4650 C.ar      23 UNK        -0.0193 
     12 C12         1.2843  -19.7427  -51.1187 C.ar      23 UNK        -0.1150 
     13 C13         2.2095  -20.0577  -50.1183 C.ar      23 UNK        -0.0193 
     14 C14         2.8819  -19.0179  -49.4627 C.ar      23 UNK        -0.1150 
     15 C15         2.4716  -21.5287  -49.7906 C.3       23 UNK        -0.0205 
     16 S16         2.9355  -21.8700  -48.0564 S.3       23 UNK        -0.2404 
     17 C17         1.4812  -21.2453  -47.1516 C.3       23 UNK        -0.0398 
     18 CA          0.5480  -22.3714  -46.6496 C.3       11 UNK         0.1400 
     19 N          -0.2317  -21.9349  -45.4904 N.am      11 UNK        -0.5000 
     20 C          -1.0309  -22.7166  -44.7526 C.2       10 UNK         0.5000 
     21 O          -1.1484  -23.9292  -44.9185 O.2       10 UNK        -0.5000 
     22 CA         -1.8853  -22.0105  -43.6868 C.3       10 UNK         0.1400 
     23 CB         -1.0983  -21.8314  -42.3806 C.3       10 UNK        -0.1800 
     24 N          -2.3682  -20.7129  -44.1615 N.am      10 UNK        -0.5000 
     25 C          -3.3033  -20.5637  -45.1110 C.2       9 UNK         0.5000 
     26 O          -3.8967  -21.5058  -45.6359 O.2       9 UNK        -0.5000 
     27 CA         -3.5917  -19.1268  -45.5809 C.3       9 UNK         0.1400 
     28 CB         -4.5943  -18.4377  -44.6441 C.3       9 UNK        -0.1800 
     29 N          -2.3792  -18.3136  -45.6776 N.am      9 UNK        -0.5000 
     30 C          -1.4134  -18.5034  -46.5874 C.2       8 UNK         0.5000 
     31 O          -1.4484  -19.3806  -47.4491 O.2       8 UNK        -0.5000 
     32 CA         -0.1728  -17.5973  -46.4807 C.3       8 UNK         0.1400 
     33 CB         -0.3758  -16.3034  -47.2782 C.3       8 UNK        -0.1800 
     34 N           0.1939  -17.2524  -45.1043 N.am      8 UNK        -0.5000 
     35 C           0.5177  -18.1328  -44.1452 C.2       7 UNK         0.5000 
     36 O           0.4498  -19.3541  -44.2945 O.2       7 UNK        -0.5000 
     37 CA          0.9995  -17.5329  -42.8073 C.3       7 UNK         0.1400 
     38 CB          1.6264  -18.5752  -41.8591 C.3       7 UNK        -0.1800 
     39 N           1.9013  -16.3969  -43.0159 N.am      7 UNK        -0.5000 
     40 C           3.0842  -16.3973  -43.6504 C.2       6 UNK         0.5000 
     41 O           3.6563  -17.4144  -44.0428 O.2       6 UNK        -0.5000 
     42 CA          3.7244  -15.0247  -43.9320 C.3       6 UNK         0.1400 
     43 CB          3.6781  -14.7261  -45.4373 C.3       6 UNK        -0.1800 
     44 N           3.0528  -13.9364  -43.2189 N.am      6 UNK        -0.5000 
     45 C           3.4051  -13.4886  -42.0060 C.2       5 UNK         0.5000 
     46 O           4.3926  -13.8889  -41.3890 O.2       5 UNK        -0.5000 
     47 CA          2.4865  -12.4337  -41.3587 C.3       5 UNK         0.1400 
     48 CB          3.0307  -11.0174  -41.5950 C.3       5 UNK        -0.1800 
     49 N           1.1034  -12.5136  -41.8375 N.am      5 UNK        -0.5000 
     50 C           0.2477  -13.4879  -41.4931 C.2       4 UNK         0.5000 
     51 O           0.5355  -14.4039  -40.7232 O.2       4 UNK        -0.5000 
     52 CA         -1.1479  -13.4721  -42.1446 C.3       4 UNK         0.1400 
     53 CB         -2.1525  -12.7358  -41.2462 C.3       4 UNK        -0.1800 
     54 N          -1.1716  -12.8735  -43.4797 N.am      4 UNK        -0.5000 
     55 C          -0.5181  -13.3413  -44.5508 C.2       3 UNK         0.5000 
     56 O           0.2004  -14.3437  -44.5245 O.2       3 UNK        -0.5000 
     57 CA         -0.6721  -12.5585  -45.8698 C.3       3 UNK         0.1400 
     58 CB         -1.7111  -11.4156  -45.8198 C.3       3 UNK        -0.1800 
     59 N           0.6143  -12.0584  -46.3570 N.am      3 UNK        -0.5000 
     60 C           1.4650  -11.2306  -45.7279 C.2       2 UNK         0.5000 
     61 O           1.2598  -10.7836  -44.5982 O.2       2 UNK        -0.5000 
     62 CA          2.7613  -10.8473  -46.4756 C.3       2 UNK         0.1400 
     63 CB          3.9684  -10.7013  -45.5291 C.3       2 UNK        -0.1800 
     64 N           3.0599  -11.8092  -47.5358 N.am      2 UNK        -0.5000 
     65 C           3.7210  -11.5757  -48.6757 C.2       1 UNK         0.5000 
     66 O           4.2396  -10.4954  -48.9607 O.2       1 UNK        -0.5000 
     67 C          -0.3593  -22.9164  -47.7748 C.2       11 UNK         0.5000 
     68 O          -0.0948  -23.9977  -48.2993 O.2       11 UNK        -0.5000 
     69 N          -1.4413  -22.1878  -48.0851 N.am      12 UNK        -0.5000 
     70 CA         -2.4788  -22.5973  -49.0317 C.3       12 UNK         0.1400 
     71 CB         -3.4555  -21.4350  -49.2530 C.3       12 UNK        -0.1800 
     72 C          -3.2241  -23.8674  -48.5829 C.2       12 UNK         0.5000 
     73 O          -3.4314  -24.7676  -49.3954 O.2       12 UNK        -0.5000 
     74 N          -3.5750  -23.9495  -47.2907 N.am      13 UNK        -0.5000 
     75 CA         -4.1977  -25.1263  -46.6784 C.3       13 UNK         0.1400 
     76 CB         -4.6150  -24.8087  -45.2355 C.3       13 UNK        -0.1800 
     77 C          -3.2957  -26.3746  -46.7317 C.2       13 UNK         0.5000 
     78 O          -3.7747  -27.4512  -47.0894 O.2       13 UNK        -0.5000 
     79 N          -1.9985  -26.1999  -46.4395 N.am      14 UNK        -0.5000 
     80 CA         -0.9633  -27.2322  -46.5546 C.3       14 UNK         0.1400 
     81 CB          0.3472  -26.7144  -45.9432 C.3       14 UNK        -0.1800 
     82 C          -0.7382  -27.7096  -48.0036 C.2       14 UNK         0.5000 
     83 O          -0.4025  -28.8752  -48.2134 O.2       14 UNK        -0.5000 
     84 N          -0.9827  -26.8217  -48.9759 N.am      15 UNK        -0.5000 
     85 CA         -0.9920  -27.1001  -50.4131 C.3       15 UNK         0.1400 
     86 CB         -0.6169  -25.8136  -51.1706 C.3       15 UNK        -0.1800 
     87 C          -2.3337  -27.6890  -50.9104 C.2       15 UNK         0.5000 
     88 O          -2.5803  -27.6841  -52.1163 O.2       15 UNK        -0.5000 
     89 N          -3.1765  -28.1839  -49.9905 N.am      16 UNK        -0.5000 
     90 CA         -4.4794  -28.8193  -50.2152 C.3       16 UNK         0.1400 
     91 CB         -4.3381  -30.1081  -51.0531 C.3       16 UNK        -0.1800 
     92 C          -5.5381  -27.8426  -50.7647 C.2       16 UNK         0.5000 
     93 O          -6.3402  -28.2140  -51.6232 O.2       16 UNK        -0.5000 
     94 N          -5.5161  -26.6089  -50.2414 N.am      17 UNK        -0.5000 
     95 CA         -6.3956  -25.4791  -50.5608 C.3       17 UNK         0.1400 
     96 CB         -7.8768  -25.8132  -50.2845 C.3       17 UNK        -0.1800 
     97 C          -6.1578  -24.8862  -51.9648 C.2       17 UNK         0.5000 
     98 O          -7.0310  -24.1932  -52.4909 O.2       17 UNK        -0.5000 
     99 N          -4.9724  -25.1340  -52.5383 N.am      18 UNK        -0.5000 
    100 CA        -4.4877  -24.4693  -53.7457 C.3       18 UNK         0.1400 
    101 CB        -3.2758  -25.2367  -54.2930 C.3       18 UNK        -0.1800 
    102 C         -4.1096  -23.0098  -53.4366 C.2       18 UNK         0.5000 
    103 O         -3.6146  -22.7336  -52.3430 O.2       18 UNK        -0.5000 
    104 N         -4.3329  -22.1195  -54.4134 N.am      19 UNK        -0.5000 
    105 CA        -4.1497  -20.6664  -54.3349 C.3       19 UNK         0.1400 
    106 CB        -2.6710  -20.2915  -54.1097 C.3       19 UNK        -0.1800 
    107 C         -5.0928  -20.0321  -53.2939 C.2       19 UNK         0.5000 
    108 O         -4.6536  -19.5657  -52.2408 O.2       19 UNK        -0.5000 
    109 N         -6.3916  -20.0138  -53.6218 N.am      20 UNK        -0.5000 
    110 CA        -7.4670  -19.4516  -52.7948 C.3       20 UNK         0.1400 
    111 CB        -8.8164  -19.7426  -53.4690 C.3       20 UNK        -0.1800 
    112 C         -7.3252  -17.9425  -52.4956 C.2       20 UNK         0.5000 
    113 O         -7.8890  -17.4683  -51.5092 O.2       20 UNK        -0.5000 
    114 N         -6.5626  -17.2223  -53.3316 N.am      21 UNK        -0.5000 
    115 CA        -6.1648  -15.8303  -53.1119 C.3       21 UNK         0.1400 
    116 CB        -5.5717  -15.2678  -54.4128 C.3       21 UNK        -0.1800 
    117 C         -5.1639  -15.6688  -51.9486 C.2       21 UNK         0.5000 
    118 O         -5.1824  -14.6363  -51.2773 O.2       21 UNK        -0.5000 
    119 N         -4.3227  -16.6871  -51.7286 N.am      22 UNK        -0.5000 
    120 CA        -3.4205  -16.7959  -50.5736 C.3       22 UNK         0.1400 
    121 C         -4.1568  -17.4007  -49.3508 C.2       22 UNK         0.5000 
    122 N         -4.9331  -18.4624  -49.5349 N.am      22 UNK        -0.7600 
    123 O         -4.0473  -16.8872  -48.2421 O.2       22 UNK        -0.5000 
    124 C124       -2.1439  -17.6090  -50.9075 C.3       23 UNK        -0.0398 
    125 S125       -1.1525  -16.7999  -52.2055 S.3       23 UNK        -0.2404 
    126 C126        0.0625  -18.0981  -52.6039 C.3       23 UNK        -0.0205 
    127 H127        0.4340  -13.6571  -51.7362 H         1 UNK         0.0600 
    128 H128       -0.5322  -12.7260  -50.5811 H         1 UNK         0.0600 
    129 H129       -0.4035  -14.4790  -50.4178 H         1 UNK         0.0600 
    130 H130        2.4842  -12.7728  -51.3267 H         1 UNK         0.3000 
    131 H131        4.4533  -12.4326  -50.4836 H         1 UNK         0.0600 
    132 H132        5.4850  -13.8147  -48.8189 H         1 UNK         0.0800 
    133 H133        3.9755  -14.2349  -48.0787 H         1 UNK         0.0800 
    134 H134        3.8716  -16.9482  -48.1809 H         1 UNK         0.0800 
    135 H135        2.4951  -15.9502  -48.5665 H         1 UNK         0.0800 
    136 H136        1.4946  -16.3576  -51.0422 H         1 UNK         0.1150 
    137 H137        0.7736  -20.5393  -51.6418 H         1 UNK         0.1150 
    138 H138        3.6043  -19.2422  -48.6913 H         1 UNK         0.1150 
    139 H139        1.5922  -22.1284  -50.0316 H         1 UNK         0.0800 
    140 H140        3.2729  -21.8858  -50.4383 H         1 UNK         0.0800 
    141 H141        0.9373  -20.5149  -47.7509 H         1 UNK         0.0800 
    142 H142        1.8749  -20.6863  -46.3014 H         1 UNK         0.0800 
    143 H143        1.1686  -23.2002  -46.3017 H         1 UNK         0.0600 
    144 H144       -0.1549  -20.9554  -45.2327 H         1 UNK         0.3000 
    145 H145       -2.7511  -22.6409  -43.4747 H         1 UNK         0.0600 
    146 H146       -1.6979  -21.3283  -41.6220 H         1 UNK         0.0600 
    147 H147       -0.8019  -22.7985  -41.9728 H         1 UNK         0.0600 
    148 H148       -0.1887  -21.2509  -42.5319 H         1 UNK         0.0600 
    149 H149       -1.8807  -19.8959  -43.8244 H         1 UNK         0.3000 
    150 H150       -4.0400  -19.1872  -46.5746 H         1 UNK         0.0600 
    151 H151       -5.5150  -19.0172  -44.5647 H         1 UNK         0.0600 
    152 H152       -4.8647  -17.4500  -45.0183 H         1 UNK         0.0600 
    153 H153       -4.1923  -18.3185  -43.6372 H         1 UNK         0.0600 
    154 H154       -2.2710  -17.5658  -45.0093 H         1 UNK         0.3000 
    155 H155        0.6723  -18.1348  -46.9156 H         1 UNK         0.0600 
    156 H156        0.4721  -15.6331  -47.1475 H         1 UNK         0.0600 
    157 H157       -1.2739  -15.7709  -46.9636 H         1 UNK         0.0600 
    158 H158       -0.4667  -16.5069  -48.3447 H         1 UNK         0.0600 
    159 H159        0.2712  -16.2607  -44.8951 H         1 UNK         0.3000 
    160 H160        0.1130  -17.1309  -42.3148 H         1 UNK         0.0600 
    161 H161        2.4653  -19.0955  -42.3221 H         1 UNK         0.0600 
    162 H162        0.8936  -19.3288  -41.5713 H         1 UNK         0.0600 
    163 H163        1.9854  -18.1076  -40.9423 H         1 UNK         0.0600 
    164 H164        1.5281  -15.4979  -42.7467 H         1 UNK         0.3000 
    165 H165        4.7719  -15.0819  -43.6289 H         1 UNK         0.0600 
    166 H166        2.6548  -14.6172  -45.7994 H         1 UNK         0.0600 
    167 H167        4.2225  -13.8127  -45.6710 H         1 UNK         0.0600 
    168 H168        4.1443  -15.5302  -46.0079 H         1 UNK         0.0600 
    169 H169        2.2086  -13.5755  -43.6431 H         1 UNK         0.3000 
    170 H170        2.4865  -12.6161  -40.2818 H         1 UNK         0.0600 
    171 H171        4.0410  -10.9165  -41.1966 H         1 UNK         0.0600 
    172 H172        3.0727  -10.7733  -42.6555 H         1 UNK         0.0600 
    173 H173        2.4107  -10.2684  -41.1024 H         1 UNK         0.0600 
    174 H174        0.8115  -11.8137  -42.5087 H         1 UNK         0.3000 
    175 H175       -1.4736  -14.5099  -42.2421 H         1 UNK         0.0600 
    176 H176       -1.8952  -11.6817  -41.1346 H         1 UNK         0.0600 
    177 H177       -3.1626  -12.7947  -41.6522 H         1 UNK         0.0600 
    178 H178       -2.1794  -13.1748  -40.2478 H         1 UNK         0.0600 
    179 H179       -1.7191  -12.0319  -43.5853 H         1 UNK         0.3000 
    180 H180       -1.0167  -13.2821  -46.6095 H         1 UNK         0.0600 
    181 H181       -1.4341  -10.6332  -45.1124 H         1 UNK         0.0600 
    182 H182       -2.6970  -11.7890  -45.5399 H         1 UNK         0.0600 
    183 H183       -1.8163  -10.9477  -46.7987 H         1 UNK         0.0600 
    184 H184        0.8759  -12.4327  -47.2648 H         1 UNK         0.3000 
    185 H185        2.5687   -9.8771  -46.9375 H         1 UNK         0.0600 
    186 H186        4.8818  -10.4735  -46.0783 H         1 UNK         0.0600 
    187 H187        3.8100   -9.8868  -44.8218 H         1 UNK         0.0600 
    188 H188        4.1413  -11.6079  -44.9500 H         1 UNK         0.0600 
    189 H189        2.6009  -12.7094  -47.4530 H         1 UNK         0.3000 
    190 H190       -1.5575  -21.2726  -47.6579 H         1 UNK         0.3000 
    191 H191       -1.9943  -22.8175  -49.9851 H         1 UNK         0.0600 
    192 H192       -2.9444  -20.5759  -49.6874 H         1 UNK         0.0600 
    193 H193       -4.2549  -21.7159  -49.9395 H         1 UNK         0.0600 
    194 H194       -3.9208  -21.1123  -48.3222 H         1 UNK         0.0600 
    195 H195       -3.4220  -23.1469  -46.6883 H         1 UNK         0.3000 
    196 H196       -5.1031  -25.3500  -47.2463 H         1 UNK         0.0600 
    197 H197       -5.1274  -25.6584  -44.7826 H         1 UNK         0.0600 
    198 H198       -5.2984  -23.9602  -45.2001 H         1 UNK         0.0600 
    199 H199       -3.7559  -24.5731  -44.6083 H         1 UNK         0.0600 
    200 H200       -1.6925  -25.2905  -46.1011 H         1 UNK         0.3000 
    201 H201       -1.2912  -28.0959  -45.9726 H         1 UNK         0.0600 
    202 H202        0.2147  -26.4495  -44.8940 H         1 UNK         0.0600 
    203 H203        0.7145  -25.8315  -46.4666 H         1 UNK         0.0600 
    204 H204        1.1284  -27.4739  -45.9909 H         1 UNK         0.0600 
    205 H205       -1.2147  -25.8724  -48.7079 H         1 UNK         0.3000 
    206 H206       -0.2230  -27.8445  -50.6277 H         1 UNK         0.0600 
    207 H207        0.3176  -25.3937  -50.7982 H         1 UNK         0.0600 
    208 H208       -0.4795  -26.0106  -52.2342 H         1 UNK         0.0600 
    209 H209       -1.3876  -25.0487  -51.0759 H         1 UNK         0.0600 
    210 H210       -2.9151  -28.0892  -49.0170 H         1 UNK         0.3000 
    211 H211       -4.8369  -29.1163  -49.2283 H         1 UNK         0.0600 
    212 H212       -4.0542  -29.8957  -52.0840 H         1 UNK         0.0600 
    213 H213       -5.2793  -30.6581  -51.0826 H         1 UNK         0.0600 
    214 H214       -3.5876  -30.7745  -50.6280 H         1 UNK         0.0600 
    215 H215       -4.7491  -26.3756  -49.6201 H         1 UNK         0.3000 
    216 H216       -6.1166  -24.6877  -49.8642 H         1 UNK         0.0600 
    217 H217       -8.0080  -26.2312  -49.2865 H         1 UNK         0.0600 
    218 H218       -8.2751  -26.5278  -51.0049 H         1 UNK         0.0600 
    219 H219       -8.4955  -24.9171  -50.3427 H         1 UNK         0.0600 
    220 H220       -4.2973  -25.6806  -52.0224 H         1 UNK         0.3000 
    221 H221       -5.2807  -24.4862  -54.4962 H         1 UNK         0.0600 
    222 H222       -2.4465  -25.2324  -53.5851 H         1 UNK         0.0600 
    223 H223       -3.5286  -26.2757  -54.5054 H         1 UNK         0.0600 
    224 H224       -2.9170  -24.7912  -55.2215 H         1 UNK         0.0600 
    225 H225       -4.7352  -22.4558  -55.2772 H         1 UNK         0.3000 
    226 H226       -4.4363  -20.2647  -55.3080 H         1 UNK         0.0600 
    227 H227       -2.0300  -20.7350  -54.8713 H         1 UNK         0.0600 
    228 H228       -2.5396  -19.2102  -54.1616 H         1 UNK         0.0600 
    229 H229       -2.3072  -20.6162  -53.1345 H         1 UNK         0.0600 
    230 H230       -6.6757  -20.4288  -54.4974 H         1 UNK         0.3000 
    231 H231       -7.4464  -19.9714  -51.8347 H         1 UNK         0.0600 
    232 H232       -9.6445  -19.3664  -52.8666 H         1 UNK         0.0600 
    233 H233       -8.9710  -20.8143  -53.5963 H         1 UNK         0.0600 
    234 H234       -8.8848  -19.2727  -54.4510 H         1 UNK         0.0600 
    235 H235       -6.1621  -17.6880  -54.1318 H         1 UNK         0.3000 
    236 H236       -7.0586  -15.2532  -52.8652 H         1 UNK         0.0600 
    237 H237       -6.2927  -15.3157  -55.2290 H         1 UNK         0.0600 
    238 H238       -5.2885  -14.2214  -54.2914 H         1 UNK         0.0600 
    239 H239       -4.6792  -15.8155  -54.7184 H         1 UNK         0.0600 
    240 H240       -4.4177  -17.5295  -52.2809 H         1 UNK         0.3000 
    241 H241       -3.0978  -15.7930  -50.2855 H         1 UNK         0.0600 
    242 H242       -4.9754  -18.9067  -50.4468 H         1 UNK         0.3800 
    243 H243       -5.4435  -18.8479  -48.7590 H         1 UNK         0.3800 
    244 H244       -2.4001  -18.6176  -51.2342 H         1 UNK         0.0800 
    245 H245       -1.5173  -17.7276  -50.0226 H         1 UNK         0.0800 
    246 H246       -0.4684  -18.9969  -52.9147 H         1 UNK         0.0800 
    247 H247        0.6456  -17.7736  -53.4664 H         1 UNK         0.0800 
@<TRIPOS>BOND
     1    1    2 1    
     2    1  127 1    
     3    1  128 1    
     4    1  129 1    
     5    2    3 2    
     6    2    4 am   BACKBONE|DICT|INTERRES
     7    4    5 1    
     8    4  130 1    
     9    5    6 1    
    10    5   65 1    
    11    5  131 1    
    12    6    7 1    
    13    6  132 1    
    14    6  133 1    
    15    7    8 1    
    16    8    9 1    
    17    8  134 1    
    18    8  135 1    
    19    9   10 ar   
    20    9   14 ar   
    21   10   11 ar   
    22   10  136 1    
    23   11   12 ar   
    24   11  126 1    
    25   12   13 ar   
    26   12  137 1    
    27   13   14 ar   
    28   13   15 1    
    29   14  138 1    
    30   15   16 1    
    31   15  139 1    
    32   15  140 1    
    33   16   17 1    
    34   17   18 1    
    35   17  141 1    
    36   17  142 1    
    37   18   19 1    
    38   18   67 1    
    39   18  143 1    
    40   19   20 am   BACKBONE|DICT|INTERRES
    41   19  144 1    
    42   20   21 2    
    43   20   22 1    
    44   22   23 1    
    45   22   24 1    
    46   22  145 1    
    47   23  146 1    
    48   23  147 1    
    49   23  148 1    
    50   24   25 am   BACKBONE|DICT|INTERRES
    51   24  149 1    
    52   25   26 2    
    53   25   27 1    
    54   27   28 1    
    55   27   29 1    
    56   27  150 1    
    57   28  151 1    
    58   28  152 1    
    59   28  153 1    
    60   29   30 am   BACKBONE|DICT|INTERRES
    61   29  154 1    
    62   30   31 2    
    63   30   32 1    
    64   32   33 1    
    65   32   34 1    
    66   32  155 1    
    67   33  156 1    
    68   33  157 1    
    69   33  158 1    
    70   34   35 am   BACKBONE|DICT|INTERRES
    71   34  159 1    
    72   35   36 2    
    73   35   37 1    
    74   37   38 1    
    75   37   39 1    
    76   37  160 1    
    77   38  161 1    
    78   38  162 1    
    79   38  163 1    
    80   39   40 am   BACKBONE|DICT|INTERRES
    81   39  164 1    
    82   40   41 2    
    83   40   42 1    
    84   42   43 1    
    85   42   44 1    
    86   42  165 1    
    87   43  166 1    
    88   43  167 1    
    89   43  168 1    
    90   44   45 am   BACKBONE|DICT|INTERRES
    91   44  169 1    
    92   45   46 2    
    93   45   47 1    
    94   47   48 1    
    95   47   49 1    
    96   47  170 1    
    97   48  171 1    
    98   48  172 1    
    99   48  173 1    
   100   49   50 am   BACKBONE|DICT|INTERRES
   101   49  174 1    
   102   50   51 2    
   103   50   52 1    
   104   52   53 1    
   105   52   54 1    
   106   52  175 1    
   107   53  176 1    
   108   53  177 1    
   109   53  178 1    
   110   54   55 am   BACKBONE|DICT|INTERRES
   111   54  179 1    
   112   55   56 2    
   113   55   57 1    
   114   57   58 1    
   115   57   59 1    
   116   57  180 1    
   117   58  181 1    
   118   58  182 1    
   119   58  183 1    
   120   59   60 am   BACKBONE|DICT|INTERRES
   121   59  184 1    
   122   60   61 2    
   123   60   62 1    
   124   62   63 1    
   125   62   64 1    
   126   62  185 1    
   127   63  186 1    
   128   63  187 1    
   129   63  188 1    
   130   64   65 am   BACKBONE|DICT|INTERRES
   131   64  189 1    
   132   65   66 2    
   133   67   68 2    
   134   67   69 am   BACKBONE|DICT|INTERRES
   135   69   70 1    
   136   69  190 1    
   137   70   71 1    
   138   70   72 1    
   139   70  191 1    
   140   71  192 1    
   141   71  193 1    
   142   71  194 1    
   143   72   73 2    
   144   72   74 am   BACKBONE|DICT|INTERRES
   145   74   75 1    
   146   74  195 1    
   147   75   76 1    
   148   75   77 1    
   149   75  196 1    
   150   76  197 1    
   151   76  198 1    
   152   76  199 1    
   153   77   78 2    
   154   77   79 am   BACKBONE|DICT|INTERRES
   155   79   80 1    
   156   79  200 1    
   157   80   81 1    
   158   80   82 1    
   159   80  201 1    
   160   81  202 1    
   161   81  203 1    
   162   81  204 1    
   163   82   83 2    
   164   82   84 am   BACKBONE|DICT|INTERRES
   165   84   85 1    
   166   84  205 1    
   167   85   86 1    
   168   85   87 1    
   169   85  206 1    
   170   86  207 1    
   171   86  208 1    
   172   86  209 1    
   173   87   88 2    
   174   87   89 am   BACKBONE|DICT|INTERRES
   175   89   90 1    
   176   89  210 1    
   177   90   91 1    
   178   90   92 1    
   179   90  211 1    
   180   91  212 1    
   181   91  213 1    
   182   91  214 1    
   183   92   93 2    
   184   92   94 am   BACKBONE|DICT|INTERRES
   185   94   95 1    
   186   94  215 1    
   187   95   96 1    
   188   95   97 1    
   189   95  216 1    
   190   96  217 1    
   191   96  218 1    
   192   96  219 1    
   193   97   98 2    
   194   97   99 am   BACKBONE|DICT|INTERRES
   195   99  100 1    
   196   99  220 1    
   197  100  101 1    
   198  100  102 1    
   199  100  221 1    
   200  101  222 1    
   201  101  223 1    
   202  101  224 1    
   203  102  103 2    
   204  102  104 am   BACKBONE|DICT|INTERRES
   205  104  105 1    
   206  104  225 1    
   207  105  106 1    
   208  105  107 1    
   209  105  226 1    
   210  106  227 1    
   211  106  228 1    
   212  106  229 1    
   213  107  108 2    
   214  107  109 am   BACKBONE|DICT|INTERRES
   215  109  110 1    
   216  109  230 1    
   217  110  111 1    
   218  110  112 1    
   219  110  231 1    
   220  111  232 1    
   221  111  233 1    
   222  111  234 1    
   223  112  113 2    
   224  112  114 am   BACKBONE|DICT|INTERRES
   225  114  115 1    
   226  114  235 1    
   227  115  116 1    
   228  115  117 1    
   229  115  236 1    
   230  116  237 1    
   231  116  238 1    
   232  116  239 1    
   233  117  118 2    
   234  117  119 am   BACKBONE|DICT|INTERRES
   235  119  120 1    
   236  119  240 1    
   237  120  121 1    
   238  120  124 1    
   239  120  241 1    
   240  121  122 am   BACKBONE|DICT|INTERRES
   241  121  123 2    
   242  122  242 1    
   243  122  243 1    
   244  124  125 1    
   245  124  244 1    
   246  124  245 1    
   247  125  126 1    
   248  126  246 1    
   249  126  247 1    
@<TRIPOS>SUBSTRUCTURE
     1 UNK         1 GROUP             0       ****    0 ROOT    
