@<TRIPOS>MOLECULE
3R540
247   249    1
SMALL
USER_CHARGES


@<TRIPOS>ATOM
      1 CA          4.4945  -16.0533  -43.9382 C.3       0 UNK        -0.1800 
      2 C           3.6204  -14.9559  -44.5253 C.2       0 UNK         0.5000 
      3 O           3.3001  -13.9885  -43.8354 O.2       0 UNK        -0.5000 
      4 N           3.2505  -15.0855  -45.8062 N.am      1 UNK        -0.5000 
      5 CA          2.3301  -14.1936  -46.5271 C.3       1 UNK         0.1400 
      6 C6          1.7302  -14.8517  -47.7951 C.3       23 UNK        -0.0398 
      7 S7          2.9568  -15.5911  -48.9294 S.3       23 UNK        -0.2404 
      8 C8          1.9138  -15.9984  -50.3696 C.3       23 UNK        -0.0205 
      9 C9          1.0290  -17.2149  -50.1279 C.ar      23 UNK        -0.0193 
     10 C10        -0.2176  -17.0644  -49.5164 C.ar      23 UNK        -0.1150 
     11 C11        -1.0464  -18.1671  -49.2942 C.ar      23 UNK        -0.0193 
     12 C12        -0.6240  -19.4338  -49.7069 C.ar      23 UNK        -0.1150 
     13 C13         0.6188  -19.6017  -50.3271 C.ar      23 UNK        -0.0193 
     14 C14         1.4405  -18.4882  -50.5347 C.ar      23 UNK        -0.1150 
     15 C15         1.0670  -20.9880  -50.7743 C.3       23 UNK        -0.0205 
     16 S16         2.5194  -21.6048  -49.8554 S.3       23 UNK        -0.2404 
     17 C17         1.9427  -21.5501  -48.1243 C.3       23 UNK        -0.0398 
     18 CA          1.4858  -22.9127  -47.5550 C.3       11 UNK         0.1400 
     19 N           1.3635  -22.8663  -46.0953 N.am      11 UNK        -0.5000 
     20 C           1.2473  -23.9398  -45.3011 C.2       10 UNK         0.5000 
     21 O           1.2801  -25.0981  -45.7116 O.2       10 UNK        -0.5000 
     22 CA          1.0147  -23.6749  -43.8015 C.3       10 UNK         0.1400 
     23 CB          2.3532  -23.4856  -43.0728 C.3       10 UNK        -0.1800 
     24 N           0.1620  -22.5103  -43.5585 N.am      10 UNK        -0.5000 
     25 C          -1.1343  -22.4342  -43.8937 C.2       9 UNK         0.5000 
     26 O          -1.7630  -23.3658  -44.3930 O.2       9 UNK        -0.5000 
     27 CA         -1.8270  -21.0729  -43.6881 C.3       9 UNK         0.1400 
     28 CB         -2.4485  -20.9864  -42.2869 C.3       9 UNK        -0.1800 
     29 N          -0.9271  -19.9345  -43.8892 N.am      9 UNK        -0.5000 
     30 C          -0.2985  -19.6449  -45.0347 C.2       8 UNK         0.5000 
     31 O          -0.4387  -20.3066  -46.0656 O.2       8 UNK        -0.5000 
     32 CA          0.6674  -18.4423  -44.9964 C.3       8 UNK         0.1400 
     33 CB          1.4559  -18.2788  -46.3032 C.3       8 UNK        -0.1800 
     34 N          -0.0163  -17.1871  -44.6743 N.am      8 UNK        -0.5000 
     35 C          -0.3821  -16.8150  -43.4400 C.2       7 UNK         0.5000 
     36 O          -0.1805  -17.5090  -42.4415 O.2       7 UNK        -0.5000 
     37 CA         -1.0923  -15.4574  -43.2737 C.3       7 UNK         0.1400 
     38 CB         -0.1094  -14.4110  -42.7282 C.3       7 UNK        -0.1800 
     39 N          -1.7430  -14.9387  -44.4841 N.am      7 UNK        -0.5000 
     40 C          -2.8305  -15.4890  -45.0480 C.2       6 UNK         0.5000 
     41 O          -3.3062  -16.5616  -44.6747 O.2       6 UNK        -0.5000 
     42 CA         -3.5360  -14.7266  -46.1892 C.3       6 UNK         0.1400 
     43 CB         -5.0234  -14.5078  -45.8643 C.3       6 UNK        -0.1800 
     44 N          -2.9362  -13.4247  -46.4846 N.am      6 UNK        -0.5000 
     45 C          -2.0814  -13.1922  -47.4879 C.2       5 UNK         0.5000 
     46 O          -1.6666  -14.0630  -48.2490 O.2       5 UNK        -0.5000 
     47 CA         -1.5855  -11.7433  -47.6691 C.3       5 UNK         0.1400 
     48 CB         -2.5139  -10.9802  -48.6263 C.3       5 UNK        -0.1800 
     49 N          -1.4162  -10.9577  -46.4393 N.am      5 UNK        -0.5000 
     50 C          -0.6958  -11.3372  -45.3777 C.2       4 UNK         0.5000 
     51 O          -0.2760  -12.4827  -45.2081 O.2       4 UNK        -0.5000 
     52 CA         -0.3756  -10.2720  -44.3254 C.3       4 UNK         0.1400 
     53 CB         -1.4042  -10.2859  -43.1815 C.3       4 UNK        -0.1800 
     54 N           0.9575  -10.5860  -43.8301 N.am      4 UNK        -0.5000 
     55 C           1.7899   -9.7718  -43.1775 C.2       3 UNK         0.5000 
     56 O           1.5012   -8.6291  -42.8201 O.2       3 UNK        -0.5000 
     57 CA          3.1992  -10.3311  -42.9130 C.3       3 UNK         0.1400 
     58 CB          3.1827  -11.3124  -41.7304 C.3       3 UNK        -0.1800 
     59 N           3.7549  -10.9967  -44.0958 N.am      3 UNK        -0.5000 
     60 C           4.2172  -10.3459  -45.1769 C.2       2 UNK         0.5000 
     61 O           4.2466   -9.1179  -45.2671 O.2       2 UNK        -0.5000 
     62 CA          4.7453  -11.1911  -46.3559 C.3       2 UNK         0.1400 
     63 CB          6.2714  -11.3436  -46.2662 C.3       2 UNK        -0.1800 
     64 N           4.1409  -12.5198  -46.4180 N.am      2 UNK        -0.5000 
     65 C           2.8771  -12.7689  -46.7850 C.2       1 UNK         0.5000 
     66 O           2.1392  -11.9121  -47.2727 O.2       1 UNK        -0.5000 
     67 C           0.1687  -23.3943  -48.1929 C.2       11 UNK         0.5000 
     68 O           0.1978  -24.2668  -49.0603 O.2       11 UNK        -0.5000 
     69 N          -0.9635  -22.8600  -47.7113 N.am      12 UNK        -0.5000 
     70 CA         -2.3085  -23.2778  -48.1097 C.3       12 UNK         0.1400 
     71 CB         -3.3444  -22.3643  -47.4402 C.3       12 UNK        -0.1800 
     72 C          -2.5891  -24.7587  -47.7875 C.2       12 UNK         0.5000 
     73 O          -3.1259  -25.4733  -48.6338 O.2       12 UNK        -0.5000 
     74 N          -2.1787  -25.2037  -46.5912 N.am      13 UNK        -0.5000 
     75 CA         -2.2665  -26.5942  -46.1445 C.3       13 UNK         0.1400 
     76 CB         -1.9253  -26.6783  -44.6493 C.3       13 UNK        -0.1800 
     77 C          -1.3745  -27.5474  -46.9613 C.2       13 UNK         0.5000 
     78 O          -1.8190  -28.6462  -47.2938 O.2       13 UNK        -0.5000 
     79 N          -0.1491  -27.1096  -47.2868 N.am      14 UNK        -0.5000 
     80 CA          0.8025  -27.8478  -48.1203 C.3       14 UNK         0.1400 
     81 CB          2.1831  -27.1771  -48.0553 C.3       14 UNK        -0.1800 
     82 C           0.3322  -27.9852  -49.5792 C.2       14 UNK         0.5000 
     83 O           0.4810  -29.0588  -50.1645 O.2       14 UNK        -0.5000 
     84 N          -0.2461  -26.9087  -50.1306 N.am      15 UNK        -0.5000 
     85 CA         -0.8754  -26.8924  -51.4517 C.3       15 UNK         0.1400 
     86 CB         -1.1732  -25.4399  -51.8558 C.3       15 UNK        -0.1800 
     87 C          -2.1637  -27.7349  -51.5042 C.2       15 UNK         0.5000 
     88 O          -2.4498  -28.3371  -52.5396 O.2       15 UNK        -0.5000 
     89 N          -2.9069  -27.7492  -50.3869 N.am      16 UNK        -0.5000 
     90 CA         -4.2045  -28.3979  -50.1761 C.3       16 UNK         0.1400 
     91 CB         -4.0709  -29.9332  -50.2434 C.3       16 UNK        -0.1800 
     92 C          -5.2948  -27.8354  -51.1120 C.2       16 UNK         0.5000 
     93 O          -6.1560  -28.5784  -51.5876 O.2       16 UNK        -0.5000 
     94 N          -5.2211  -26.5258  -51.3711 N.am      17 UNK        -0.5000 
     95 CA         -6.0521  -25.7828  -52.3085 C.3       17 UNK         0.1400 
     96 CB         -5.6075  -26.0889  -53.7528 C.3       17 UNK        -0.1800 
     97 C          -5.9192  -24.2847  -52.0040 C.2       17 UNK         0.5000 
     98 O          -5.0380  -23.8826  -51.2367 O.2       17 UNK        -0.5000 
     99 N          -6.7718  -23.4756  -52.6443 N.am      18 UNK        -0.5000 
    100 CA        -6.7960  -22.0137  -52.5546 C.3       18 UNK         0.1400 
    101 CB        -8.1814  -21.5095  -52.9968 C.3       18 UNK        -0.1800 
    102 C         -5.6432  -21.3466  -53.3394 C.2       18 UNK         0.5000 
    103 O         -5.8831  -20.4752  -54.1785 O.2       18 UNK        -0.5000 
    104 N         -4.4034  -21.7607  -53.0463 N.am      19 UNK        -0.5000 
    105 CA        -3.1602  -21.1686  -53.5411 C.3       19 UNK         0.1400 
    106 CB        -1.9702  -21.9566  -52.9741 C.3       19 UNK        -0.1800 
    107 C         -3.0737  -19.6897  -53.1333 C.2       19 UNK         0.5000 
    108 O         -3.3356  -19.3803  -51.9702 O.2       19 UNK        -0.5000 
    109 N         -2.7971  -18.8069  -54.1025 N.am      20 UNK        -0.5000 
    110 CA        -2.7973  -17.3417  -53.9688 C.3       20 UNK         0.1400 
    111 CB        -1.6194  -16.8831  -53.0831 C.3       20 UNK        -0.1800 
    112 C         -4.1552  -16.7500  -53.5105 C.2       20 UNK         0.5000 
    113 O         -4.1894  -15.6376  -52.9835 O.2       20 UNK        -0.5000 
    114 N         -5.2456  -17.5042  -53.7307 N.am      21 UNK        -0.5000 
    115 CA        -6.6227  -17.2503  -53.2937 C.3       21 UNK         0.1400 
    116 CB        -7.1797  -15.9457  -53.9024 C.3       21 UNK        -0.1800 
    117 C         -6.8136  -17.3376  -51.7622 C.2       21 UNK         0.5000 
    118 O         -7.7542  -16.7424  -51.2328 O.2       21 UNK        -0.5000 
    119 N         -5.9457  -18.0930  -51.0785 N.am      22 UNK        -0.5000 
    120 CA        -5.9687  -18.3031  -49.6211 C.3       22 UNK         0.1400 
    121 C         -5.6251  -19.7561  -49.1981 C.2       22 UNK         0.5000 
    122 N         -4.8020  -20.4901  -49.9350 N.am      22 UNK        -0.7600 
    123 O         -6.1408  -20.2383  -48.1942 O.2       22 UNK        -0.5000 
    124 C124       -5.1288  -17.2522  -48.8426 C.3       23 UNK        -0.0398 
    125 S125       -3.4907  -16.9179  -49.5775 S.3       23 UNK        -0.2404 
    126 C126       -2.3899  -17.9872  -48.6021 C.3       23 UNK        -0.0205 
    127 H127        5.4394  -15.6354  -43.5912 H         1 UNK         0.0600 
    128 H128        4.7125  -16.8323  -44.6691 H         1 UNK         0.0600 
    129 H129        3.9912  -16.5151  -43.0888 H         1 UNK         0.0600 
    130 H130        3.5919  -15.8681  -46.3466 H         1 UNK         0.3000 
    131 H131        1.4909  -14.0503  -45.8492 H         1 UNK         0.0600 
    132 H132        1.1127  -14.1411  -48.3474 H         1 UNK         0.0800 
    133 H133        1.0473  -15.6401  -47.4827 H         1 UNK         0.0800 
    134 H134        1.3004  -15.1362  -50.6362 H         1 UNK         0.0800 
    135 H135        2.5626  -16.1816  -51.2273 H         1 UNK         0.0800 
    136 H136       -0.5503  -16.0835  -49.2143 H         1 UNK         0.1150 
    137 H137       -1.2635  -20.2895  -49.5423 H         1 UNK         0.1150 
    138 H138        2.4022  -18.6159  -51.0113 H         1 UNK         0.1150 
    139 H139        0.2535  -21.7080  -50.6764 H         1 UNK         0.0800 
    140 H140        1.3125  -20.9534  -51.8364 H         1 UNK         0.0800 
    141 H141        1.1628  -20.7997  -48.0106 H         1 UNK         0.0800 
    142 H142        2.7877  -21.1865  -47.5387 H         1 UNK         0.0800 
    143 H143        2.2556  -23.6503  -47.7923 H         1 UNK         0.0600 
    144 H144        1.2549  -21.9509  -45.6846 H         1 UNK         0.3000 
    145 H145        0.5183  -24.5520  -43.3813 H         1 UNK         0.0600 
    146 H146        2.2048  -23.3729  -41.9987 H         1 UNK         0.0600 
    147 H147        3.0028  -24.3494  -43.2208 H         1 UNK         0.0600 
    148 H148        2.8889  -22.6063  -43.4326 H         1 UNK         0.0600 
    149 H149        0.5985  -21.7014  -43.1418 H         1 UNK         0.3000 
    150 H150       -2.6291  -20.9960  -44.4247 H         1 UNK         0.0600 
    151 H151       -3.1421  -21.8107  -42.1158 H         1 UNK         0.0600 
    152 H152       -3.0087  -20.0595  -42.1616 H         1 UNK         0.0600 
    153 H153       -1.6885  -21.0276  -41.5057 H         1 UNK         0.0600 
    154 H154       -0.7739  -19.3162  -43.0989 H         1 UNK         0.3000 
    155 H155        1.3984  -18.6485  -44.2116 H         1 UNK         0.0600 
    156 H156        2.1525  -17.4477  -46.2445 H         1 UNK         0.0600 
    157 H157        2.0505  -19.1665  -46.5105 H         1 UNK         0.0600 
    158 H158        0.7987  -18.1137  -47.1544 H         1 UNK         0.0600 
    159 H159       -0.2626  -16.5866  -45.4462 H         1 UNK         0.3000 
    160 H160       -1.8708  -15.6009  -42.5214 H         1 UNK         0.0600 
    161 H161        0.6884  -14.2042  -43.4401 H         1 UNK         0.0600 
    162 H162        0.3593  -14.7528  -41.8045 H         1 UNK         0.0600 
    163 H163       -0.6137  -13.4717  -42.5059 H         1 UNK         0.0600 
    164 H164       -1.3762  -14.0662  -44.8539 H         1 UNK         0.3000 
    165 H165       -3.4837  -15.3661  -47.0705 H         1 UNK         0.0600 
    166 H166       -5.5360  -14.0094  -46.6874 H         1 UNK         0.0600 
    167 H167       -5.5351  -15.4564  -45.6962 H         1 UNK         0.0600 
    168 H168       -5.1544  -13.8994  -44.9686 H         1 UNK         0.0600 
    169 H169       -3.1989  -12.6542  -45.8873 H         1 UNK         0.3000 
    170 H170       -0.6008  -11.8067  -48.1370 H         1 UNK         0.0600 
    171 H171       -2.6444  -11.5247  -49.5627 H         1 UNK         0.0600 
    172 H172       -3.5035  -10.8322  -48.1922 H         1 UNK         0.0600 
    173 H173       -2.1058  -10.0010  -48.8772 H         1 UNK         0.0600 
    174 H174       -1.7490  -10.0052  -46.4785 H         1 UNK         0.3000 
    175 H175       -0.3589   -9.2892  -44.8007 H         1 UNK         0.0600 
    176 H176       -2.4067  -10.0777  -43.5569 H         1 UNK         0.0600 
    177 H177       -1.4357  -11.2525  -42.6788 H         1 UNK         0.0600 
    178 H178       -1.1754   -9.5279  -42.4325 H         1 UNK         0.0600 
    179 H179        1.2783  -11.5074  -44.1022 H         1 UNK         0.3000 
    180 H180        3.8498   -9.4950  -42.6473 H         1 UNK         0.0600 
    181 H181        2.5391  -12.1713  -41.9249 H         1 UNK         0.0600 
    182 H182        2.8147  -10.8260  -40.8262 H         1 UNK         0.0600 
    183 H183        4.1834  -11.6870  -41.5148 H         1 UNK         0.0600 
    184 H184        3.7396  -12.0117  -44.0930 H         1 UNK         0.3000 
    185 H185        4.5084  -10.6587  -47.2795 H         1 UNK         0.0600 
    186 H186        6.7606  -10.3689  -46.2455 H         1 UNK         0.0600 
    187 H187        6.5703  -11.8803  -45.3648 H         1 UNK         0.0600 
    188 H188        6.6651  -11.8853  -47.1265 H         1 UNK         0.0600 
    189 H189        4.6757  -13.2819  -46.0284 H         1 UNK         0.3000 
    190 H190       -0.8975  -22.1273  -47.0131 H         1 UNK         0.3000 
    191 H191       -2.3887  -23.1504  -49.1915 H         1 UNK         0.0600 
    192 H192       -3.3329  -22.4640  -46.3555 H         1 UNK         0.0600 
    193 H193       -4.3529  -22.6075  -47.7767 H         1 UNK         0.0600 
    194 H194       -3.1608  -21.3166  -47.6778 H         1 UNK         0.0600 
    195 H195       -1.8083  -24.5347  -45.9221 H         1 UNK         0.3000 
    196 H196       -3.3012  -26.9186  -46.2731 H         1 UNK         0.0600 
    197 H197       -2.0091  -27.7034  -44.2863 H         1 UNK         0.0600 
    198 H198       -2.6041  -26.0663  -44.0551 H         1 UNK         0.0600 
    199 H199       -0.9084  -26.3408  -44.4489 H         1 UNK         0.0600 
    200 H200        0.1695  -26.2189  -46.9185 H         1 UNK         0.3000 
    201 H201        0.8978  -28.8542  -47.7075 H         1 UNK         0.0600 
    202 H202        2.5671  -27.1651  -47.0353 H         1 UNK         0.0600 
    203 H203        2.1487  -26.1477  -48.4126 H         1 UNK         0.0600 
    204 H204        2.9080  -27.7140  -48.6683 H         1 UNK         0.0600 
    205 H205       -0.2599  -26.0363  -49.6079 H         1 UNK         0.3000 
    206 H206       -0.1698  -27.3113  -52.1721 H         1 UNK         0.0600 
    207 H207       -0.2615  -24.8431  -51.8880 H         1 UNK         0.0600 
    208 H208       -1.6268  -25.3979  -52.8468 H         1 UNK         0.0600 
    209 H209       -1.8616  -24.9593  -51.1592 H         1 UNK         0.0600 
    210 H210       -2.6104  -27.1470  -49.6260 H         1 UNK         0.3000 
    211 H211       -4.5099  -28.1379  -49.1616 H         1 UNK         0.0600 
    212 H212       -3.8261  -30.2765  -51.2488 H         1 UNK         0.0600 
    213 H213       -5.0016  -30.4193  -49.9492 H         1 UNK         0.0600 
    214 H214       -3.2921  -30.2882  -49.5680 H         1 UNK         0.0600 
    215 H215       -4.5301  -25.9599  -50.8907 H         1 UNK         0.3000 
    216 H216       -7.0961  -26.0706  -52.1699 H         1 UNK         0.0600 
    217 H217       -4.5640  -25.8150  -53.9149 H         1 UNK         0.0600 
    218 H218       -6.2084  -25.5419  -54.4799 H         1 UNK         0.0600 
    219 H219       -5.7119  -27.1485  -53.9864 H         1 UNK         0.0600 
    220 H220       -7.4386  -23.8862  -53.2818 H         1 UNK         0.3000 
    221 H221       -6.6717  -21.7352  -51.5072 H         1 UNK         0.0600 
    222 H222       -8.9737  -21.9536  -52.3939 H         1 UNK         0.0600 
    223 H223       -8.3816  -21.7460  -54.0426 H         1 UNK         0.0600 
    224 H224       -8.2590  -20.4275  -52.8821 H         1 UNK         0.0600 
    225 H225       -4.3163  -22.4804  -52.3354 H         1 UNK         0.3000 
    226 H226       -3.1528  -21.2480  -54.6298 H         1 UNK         0.0600 
    227 H227       -1.9916  -22.9920  -53.3120 H         1 UNK         0.0600 
    228 H228       -1.0228  -21.5265  -53.3011 H         1 UNK         0.0600 
    229 H229       -1.9722  -21.9587  -51.8831 H         1 UNK         0.0600 
    230 H230       -2.6248  -19.1548  -55.0356 H         1 UNK         0.3000 
    231 H231       -2.6258  -16.9460  -54.9706 H         1 UNK         0.0600 
    232 H232       -1.7453  -17.2043  -52.0496 H         1 UNK         0.0600 
    233 H233       -1.5275  -15.7967  -53.0767 H         1 UNK         0.0600 
    234 H234       -0.6727  -17.2863  -53.4422 H         1 UNK         0.0600 
    235 H235       -5.1081  -18.4130  -54.1574 H         1 UNK         0.3000 
    236 H236       -7.2131  -18.0696  -53.7055 H         1 UNK         0.0600 
    237 H237       -8.2537  -15.8636  -53.7318 H         1 UNK         0.0600 
    238 H238       -6.7147  -15.0615  -53.4664 H         1 UNK         0.0600 
    239 H239       -7.0212  -15.9134  -54.9803 H         1 UNK         0.0600 
    240 H240       -5.1600  -18.5081  -51.5652 H         1 UNK         0.3000 
    241 H241       -7.0016  -18.1771  -49.2903 H         1 UNK         0.0600 
    242 H242       -4.6270  -21.4421  -49.6618 H         1 UNK         0.3800 
    243 H243       -4.2641  -20.0752  -50.6962 H         1 UNK         0.3800 
    244 H244       -5.0184  -17.5236  -47.7910 H         1 UNK         0.0800 
    245 H245       -5.6694  -16.3051  -48.8414 H         1 UNK         0.0800 
    246 H246       -2.8652  -18.9548  -48.4428 H         1 UNK         0.0800 
    247 H247       -2.2339  -17.5501  -47.6152 H         1 UNK         0.0800 
@<TRIPOS>BOND
     1    1    2 1    
     2    1  127 1    
     3    1  128 1    
     4    1  129 1    
     5    2    3 2    
     6    2    4 am   BACKBONE|DICT|INTERRES
     7    4    5 1    
     8    4  130 1    
     9    5    6 1    
    10    5   65 1    
    11    5  131 1    
    12    6    7 1    
    13    6  132 1    
    14    6  133 1    
    15    7    8 1    
    16    8    9 1    
    17    8  134 1    
    18    8  135 1    
    19    9   10 ar   
    20    9   14 ar   
    21   10   11 ar   
    22   10  136 1    
    23   11   12 ar   
    24   11  126 1    
    25   12   13 ar   
    26   12  137 1    
    27   13   14 ar   
    28   13   15 1    
    29   14  138 1    
    30   15   16 1    
    31   15  139 1    
    32   15  140 1    
    33   16   17 1    
    34   17   18 1    
    35   17  141 1    
    36   17  142 1    
    37   18   19 1    
    38   18   67 1    
    39   18  143 1    
    40   19   20 am   BACKBONE|DICT|INTERRES
    41   19  144 1    
    42   20   21 2    
    43   20   22 1    
    44   22   23 1    
    45   22   24 1    
    46   22  145 1    
    47   23  146 1    
    48   23  147 1    
    49   23  148 1    
    50   24   25 am   BACKBONE|DICT|INTERRES
    51   24  149 1    
    52   25   26 2    
    53   25   27 1    
    54   27   28 1    
    55   27   29 1    
    56   27  150 1    
    57   28  151 1    
    58   28  152 1    
    59   28  153 1    
    60   29   30 am   BACKBONE|DICT|INTERRES
    61   29  154 1    
    62   30   31 2    
    63   30   32 1    
    64   32   33 1    
    65   32   34 1    
    66   32  155 1    
    67   33  156 1    
    68   33  157 1    
    69   33  158 1    
    70   34   35 am   BACKBONE|DICT|INTERRES
    71   34  159 1    
    72   35   36 2    
    73   35   37 1    
    74   37   38 1    
    75   37   39 1    
    76   37  160 1    
    77   38  161 1    
    78   38  162 1    
    79   38  163 1    
    80   39   40 am   BACKBONE|DICT|INTERRES
    81   39  164 1    
    82   40   41 2    
    83   40   42 1    
    84   42   43 1    
    85   42   44 1    
    86   42  165 1    
    87   43  166 1    
    88   43  167 1    
    89   43  168 1    
    90   44   45 am   BACKBONE|DICT|INTERRES
    91   44  169 1    
    92   45   46 2    
    93   45   47 1    
    94   47   48 1    
    95   47   49 1    
    96   47  170 1    
    97   48  171 1    
    98   48  172 1    
    99   48  173 1    
   100   49   50 am   BACKBONE|DICT|INTERRES
   101   49  174 1    
   102   50   51 2    
   103   50   52 1    
   104   52   53 1    
   105   52   54 1    
   106   52  175 1    
   107   53  176 1    
   108   53  177 1    
   109   53  178 1    
   110   54   55 am   BACKBONE|DICT|INTERRES
   111   54  179 1    
   112   55   56 2    
   113   55   57 1    
   114   57   58 1    
   115   57   59 1    
   116   57  180 1    
   117   58  181 1    
   118   58  182 1    
   119   58  183 1    
   120   59   60 am   BACKBONE|DICT|INTERRES
   121   59  184 1    
   122   60   61 2    
   123   60   62 1    
   124   62   63 1    
   125   62   64 1    
   126   62  185 1    
   127   63  186 1    
   128   63  187 1    
   129   63  188 1    
   130   64   65 am   BACKBONE|DICT|INTERRES
   131   64  189 1    
   132   65   66 2    
   133   67   68 2    
   134   67   69 am   BACKBONE|DICT|INTERRES
   135   69   70 1    
   136   69  190 1    
   137   70   71 1    
   138   70   72 1    
   139   70  191 1    
   140   71  192 1    
   141   71  193 1    
   142   71  194 1    
   143   72   73 2    
   144   72   74 am   BACKBONE|DICT|INTERRES
   145   74   75 1    
   146   74  195 1    
   147   75   76 1    
   148   75   77 1    
   149   75  196 1    
   150   76  197 1    
   151   76  198 1    
   152   76  199 1    
   153   77   78 2    
   154   77   79 am   BACKBONE|DICT|INTERRES
   155   79   80 1    
   156   79  200 1    
   157   80   81 1    
   158   80   82 1    
   159   80  201 1    
   160   81  202 1    
   161   81  203 1    
   162   81  204 1    
   163   82   83 2    
   164   82   84 am   BACKBONE|DICT|INTERRES
   165   84   85 1    
   166   84  205 1    
   167   85   86 1    
   168   85   87 1    
   169   85  206 1    
   170   86  207 1    
   171   86  208 1    
   172   86  209 1    
   173   87   88 2    
   174   87   89 am   BACKBONE|DICT|INTERRES
   175   89   90 1    
   176   89  210 1    
   177   90   91 1    
   178   90   92 1    
   179   90  211 1    
   180   91  212 1    
   181   91  213 1    
   182   91  214 1    
   183   92   93 2    
   184   92   94 am   BACKBONE|DICT|INTERRES
   185   94   95 1    
   186   94  215 1    
   187   95   96 1    
   188   95   97 1    
   189   95  216 1    
   190   96  217 1    
   191   96  218 1    
   192   96  219 1    
   193   97   98 2    
   194   97   99 am   BACKBONE|DICT|INTERRES
   195   99  100 1    
   196   99  220 1    
   197  100  101 1    
   198  100  102 1    
   199  100  221 1    
   200  101  222 1    
   201  101  223 1    
   202  101  224 1    
   203  102  103 2    
   204  102  104 am   BACKBONE|DICT|INTERRES
   205  104  105 1    
   206  104  225 1    
   207  105  106 1    
   208  105  107 1    
   209  105  226 1    
   210  106  227 1    
   211  106  228 1    
   212  106  229 1    
   213  107  108 2    
   214  107  109 am   BACKBONE|DICT|INTERRES
   215  109  110 1    
   216  109  230 1    
   217  110  111 1    
   218  110  112 1    
   219  110  231 1    
   220  111  232 1    
   221  111  233 1    
   222  111  234 1    
   223  112  113 2    
   224  112  114 am   BACKBONE|DICT|INTERRES
   225  114  115 1    
   226  114  235 1    
   227  115  116 1    
   228  115  117 1    
   229  115  236 1    
   230  116  237 1    
   231  116  238 1    
   232  116  239 1    
   233  117  118 2    
   234  117  119 am   BACKBONE|DICT|INTERRES
   235  119  120 1    
   236  119  240 1    
   237  120  121 1    
   238  120  124 1    
   239  120  241 1    
   240  121  122 am   BACKBONE|DICT|INTERRES
   241  121  123 2    
   242  122  242 1    
   243  122  243 1    
   244  124  125 1    
   245  124  244 1    
   246  124  245 1    
   247  125  126 1    
   248  126  246 1    
   249  126  247 1    
@<TRIPOS>SUBSTRUCTURE
     1 UNK         1 GROUP             0       ****    0 ROOT    
