@<TRIPOS>MOLECULE
3R540
247   249    1
SMALL
USER_CHARGES


@<TRIPOS>ATOM
      1 CA          5.3440  -14.2672  -44.5930 C.3       0 UNK        -0.1800 
      2 C           3.9784  -13.7702  -45.0434 C.2       0 UNK         0.5000 
      3 O           3.2793  -13.1127  -44.2735 O.2       0 UNK        -0.5000 
      4 N           3.5994  -14.0738  -46.2898 N.am      1 UNK        -0.5000 
      5 CA          2.3197  -13.7334  -46.9263 C.3       1 UNK         0.1400 
      6 C6          1.9631  -14.7522  -48.0457 C.3       23 UNK        -0.0398 
      7 S7          3.2713  -14.9741  -49.3079 S.3       23 UNK        -0.2404 
      8 C8          3.8224  -16.6943  -49.0161 C.3       23 UNK        -0.0205 
      9 C9          3.0486  -17.7956  -49.7469 C.ar      23 UNK        -0.0193 
     10 C10         2.1122  -17.5328  -50.7564 C.ar      23 UNK        -0.1150 
     11 C11         1.4881  -18.5778  -51.4440 C.ar      23 UNK        -0.0193 
     12 C12         1.7935  -19.9007  -51.1132 C.ar      23 UNK        -0.1150 
     13 C13         2.7402  -20.1828  -50.1259 C.ar      23 UNK        -0.0193 
     14 C14         3.3514  -19.1274  -49.4411 C.ar      23 UNK        -0.1150 
     15 C15         3.1739  -21.6199  -49.8658 C.3       23 UNK        -0.0205 
     16 S16         2.6785  -22.2264  -48.2261 S.3       23 UNK        -0.2404 
     17 C17         0.9116  -22.5871  -48.4812 C.3       23 UNK        -0.0398 
     18 CA          0.3576  -23.4983  -47.3586 C.3       11 UNK         0.1400 
     19 N           0.2907  -22.8198  -46.0603 N.am      11 UNK        -0.5000 
     20 C           0.0110  -23.4194  -44.8940 C.2       10 UNK         0.5000 
     21 O          -0.1114  -24.6374  -44.7661 O.2       10 UNK        -0.5000 
     22 CA         -0.2330  -22.5030  -43.6780 C.3       10 UNK         0.1400 
     23 CB          1.0867  -22.1169  -42.9937 C.3       10 UNK        -0.1800 
     24 N          -0.9834  -21.2961  -44.0341 N.am      10 UNK        -0.5000 
     25 C          -2.2527  -21.3014  -44.4676 C.2       9 UNK         0.5000 
     26 O          -2.9495  -22.3147  -44.5180 O.2       9 UNK        -0.5000 
     27 CA         -2.8184  -19.9691  -44.9927 C.3       9 UNK         0.1400 
     28 CB         -3.4352  -19.1302  -43.8641 C.3       9 UNK        -0.1800 
     29 N          -1.8039  -19.1907  -45.7042 N.am      9 UNK        -0.5000 
     30 C          -1.3375  -19.5162  -46.9189 C.2       8 UNK         0.5000 
     31 O          -1.7682  -20.4617  -47.5755 O.2       8 UNK        -0.5000 
     32 CA         -0.1724  -18.6812  -47.4776 C.3       8 UNK         0.1400 
     33 CB         -0.7131  -17.4998  -48.2931 C.3       8 UNK        -0.1800 
     34 N           0.7302  -18.2058  -46.4270 N.am      8 UNK        -0.5000 
     35 C           1.5297  -19.0103  -45.7120 C.2       7 UNK         0.5000 
     36 O           1.5939  -20.2235  -45.8899 O.2       7 UNK        -0.5000 
     37 CA          2.3391  -18.3817  -44.5601 C.3       7 UNK         0.1400 
     38 CB          3.6880  -17.8500  -45.0644 C.3       7 UNK        -0.1800 
     39 N           1.6336  -17.3056  -43.8666 N.am      7 UNK        -0.5000 
     40 C           0.4512  -17.4241  -43.2490 C.2       6 UNK         0.5000 
     41 O          -0.1573  -18.4893  -43.1442 O.2       6 UNK        -0.5000 
     42 CA         -0.1857  -16.1253  -42.7106 C.3       6 UNK         0.1400 
     43 CB          0.8499  -15.0335  -42.3685 C.3       6 UNK        -0.1800 
     44 N          -1.2014  -15.5649  -43.6112 N.am      6 UNK        -0.5000 
     45 C          -1.0919  -15.3409  -44.9309 C.2       5 UNK         0.5000 
     46 O          -0.1263  -15.6685  -45.6171 O.2       5 UNK        -0.5000 
     47 CA         -2.2405  -14.5601  -45.5897 C.3       5 UNK         0.1400 
     48 CB         -3.5178  -15.4105  -45.6625 C.3       5 UNK        -0.1800 
     49 N          -2.5109  -13.2922  -44.9065 N.am      5 UNK        -0.5000 
     50 C          -1.6158  -12.3017  -44.7796 C.2       4 UNK         0.5000 
     51 O          -0.4735  -12.3438  -45.2452 O.2       4 UNK        -0.5000 
     52 CA         -2.0647  -11.0632  -43.9913 C.3       4 UNK         0.1400 
     53 CB         -2.1053  -11.3560  -42.4820 C.3       4 UNK        -0.1800 
     54 N          -1.1009   -9.9987  -44.2426 N.am      4 UNK        -0.5000 
     55 C          -1.3810   -8.7329  -44.5615 C.2       3 UNK         0.5000 
     56 O          -2.5205   -8.2646  -44.5673 O.2       3 UNK        -0.5000 
     57 CA         -0.1876   -7.8314  -44.9402 C.3       3 UNK         0.1400 
     58 CB          0.1371   -6.8624  -43.7922 C.3       3 UNK        -0.1800 
     59 N           1.0337   -8.5660  -45.2928 N.am      3 UNK        -0.5000 
     60 C           1.2234   -9.2600  -46.4247 C.2       2 UNK         0.5000 
     61 O           0.3575   -9.3875  -47.2912 O.2       2 UNK        -0.5000 
     62 CA          2.6155   -9.8917  -46.6382 C.3       2 UNK         0.1400 
     63 CB          3.7102   -9.3160  -45.7168 C.3       2 UNK        -0.1800 
     64 N           2.5671  -11.3379  -46.4465 N.am      2 UNK        -0.5000 
     65 C           2.2560  -12.2500  -47.3755 C.2       1 UNK         0.5000 
     66 O           1.9681  -11.9590  -48.5379 O.2       1 UNK        -0.5000 
     67 C          -1.0074  -24.1016  -47.7445 C.2       11 UNK         0.5000 
     68 O          -1.0658  -25.2832  -48.0852 O.2       11 UNK        -0.5000 
     69 N          -2.0847  -23.3121  -47.6273 N.am      12 UNK        -0.5000 
     70 CA         -3.4584  -23.7232  -47.9269 C.3       12 UNK         0.1400 
     71 CB         -4.3957  -22.5212  -47.7811 C.3       12 UNK        -0.1800 
     72 C          -3.9578  -24.8937  -47.0627 C.2       12 UNK         0.5000 
     73 O          -4.6856  -25.7468  -47.5690 O.2       12 UNK        -0.5000 
     74 N          -3.5151  -24.9567  -45.7993 N.am      13 UNK        -0.5000 
     75 CA         -3.7664  -26.0724  -44.8819 C.3       13 UNK         0.1400 
     76 CB         -3.2954  -25.6855  -43.4721 C.3       13 UNK        -0.1800 
     77 C          -3.1205  -27.4016  -45.3325 C.2       13 UNK         0.5000 
     78 O          -3.6102  -28.4667  -44.9561 O.2       13 UNK        -0.5000 
     79 N          -2.0638  -27.3193  -46.1523 N.am      14 UNK        -0.5000 
     80 CA         -1.4043  -28.4457  -46.8159 C.3       14 UNK         0.1400 
     81 CB          0.1178  -28.2370  -46.7284 C.3       14 UNK        -0.1800 
     82 C          -1.8623  -28.6029  -48.2841 C.2       14 UNK         0.5000 
     83 O          -1.2853  -29.4141  -49.0089 O.2       14 UNK        -0.5000 
     84 N          -2.8718  -27.8211  -48.7008 N.am      15 UNK        -0.5000 
     85 CA         -3.4666  -27.7206  -50.0395 C.3       15 UNK         0.1400 
     86 CB         -4.0559  -29.0717  -50.4941 C.3       15 UNK        -0.1800 
     87 C          -2.5506  -27.0906  -51.1112 C.2       15 UNK         0.5000 
     88 O          -2.9189  -27.0854  -52.2879 O.2       15 UNK        -0.5000 
     89 N          -1.3990  -26.5354  -50.7109 N.am      16 UNK        -0.5000 
     90 CA         -0.4843  -25.8158  -51.5934 C.3       16 UNK         0.1400 
     91 CB          0.9014  -25.7180  -50.9376 C.3       16 UNK        -0.1800 
     92 C          -1.0627  -24.4314  -51.9315 C.2       16 UNK         0.5000 
     93 O          -1.5015  -23.7182  -51.0290 O.2       16 UNK        -0.5000 
     94 N          -1.0912  -24.1067  -53.2313 N.am      17 UNK        -0.5000 
     95 CA         -1.7257  -22.9262  -53.8376 C.3       17 UNK         0.1400 
     96 CB         -1.0864  -21.6177  -53.3298 C.3       17 UNK        -0.1800 
     97 C          -3.2691  -22.9143  -53.7322 C.2       17 UNK         0.5000 
     98 O          -3.8849  -21.8795  -53.9888 O.2       17 UNK        -0.5000 
     99 N          -3.8651  -24.0686  -53.3929 N.am      18 UNK        -0.5000 
    100 CA        -5.2934  -24.3997  -53.2976 C.3       18 UNK         0.1400 
    101 CB        -5.9906  -24.2390  -54.6618 C.3       18 UNK        -0.1800 
    102 C         -6.0863  -23.6755  -52.1898 C.2       18 UNK         0.5000 
    103 O         -6.9320  -24.3081  -51.5560 O.2       18 UNK        -0.5000 
    104 N         -5.8244  -22.3847  -51.9725 N.am      19 UNK        -0.5000 
    105 CA        -6.5040  -21.5278  -51.0074 C.3       19 UNK         0.1400 
    106 CB        -7.7290  -20.8797  -51.6759 C.3       19 UNK        -0.1800 
    107 C         -5.5321  -20.4577  -50.4974 C.2       19 UNK         0.5000 
    108 O         -4.5293  -20.1734  -51.1536 O.2       19 UNK        -0.5000 
    109 N         -5.8647  -19.8536  -49.3484 N.am      20 UNK        -0.5000 
    110 CA        -5.0494  -18.8447  -48.6587 C.3       20 UNK         0.1400 
    111 CB        -5.6511  -18.5929  -47.2679 C.3       20 UNK        -0.1800 
    112 C         -4.8906  -17.5203  -49.4330 C.2       20 UNK         0.5000 
    113 O         -3.9615  -16.7631  -49.1562 O.2       20 UNK        -0.5000 
    114 N         -5.7898  -17.2738  -50.3947 N.am      21 UNK        -0.5000 
    115 CA        -5.7141  -16.1703  -51.3514 C.3       21 UNK         0.1400 
    116 CB        -7.1266  -15.9005  -51.8947 C.3       21 UNK        -0.1800 
    117 C         -4.7317  -16.4406  -52.5120 C.2       21 UNK         0.5000 
    118 O         -4.4182  -15.5076  -53.2523 O.2       21 UNK        -0.5000 
    119 N         -4.2840  -17.6962  -52.6674 N.am      22 UNK        -0.5000 
    120 CA        -3.3642  -18.1841  -53.7112 C.3       22 UNK         0.1400 
    121 C         -3.9498  -18.1708  -55.1579 C.2       22 UNK         0.5000 
    122 N         -5.2604  -18.0625  -55.3416 N.am      22 UNK        -0.7600 
    123 O         -3.2135  -18.2862  -56.1342 O.2       22 UNK        -0.5000 
    124 C124       -1.9518  -17.5390  -53.6265 C.3       23 UNK        -0.0398 
    125 S125       -1.1284  -17.8589  -52.0275 S.3       23 UNK        -0.2404 
    126 C126        0.5456  -18.2735  -52.5978 C.3       23 UNK        -0.0205 
    127 H127        5.9845  -13.4233  -44.3370 H         1 UNK         0.0600 
    128 H128        5.8402  -14.8495  -45.3698 H         1 UNK         0.0600 
    129 H129        5.2396  -14.8984  -43.7105 H         1 UNK         0.0600 
    130 H130        4.2462  -14.5602  -46.8938 H         1 UNK         0.3000 
    131 H131        1.5470  -13.8268  -46.1632 H         1 UNK         0.0600 
    132 H132        1.7575  -15.7186  -47.5865 H         1 UNK         0.0800 
    133 H133        1.0344  -14.4700  -48.5443 H         1 UNK         0.0800 
    134 H134        3.8194  -16.8980  -47.9467 H         1 UNK         0.0800 
    135 H135        4.8643  -16.7606  -49.3318 H         1 UNK         0.0800 
    136 H136        1.8768  -16.5175  -51.0385 H         1 UNK         0.1150 
    137 H137        1.3283  -20.7104  -51.6564 H         1 UNK         0.1150 
    138 H138        4.0937  -19.3478  -48.6866 H         1 UNK         0.1150 
    139 H139        2.7920  -22.2919  -50.6359 H         1 UNK         0.0800 
    140 H140        4.2612  -21.6716  -49.9367 H         1 UNK         0.0800 
    141 H141        0.7977  -23.0569  -49.4582 H         1 UNK         0.0800 
    142 H142        0.3608  -21.6493  -48.5365 H         1 UNK         0.0800 
    143 H143        1.0435  -24.3410  -47.2455 H         1 UNK         0.0600 
    144 H144        0.4869  -21.8232  -46.0608 H         1 UNK         0.3000 
    145 H145       -0.8320  -23.0639  -42.9573 H         1 UNK         0.0600 
    146 H146        0.9110  -21.4773  -42.1285 H         1 UNK         0.0600 
    147 H147        1.6134  -23.0047  -42.6418 H         1 UNK         0.0600 
    148 H148        1.7575  -21.5889  -43.6700 H         1 UNK         0.0600 
    149 H149       -0.4929  -20.4111  -43.9779 H         1 UNK         0.3000 
    150 H150       -3.6164  -20.2076  -45.6973 H         1 UNK         0.0600 
    151 H151       -4.2398  -19.6783  -43.3725 H         1 UNK         0.0600 
    152 H152       -3.8625  -18.2047  -44.2490 H         1 UNK         0.0600 
    153 H153       -2.7054  -18.8706  -43.0983 H         1 UNK         0.0600 
    154 H154       -1.3505  -18.4502  -45.1881 H         1 UNK         0.3000 
    155 H155        0.4030  -19.3155  -48.1547 H         1 UNK         0.0600 
    156 H156       -1.2921  -16.8081  -47.6831 H         1 UNK         0.0600 
    157 H157       -1.3727  -17.8544  -49.0851 H         1 UNK         0.0600 
    158 H158        0.0908  -16.9437  -48.7719 H         1 UNK         0.0600 
    159 H159        0.6482  -17.2255  -46.1653 H         1 UNK         0.3000 
    160 H160        2.5349  -19.1716  -43.8324 H         1 UNK         0.0600 
    161 H161        4.3383  -17.5782  -44.2329 H         1 UNK         0.0600 
    162 H162        3.5580  -16.9656  -45.6863 H         1 UNK         0.0600 
    163 H163        4.2132  -18.6008  -45.6567 H         1 UNK         0.0600 
    164 H164        2.0307  -16.3813  -43.9454 H         1 UNK         0.3000 
    165 H165       -0.6978  -16.3976  -41.7866 H         1 UNK         0.0600 
    166 H166        0.3787  -14.2052  -41.8391 H         1 UNK         0.0600 
    167 H167        1.6393  -15.4204  -41.7227 H         1 UNK         0.0600 
    168 H168        1.3180  -14.6205  -43.2621 H         1 UNK         0.0600 
    169 H169       -2.0517  -15.2613  -43.1592 H         1 UNK         0.3000 
    170 H170       -1.9343  -14.3279  -46.6122 H         1 UNK         0.0600 
    171 H171       -3.3174  -16.3632  -46.1541 H         1 UNK         0.0600 
    172 H172       -3.9232  -15.6274  -44.6738 H         1 UNK         0.0600 
    173 H173       -4.2930  -14.9077  -46.2409 H         1 UNK         0.0600 
    174 H174       -3.4279  -13.1825  -44.4984 H         1 UNK         0.3000 
    175 H175       -3.0584  -10.7747  -44.3402 H         1 UNK         0.0600 
    176 H176       -1.1350  -11.6895  -42.1111 H         1 UNK         0.0600 
    177 H177       -2.3915  -10.4682  -41.9177 H         1 UNK         0.0600 
    178 H178       -2.8319  -12.1353  -42.2501 H         1 UNK         0.0600 
    179 H179       -0.1496  -10.3215  -44.3605 H         1 UNK         0.3000 
    180 H180       -0.4913   -7.2412  -45.8074 H         1 UNK         0.0600 
    181 H181        0.4618   -7.3943  -42.8969 H         1 UNK         0.0600 
    182 H182       -0.7370   -6.2683  -43.5218 H         1 UNK         0.0600 
    183 H183        0.9261   -6.1651  -44.0747 H         1 UNK         0.0600 
    184 H184        1.7965   -8.5069  -44.6337 H         1 UNK         0.3000 
    185 H185        2.9076   -9.6747  -47.6678 H         1 UNK         0.0600 
    186 H186        3.7751   -8.2309  -45.8086 H         1 UNK         0.0600 
    187 H187        3.5351   -9.5575  -44.6675 H         1 UNK         0.0600 
    188 H188        4.6885   -9.7164  -45.9837 H         1 UNK         0.0600 
    189 H189        2.7668  -11.6856  -45.5133 H         1 UNK         0.3000 
    190 H190       -1.9498  -22.3309  -47.3977 H         1 UNK         0.3000 
    191 H191       -3.4777  -24.0466  -48.9699 H         1 UNK         0.0600 
    192 H192       -4.4768  -22.1914  -46.7460 H         1 UNK         0.0600 
    193 H193       -5.4001  -22.7646  -48.1283 H         1 UNK         0.0600 
    194 H194       -4.0321  -21.6838  -48.3724 H         1 UNK         0.0600 
    195 H195       -2.9738  -24.1787  -45.4371 H         1 UNK         0.3000 
    196 H196       -4.8459  -26.2322  -44.8451 H         1 UNK         0.0600 
    197 H197       -3.5302  -26.4713  -42.7531 H         1 UNK         0.0600 
    198 H198       -3.7839  -24.7734  -43.1286 H         1 UNK         0.0600 
    199 H199       -2.2187  -25.5219  -43.4373 H         1 UNK         0.0600 
    200 H200       -1.7346  -26.4012  -46.4302 H         1 UNK         0.3000 
    201 H201       -1.6470  -29.3777  -46.3020 H         1 UNK         0.0600 
    202 H202        0.4402  -28.1228  -45.6933 H         1 UNK         0.0600 
    203 H203        0.4369  -27.3501  -47.2765 H         1 UNK         0.0600 
    204 H204        0.6566  -29.0899  -47.1427 H         1 UNK         0.0600 
    205 H205       -3.2766  -27.1856  -48.0233 H         1 UNK         0.3000 
    206 H206       -4.3024  -27.0278  -49.9347 H         1 UNK         0.0600 
    207 H207       -4.7121  -29.4924  -49.7323 H         1 UNK         0.0600 
    208 H208       -4.6496  -28.9537  -51.4013 H         1 UNK         0.0600 
    209 H209       -3.2774  -29.8035  -50.7104 H         1 UNK         0.0600 
    210 H210       -1.2228  -26.4489  -49.7153 H         1 UNK         0.3000 
    211 H211       -0.3726  -26.3875  -52.5174 H         1 UNK         0.0600 
    212 H212        0.8526  -25.2831  -49.9416 H         1 UNK         0.0600 
    213 H213        1.5781  -25.1054  -51.5347 H         1 UNK         0.0600 
    214 H214        1.3550  -26.7045  -50.8405 H         1 UNK         0.0600 
    215 H215       -0.7083  -24.7681  -53.8932 H         1 UNK         0.3000 
    216 H216       -1.5088  -22.9942  -54.9044 H         1 UNK         0.0600 
    217 H217       -1.4111  -20.7686  -53.9312 H         1 UNK         0.0600 
    218 H218       -0.0000  -21.6614  -53.3968 H         1 UNK         0.0600 
    219 H219       -1.3554  -21.4029  -52.2948 H         1 UNK         0.0600 
    220 H220       -3.2513  -24.8436  -53.1795 H         1 UNK         0.3000 
    221 H221       -5.3208  -25.4612  -53.0455 H         1 UNK         0.0600 
    222 H222       -6.0149  -23.1985  -54.9869 H         1 UNK         0.0600 
    223 H223       -5.4867  -24.8209  -55.4335 H         1 UNK         0.0600 
    224 H224       -7.0229  -24.5879  -54.6142 H         1 UNK         0.0600 
    225 H225       -5.0882  -21.9368  -52.5153 H         1 UNK         0.3000 
    226 H226       -6.8276  -22.1237  -50.1515 H         1 UNK         0.0600 
    227 H227       -8.2660  -20.2346  -50.9796 H         1 UNK         0.0600 
    228 H228       -7.4414  -20.2719  -52.5350 H         1 UNK         0.0600 
    229 H229       -8.4338  -21.6352  -52.0236 H         1 UNK         0.0600 
    230 H230       -6.7190  -20.1254  -48.8832 H         1 UNK         0.3000 
    231 H231       -4.0475  -19.2576  -48.5286 H         1 UNK         0.0600 
    232 H232       -5.7298  -19.5178  -46.6966 H         1 UNK         0.0600 
    233 H233       -6.6475  -18.1544  -47.3349 H         1 UNK         0.0600 
    234 H234       -5.0297  -17.9089  -46.6905 H         1 UNK         0.0600 
    235 H235       -6.5314  -17.9435  -50.5338 H         1 UNK         0.3000 
    236 H236       -5.3700  -15.2734  -50.8320 H         1 UNK         0.0600 
    237 H237       -7.8174  -15.6496  -51.0895 H         1 UNK         0.0600 
    238 H238       -7.1249  -15.0612  -52.5915 H         1 UNK         0.0600 
    239 H239       -7.5273  -16.7659  -52.4241 H         1 UNK         0.0600 
    240 H240       -4.5579  -18.4055  -51.9955 H         1 UNK         0.3000 
    241 H241       -3.2389  -19.2444  -53.4929 H         1 UNK         0.0600 
    242 H242       -5.8819  -17.9795  -54.5542 H         1 UNK         0.3800 
    243 H243       -5.6318  -18.0646  -56.2785 H         1 UNK         0.3800 
    244 H244       -2.0036  -16.4617  -53.7861 H         1 UNK         0.0800 
    245 H245       -1.3147  -17.9271  -54.4225 H         1 UNK         0.0800 
    246 H246        0.4977  -19.1244  -53.2781 H         1 UNK         0.0800 
    247 H247        0.9421  -17.4398  -53.1795 H         1 UNK         0.0800 
@<TRIPOS>BOND
     1    1    2 1    
     2    1  127 1    
     3    1  128 1    
     4    1  129 1    
     5    2    3 2    
     6    2    4 am   BACKBONE|DICT|INTERRES
     7    4    5 1    
     8    4  130 1    
     9    5    6 1    
    10    5   65 1    
    11    5  131 1    
    12    6    7 1    
    13    6  132 1    
    14    6  133 1    
    15    7    8 1    
    16    8    9 1    
    17    8  134 1    
    18    8  135 1    
    19    9   10 ar   
    20    9   14 ar   
    21   10   11 ar   
    22   10  136 1    
    23   11   12 ar   
    24   11  126 1    
    25   12   13 ar   
    26   12  137 1    
    27   13   14 ar   
    28   13   15 1    
    29   14  138 1    
    30   15   16 1    
    31   15  139 1    
    32   15  140 1    
    33   16   17 1    
    34   17   18 1    
    35   17  141 1    
    36   17  142 1    
    37   18   19 1    
    38   18   67 1    
    39   18  143 1    
    40   19   20 am   BACKBONE|DICT|INTERRES
    41   19  144 1    
    42   20   21 2    
    43   20   22 1    
    44   22   23 1    
    45   22   24 1    
    46   22  145 1    
    47   23  146 1    
    48   23  147 1    
    49   23  148 1    
    50   24   25 am   BACKBONE|DICT|INTERRES
    51   24  149 1    
    52   25   26 2    
    53   25   27 1    
    54   27   28 1    
    55   27   29 1    
    56   27  150 1    
    57   28  151 1    
    58   28  152 1    
    59   28  153 1    
    60   29   30 am   BACKBONE|DICT|INTERRES
    61   29  154 1    
    62   30   31 2    
    63   30   32 1    
    64   32   33 1    
    65   32   34 1    
    66   32  155 1    
    67   33  156 1    
    68   33  157 1    
    69   33  158 1    
    70   34   35 am   BACKBONE|DICT|INTERRES
    71   34  159 1    
    72   35   36 2    
    73   35   37 1    
    74   37   38 1    
    75   37   39 1    
    76   37  160 1    
    77   38  161 1    
    78   38  162 1    
    79   38  163 1    
    80   39   40 am   BACKBONE|DICT|INTERRES
    81   39  164 1    
    82   40   41 2    
    83   40   42 1    
    84   42   43 1    
    85   42   44 1    
    86   42  165 1    
    87   43  166 1    
    88   43  167 1    
    89   43  168 1    
    90   44   45 am   BACKBONE|DICT|INTERRES
    91   44  169 1    
    92   45   46 2    
    93   45   47 1    
    94   47   48 1    
    95   47   49 1    
    96   47  170 1    
    97   48  171 1    
    98   48  172 1    
    99   48  173 1    
   100   49   50 am   BACKBONE|DICT|INTERRES
   101   49  174 1    
   102   50   51 2    
   103   50   52 1    
   104   52   53 1    
   105   52   54 1    
   106   52  175 1    
   107   53  176 1    
   108   53  177 1    
   109   53  178 1    
   110   54   55 am   BACKBONE|DICT|INTERRES
   111   54  179 1    
   112   55   56 2    
   113   55   57 1    
   114   57   58 1    
   115   57   59 1    
   116   57  180 1    
   117   58  181 1    
   118   58  182 1    
   119   58  183 1    
   120   59   60 am   BACKBONE|DICT|INTERRES
   121   59  184 1    
   122   60   61 2    
   123   60   62 1    
   124   62   63 1    
   125   62   64 1    
   126   62  185 1    
   127   63  186 1    
   128   63  187 1    
   129   63  188 1    
   130   64   65 am   BACKBONE|DICT|INTERRES
   131   64  189 1    
   132   65   66 2    
   133   67   68 2    
   134   67   69 am   BACKBONE|DICT|INTERRES
   135   69   70 1    
   136   69  190 1    
   137   70   71 1    
   138   70   72 1    
   139   70  191 1    
   140   71  192 1    
   141   71  193 1    
   142   71  194 1    
   143   72   73 2    
   144   72   74 am   BACKBONE|DICT|INTERRES
   145   74   75 1    
   146   74  195 1    
   147   75   76 1    
   148   75   77 1    
   149   75  196 1    
   150   76  197 1    
   151   76  198 1    
   152   76  199 1    
   153   77   78 2    
   154   77   79 am   BACKBONE|DICT|INTERRES
   155   79   80 1    
   156   79  200 1    
   157   80   81 1    
   158   80   82 1    
   159   80  201 1    
   160   81  202 1    
   161   81  203 1    
   162   81  204 1    
   163   82   83 2    
   164   82   84 am   BACKBONE|DICT|INTERRES
   165   84   85 1    
   166   84  205 1    
   167   85   86 1    
   168   85   87 1    
   169   85  206 1    
   170   86  207 1    
   171   86  208 1    
   172   86  209 1    
   173   87   88 2    
   174   87   89 am   BACKBONE|DICT|INTERRES
   175   89   90 1    
   176   89  210 1    
   177   90   91 1    
   178   90   92 1    
   179   90  211 1    
   180   91  212 1    
   181   91  213 1    
   182   91  214 1    
   183   92   93 2    
   184   92   94 am   BACKBONE|DICT|INTERRES
   185   94   95 1    
   186   94  215 1    
   187   95   96 1    
   188   95   97 1    
   189   95  216 1    
   190   96  217 1    
   191   96  218 1    
   192   96  219 1    
   193   97   98 2    
   194   97   99 am   BACKBONE|DICT|INTERRES
   195   99  100 1    
   196   99  220 1    
   197  100  101 1    
   198  100  102 1    
   199  100  221 1    
   200  101  222 1    
   201  101  223 1    
   202  101  224 1    
   203  102  103 2    
   204  102  104 am   BACKBONE|DICT|INTERRES
   205  104  105 1    
   206  104  225 1    
   207  105  106 1    
   208  105  107 1    
   209  105  226 1    
   210  106  227 1    
   211  106  228 1    
   212  106  229 1    
   213  107  108 2    
   214  107  109 am   BACKBONE|DICT|INTERRES
   215  109  110 1    
   216  109  230 1    
   217  110  111 1    
   218  110  112 1    
   219  110  231 1    
   220  111  232 1    
   221  111  233 1    
   222  111  234 1    
   223  112  113 2    
   224  112  114 am   BACKBONE|DICT|INTERRES
   225  114  115 1    
   226  114  235 1    
   227  115  116 1    
   228  115  117 1    
   229  115  236 1    
   230  116  237 1    
   231  116  238 1    
   232  116  239 1    
   233  117  118 2    
   234  117  119 am   BACKBONE|DICT|INTERRES
   235  119  120 1    
   236  119  240 1    
   237  120  121 1    
   238  120  124 1    
   239  120  241 1    
   240  121  122 am   BACKBONE|DICT|INTERRES
   241  121  123 2    
   242  122  242 1    
   243  122  243 1    
   244  124  125 1    
   245  124  244 1    
   246  124  245 1    
   247  125  126 1    
   248  126  246 1    
   249  126  247 1    
@<TRIPOS>SUBSTRUCTURE
     1 UNK         1 GROUP             0       ****    0 ROOT    
