@<TRIPOS>MOLECULE
3R540
247   249    1
SMALL
USER_CHARGES


@<TRIPOS>ATOM
      1 CA         -3.8448  -15.6363  -52.1304 C.3       0 UNK        -0.1800 
      2 C          -3.0071  -15.2934  -50.9090 C.2       0 UNK         0.5000 
      3 O          -2.4700  -14.1877  -50.8324 O.2       0 UNK        -0.5000 
      4 N          -2.8960  -16.2310  -49.9585 N.am      1 UNK        -0.5000 
      5 CA         -2.0640  -16.1413  -48.7527 C.3       1 UNK         0.1400 
      6 C6         -2.5140  -14.9936  -47.8034 C.3       23 UNK        -0.0398 
      7 S7         -2.2281  -15.3763  -46.0408 S.3       23 UNK        -0.2404 
      8 C8         -3.7917  -14.8466  -45.2752 C.3       23 UNK        -0.0205 
      9 C9         -4.8548  -15.9356  -45.3072 C.ar      23 UNK        -0.0193 
     10 C10        -5.7391  -16.0395  -46.3866 C.ar      23 UNK        -0.1150 
     11 C11        -6.7475  -17.0082  -46.3881 C.ar      23 UNK        -0.0193 
     12 C12        -6.8693  -17.8729  -45.2975 C.ar      23 UNK        -0.1150 
     13 C13        -5.9894  -17.7846  -44.2154 C.ar      23 UNK        -0.0193 
     14 C14        -4.9826  -16.8152  -44.2274 C.ar      23 UNK        -0.1150 
     15 C15        -6.1516  -18.7217  -43.0255 C.3       23 UNK        -0.0205 
     16 S16        -4.7300  -19.8362  -42.7874 S.3       23 UNK        -0.2404 
     17 C17        -4.5852  -20.6568  -44.4130 C.3       23 UNK        -0.0398 
     18 CA         -3.2113  -20.3679  -45.0887 C.3       11 UNK         0.1400 
     19 N          -2.0835  -20.8346  -44.2799 N.am      11 UNK        -0.5000 
     20 C          -1.7792  -22.1049  -43.9791 C.2       10 UNK         0.5000 
     21 O          -2.3841  -23.0769  -44.4345 O.2       10 UNK        -0.5000 
     22 CA         -0.6224  -22.3385  -42.9849 C.3       10 UNK         0.1400 
     23 CB          0.6070  -22.9232  -43.6955 C.3       10 UNK        -0.1800 
     24 N          -0.2340  -21.1207  -42.2686 N.am      10 UNK        -0.5000 
     25 C          -0.8974  -20.6093  -41.2218 C.2       9 UNK         0.5000 
     26 O          -1.8463  -21.1735  -40.6764 O.2       9 UNK        -0.5000 
     27 CA         -0.4387  -19.2324  -40.7000 C.3       9 UNK         0.1400 
     28 CB          0.5464  -19.4008  -39.5334 C.3       9 UNK        -0.1800 
     29 N           0.1731  -18.3901  -41.7306 N.am      9 UNK        -0.5000 
     30 C          -0.4790  -17.8650  -42.7785 C.2       8 UNK         0.5000 
     31 O          -1.6872  -17.9942  -42.9641 O.2       8 UNK        -0.5000 
     32 CA          0.3710  -17.1230  -43.8265 C.3       8 UNK         0.1400 
     33 CB          0.6202  -15.6695  -43.4005 C.3       8 UNK        -0.1800 
     34 N           1.6479  -17.7886  -44.0866 N.am      8 UNK        -0.5000 
     35 C           1.7665  -19.0194  -44.6031 C.2       7 UNK         0.5000 
     36 O           0.8060  -19.6986  -44.9567 O.2       7 UNK        -0.5000 
     37 CA          3.1821  -19.6162  -44.6820 C.3       7 UNK         0.1400 
     38 CB          3.9200  -19.1623  -45.9480 C.3       7 UNK        -0.1800 
     39 N           3.9778  -19.2737  -43.5061 N.am      7 UNK        -0.5000 
     40 C           3.8160  -19.8339  -42.3003 C.2       6 UNK         0.5000 
     41 O           3.0085  -20.7327  -42.0658 O.2       6 UNK        -0.5000 
     42 CA          4.6834  -19.2692  -41.1604 C.3       6 UNK         0.1400 
     43 CB          6.0629  -19.9445  -41.1437 C.3       6 UNK        -0.1800 
     44 N           4.8552  -17.8171  -41.2471 N.am      6 UNK        -0.5000 
     45 C           3.8644  -16.9316  -41.0737 C.2       5 UNK         0.5000 
     46 O           2.7040  -17.2480  -40.8150 O.2       5 UNK        -0.5000 
     47 CA          4.2202  -15.4455  -41.2588 C.3       5 UNK         0.1400 
     48 CB          4.7989  -14.8643  -39.9602 C.3       5 UNK        -0.1800 
     49 N           5.1476  -15.1850  -42.3644 N.am      5 UNK        -0.5000 
     50 C           4.9056  -15.4754  -43.6491 C.2       4 UNK         0.5000 
     51 O           3.9184  -16.1013  -44.0380 O.2       4 UNK        -0.5000 
     52 CA          5.9530  -15.0167  -44.6747 C.3       4 UNK         0.1400 
     53 CB          6.8002  -16.2059  -45.1527 C.3       4 UNK        -0.1800 
     54 N           5.2985  -14.3955  -45.8250 N.am      4 UNK        -0.5000 
     55 C           4.7867  -13.1566  -45.8265 C.2       3 UNK         0.5000 
     56 O           4.8732  -12.3815  -44.8729 O.2       3 UNK        -0.5000 
     57 CA          4.0684  -12.6976  -47.1095 C.3       3 UNK         0.1400 
     58 CB          5.0584  -12.0043  -48.0587 C.3       3 UNK        -0.1800 
     59 N           3.4148  -13.7987  -47.8209 N.am      3 UNK        -0.5000 
     60 C           2.2268  -14.3126  -47.4798 C.2       2 UNK         0.5000 
     61 O           1.5414  -13.9023  -46.5399 O.2       2 UNK        -0.5000 
     62 CA          1.7257  -15.4835  -48.3354 C.3       2 UNK         0.1400 
     63 CB          2.3934  -16.7996  -47.9112 C.3       2 UNK        -0.1800 
     64 N           0.2807  -15.6061  -48.1850 N.am      2 UNK        -0.5000 
     65 C          -0.5508  -16.1130  -49.1004 C.2       1 UNK         0.5000 
     66 O          -0.1556  -16.5666  -50.1780 O.2       1 UNK        -0.5000 
     67 C          -3.0907  -20.8835  -46.5419 C.2       11 UNK         0.5000 
     68 O          -2.0281  -20.7378  -47.1518 O.2       11 UNK        -0.5000 
     69 N          -4.1666  -21.4818  -47.0722 N.am      12 UNK        -0.5000 
     70 CA         -4.2731  -21.9837  -48.4402 C.3       12 UNK         0.1400 
     71 CB         -5.7047  -22.4895  -48.6695 C.3       12 UNK        -0.1800 
     72 C          -3.2520  -23.0779  -48.7997 C.2       12 UNK         0.5000 
     73 O          -2.8690  -23.1728  -49.9647 O.2       12 UNK        -0.5000 
     74 N          -2.8285  -23.8775  -47.8092 N.am      13 UNK        -0.5000 
     75 CA         -1.9181  -25.0107  -47.9855 C.3       13 UNK         0.1400 
     76 CB         -1.7818  -25.7736  -46.6592 C.3       13 UNK        -0.1800 
     77 C          -0.5364  -24.6026  -48.5253 C.2       13 UNK         0.5000 
     78 O          -0.0433  -25.2280  -49.4645 O.2       13 UNK        -0.5000 
     79 N           0.0447  -23.5443  -47.9447 N.am      14 UNK        -0.5000 
     80 CA          1.3205  -22.9786  -48.3866 C.3       14 UNK         0.1400 
     81 CB          1.9604  -22.1965  -47.2333 C.3       14 UNK        -0.1800 
     82 C           1.1583  -22.0791  -49.6233 C.2       14 UNK         0.5000 
     83 O           2.0714  -22.0043  -50.4466 O.2       14 UNK        -0.5000 
     84 N          -0.0056  -21.4301  -49.7495 N.am      15 UNK        -0.5000 
     85 CA         -0.3712  -20.5297  -50.8410 C.3       15 UNK         0.1400 
     86 CB         -1.4602  -19.5831  -50.3283 C.3       15 UNK        -0.1800 
     87 C          -0.7960  -21.2966  -52.1109 C.2       15 UNK         0.5000 
     88 O          -1.9262  -21.1493  -52.5846 O.2       15 UNK        -0.5000 
     89 N           0.1381  -22.1063  -52.6278 N.am      16 UNK        -0.5000 
     90 CA          0.0609  -22.9136  -53.8489 C.3       16 UNK         0.1400 
     91 CB         -0.0882  -22.0064  -55.0891 C.3       16 UNK        -0.1800 
     92 C          -1.0026  -24.0309  -53.8036 C.2       16 UNK         0.5000 
     93 O          -1.4913  -24.4385  -54.8571 O.2       16 UNK        -0.5000 
     94 N          -1.3398  -24.5149  -52.5975 N.am      17 UNK        -0.5000 
     95 CA         -2.3751  -25.5188  -52.3179 C.3       17 UNK         0.1400 
     96 CB         -1.9609  -26.9054  -52.8522 C.3       17 UNK        -0.1800 
     97 C          -3.7571  -25.0544  -52.8232 C.2       17 UNK         0.5000 
     98 O          -4.3894  -25.7216  -53.6430 O.2       17 UNK        -0.5000 
     99 N          -4.1520  -23.8672  -52.3492 N.am      18 UNK        -0.5000 
    100 CA        -5.3537  -23.0863  -52.6511 C.3       18 UNK         0.1400 
    101 CB        -6.6425  -23.9052  -52.4481 C.3       18 UNK        -0.1800 
    102 C         -5.3478  -22.3820  -54.0211 C.2       18 UNK         0.5000 
    103 O         -6.0855  -21.4052  -54.1740 O.2       18 UNK        -0.5000 
    104 N         -4.5115  -22.8327  -54.9681 N.am      19 UNK        -0.5000 
    105 CA        -4.4870  -22.4050  -56.3728 C.3       19 UNK         0.1400 
    106 CB        -3.4969  -23.2799  -57.1549 C.3       19 UNK        -0.1800 
    107 C         -4.1834  -20.9132  -56.6140 C.2       19 UNK         0.5000 
    108 O         -4.5166  -20.4033  -57.6841 O.2       19 UNK        -0.5000 
    109 N         -3.6004  -20.2257  -55.6220 N.am      20 UNK        -0.5000 
    110 CA        -3.3725  -18.7768  -55.6335 C.3       20 UNK         0.1400 
    111 CB        -2.2577  -18.4398  -54.6273 C.3       20 UNK        -0.1800 
    112 C         -4.6465  -17.9383  -55.3637 C.2       20 UNK         0.5000 
    113 O         -4.5334  -16.7174  -55.2599 O.2       20 UNK        -0.5000 
    114 N         -5.8140  -18.5963  -55.2509 N.am      21 UNK        -0.5000 
    115 CA        -7.1219  -18.0824  -54.8287 C.3       21 UNK         0.1400 
    116 CB        -7.5847  -16.8684  -55.6623 C.3       21 UNK        -0.1800 
    117 C         -7.0873  -17.8234  -53.3151 C.2       21 UNK         0.5000 
    118 O         -6.9614  -16.6800  -52.8758 O.2       21 UNK        -0.5000 
    119 N         -7.1250  -18.9288  -52.5602 N.am      22 UNK        -0.5000 
    120 CA        -6.6834  -19.0312  -51.1591 C.3       22 UNK         0.1400 
    121 C         -5.1323  -19.1172  -51.0503 C.2       22 UNK         0.5000 
    122 N         -4.4726  -19.7499  -52.0140 N.am      22 UNK        -0.7600 
    123 O         -4.5224  -18.6177  -50.1103 O.2       22 UNK        -0.5000 
    124 C124       -7.3387  -17.9965  -50.1998 C.3       23 UNK        -0.0398 
    125 S125       -7.4982  -18.6385  -48.4988 S.3       23 UNK        -0.2404 
    126 C126       -7.7306  -17.1038  -47.5457 C.3       23 UNK        -0.0205 
    127 H127       -4.0327  -16.7061  -52.2073 H         1 UNK         0.0600 
    128 H128       -3.3316  -15.3254  -53.0400 H         1 UNK         0.0600 
    129 H129       -4.8039  -15.1214  -52.0866 H         1 UNK         0.0600 
    130 H130       -3.3845  -17.1171  -50.0754 H         1 UNK         0.3000 
    131 H131       -2.2325  -17.0901  -48.2405 H         1 UNK         0.0600 
    132 H132       -3.5778  -14.8062  -47.9415 H         1 UNK         0.0800 
    133 H133       -2.0270  -14.0495  -48.0540 H         1 UNK         0.0800 
    134 H134       -4.1584  -13.9396  -45.7580 H         1 UNK         0.0800 
    135 H135       -3.5876  -14.5692  -44.2399 H         1 UNK         0.0800 
    136 H136       -5.6568  -15.3558  -47.2186 H         1 UNK         0.1150 
    137 H137       -7.6555  -18.6150  -45.2949 H         1 UNK         0.1150 
    138 H138       -4.3016  -16.7432  -43.3903 H         1 UNK         0.1150 
    139 H139       -6.2846  -18.1257  -42.1218 H         1 UNK         0.0800 
    140 H140       -7.0551  -19.3249  -43.1275 H         1 UNK         0.0800 
    141 H141       -5.4085  -20.3242  -45.0452 H         1 UNK         0.0800 
    142 H142       -4.7308  -21.7276  -44.2636 H         1 UNK         0.0800 
    143 H143       -3.1015  -19.2843  -45.1589 H         1 UNK         0.0600 
    144 H144       -1.5075  -20.1020  -43.8877 H         1 UNK         0.3000 
    145 H145       -0.9677  -23.0766  -42.2582 H         1 UNK         0.0600 
    146 H146        1.4009  -23.1530  -42.9846 H         1 UNK         0.0600 
    147 H147        0.3575  -23.8479  -44.2174 H         1 UNK         0.0600 
    148 H148        1.0097  -22.2301  -44.4309 H         1 UNK         0.0600 
    149 H149        0.5492  -20.6048  -42.6465 H         1 UNK         0.3000 
    150 H150       -1.3238  -18.7136  -40.3260 H         1 UNK         0.0600 
    151 H151        0.1146  -20.0126  -38.7405 H         1 UNK         0.0600 
    152 H152        0.8061  -18.4372  -39.0949 H         1 UNK         0.0600 
    153 H153        1.4705  -19.8823  -39.8549 H         1 UNK         0.0600 
    154 H154        1.1587  -18.1750  -41.6125 H         1 UNK         0.3000 
    155 H155       -0.1876  -17.1144  -44.7640 H         1 UNK         0.0600 
    156 H156        1.1558  -15.6132  -42.4533 H         1 UNK         0.0600 
    157 H157       -0.3221  -15.1339  -43.2792 H         1 UNK         0.0600 
    158 H158        1.2051  -15.1340  -44.1479 H         1 UNK         0.0600 
    159 H159        2.4905  -17.2567  -43.8810 H         1 UNK         0.3000 
    160 H160        3.0803  -20.7026  -44.7280 H         1 UNK         0.0600 
    161 H161        4.8787  -19.6712  -46.0479 H         1 UNK         0.0600 
    162 H162        4.1111  -18.0900  -45.9372 H         1 UNK         0.0600 
    163 H163        3.3379  -19.3872  -46.8421 H         1 UNK         0.0600 
    164 H164        4.6215  -18.5021  -43.6003 H         1 UNK         0.3000 
    165 H165        4.1807  -19.4965  -40.2178 H         1 UNK         0.0600 
    166 H166        6.6561  -19.6081  -40.2933 H         1 UNK         0.0600 
    167 H167        5.9654  -21.0280  -41.0624 H         1 UNK         0.0600 
    168 H168        6.6275  -19.7328  -42.0526 H         1 UNK         0.0600 
    169 H169        5.7799  -17.4736  -41.4607 H         1 UNK         0.3000 
    170 H170        3.2927  -14.9142  -41.4807 H         1 UNK         0.0600 
    171 H171        4.1195  -15.0275  -39.1224 H         1 UNK         0.0600 
    172 H172        5.7540  -15.3237  -39.7027 H         1 UNK         0.0600 
    173 H173        4.9550  -13.7886  -40.0443 H         1 UNK         0.0600 
    174 H174        5.9901  -14.6803  -42.1295 H         1 UNK         0.3000 
    175 H175        6.6181  -14.2863  -44.2088 H         1 UNK         0.0600 
    176 H176        6.1952  -16.9601  -45.6559 H         1 UNK         0.0600 
    177 H177        7.5746  -15.8817  -45.8481 H         1 UNK         0.0600 
    178 H178        7.3007  -16.6920  -44.3142 H         1 UNK         0.0600 
    179 H179        5.1447  -14.9824  -46.6301 H         1 UNK         0.3000 
    180 H180        3.3113  -11.9650  -46.8207 H         1 UNK         0.0600 
    181 H181        5.8407  -12.6858  -48.3950 H         1 UNK         0.0600 
    182 H182        5.5464  -11.1621  -47.5662 H         1 UNK         0.0600 
    183 H183        4.5509  -11.6132  -48.9407 H         1 UNK         0.0600 
    184 H184        3.9097  -14.1808  -48.6140 H         1 UNK         0.3000 
    185 H185        1.9678  -15.2684  -49.3785 H         1 UNK         0.0600 
    186 H186        2.0595  -17.6337  -48.5288 H         1 UNK         0.0600 
    187 H187        3.4784  -16.7418  -48.0014 H         1 UNK         0.0600 
    188 H188        2.1563  -17.0355  -46.8741 H         1 UNK         0.0600 
    189 H189       -0.0862  -15.2127  -47.3256 H         1 UNK         0.3000 
    190 H190       -4.9958  -21.5795  -46.5066 H         1 UNK         0.3000 
    191 H191       -4.1036  -21.1444  -49.1127 H         1 UNK         0.0600 
    192 H192       -5.8246  -22.8911  -49.6746 H         1 UNK         0.0600 
    193 H193       -6.4303  -21.6839  -48.5552 H         1 UNK         0.0600 
    194 H194       -5.9682  -23.2832  -47.9695 H         1 UNK         0.0600 
    195 H195       -3.1590  -23.7018  -46.8702 H         1 UNK         0.3000 
    196 H196       -2.3717  -25.6843  -48.7151 H         1 UNK         0.0600 
    197 H197       -1.1426  -26.6495  -46.7773 H         1 UNK         0.0600 
    198 H198       -2.7507  -26.1245  -46.3037 H         1 UNK         0.0600 
    199 H199       -1.3436  -25.1519  -45.8779 H         1 UNK         0.0600 
    200 H200       -0.4453  -23.0608  -47.2051 H         1 UNK         0.3000 
    201 H201        1.9977  -23.7923  -48.6553 H         1 UNK         0.0600 
    202 H202        1.3111  -21.3904  -46.8922 H         1 UNK         0.0600 
    203 H203        2.9074  -21.7517  -47.5408 H         1 UNK         0.0600 
    204 H204        2.1713  -22.8492  -46.3868 H         1 UNK         0.0600 
    205 H205       -0.7070  -21.5599  -49.0327 H         1 UNK         0.3000 
    206 H206        0.4969  -19.9208  -51.1021 H         1 UNK         0.0600 
    207 H207       -1.1301  -19.0550  -49.4346 H         1 UNK         0.0600 
    208 H208       -1.7207  -18.8335  -51.0763 H         1 UNK         0.0600 
    209 H209       -2.3614  -20.1313  -50.0664 H         1 UNK         0.0600 
    210 H210        1.0139  -22.1668  -52.1166 H         1 UNK         0.3000 
    211 H211        1.0221  -23.4226  -53.9305 H         1 UNK         0.0600 
    212 H212        0.6638  -21.2176  -55.0962 H         1 UNK         0.0600 
    213 H213       -1.0698  -21.5348  -55.1277 H         1 UNK         0.0600 
    214 H214        0.0344  -22.5772  -56.0101 H         1 UNK         0.0600 
    215 H215       -0.9053  -24.1019  -51.7837 H         1 UNK         0.3000 
    216 H216       -2.4494  -25.5968  -51.2327 H         1 UNK         0.0600 
    217 H217       -2.6876  -27.6652  -52.5628 H         1 UNK         0.0600 
    218 H218       -0.9953  -27.2086  -52.4477 H         1 UNK         0.0600 
    219 H219       -1.8890  -26.9214  -53.9400 H         1 UNK         0.0600 
    220 H220       -3.5312  -23.4291  -51.6701 H         1 UNK         0.3000 
    221 H221       -5.3627  -22.2931  -51.9051 H         1 UNK         0.0600 
    222 H222       -6.7632  -24.6727  -53.2129 H         1 UNK         0.0600 
    223 H223       -6.6531  -24.3959  -51.4751 H         1 UNK         0.0600 
    224 H224       -7.5214  -23.2613  -52.4970 H         1 UNK         0.0600 
    225 H225       -3.9201  -23.6200  -54.7356 H         1 UNK         0.3000 
    226 H226       -5.4854  -22.5919  -56.7730 H         1 UNK         0.0600 
    227 H227       -3.5744  -23.0929  -58.2267 H         1 UNK         0.0600 
    228 H228       -2.4666  -23.0745  -56.8648 H         1 UNK         0.0600 
    229 H229       -3.6881  -24.3412  -56.9952 H         1 UNK         0.0600 
    230 H230       -3.3357  -20.7208  -54.7813 H         1 UNK         0.3000 
    231 H231       -3.0150  -18.4952  -56.6260 H         1 UNK         0.0600 
    232 H232       -1.3581  -19.0243  -54.8198 H         1 UNK         0.0600 
    233 H233       -2.5667  -18.6296  -53.6006 H         1 UNK         0.0600 
    234 H234       -1.9773  -17.3878  -54.6902 H         1 UNK         0.0600 
    235 H235       -5.7711  -19.6051  -55.3252 H         1 UNK         0.3000 
    236 H236       -7.8393  -18.8850  -55.0077 H         1 UNK         0.0600 
    237 H237       -7.5495  -17.0873  -56.7294 H         1 UNK         0.0600 
    238 H238       -8.6143  -16.6071  -55.4166 H         1 UNK         0.0600 
    239 H239       -6.9788  -15.9807  -55.4814 H         1 UNK         0.0600 
    240 H240       -7.2298  -19.8150  -53.0386 H         1 UNK         0.3000 
    241 H241       -7.0297  -20.0172  -50.8471 H         1 UNK         0.0600 
    242 H242       -4.9777  -20.1194  -52.8032 H         1 UNK         0.3800 
    243 H243       -3.4720  -19.8869  -51.9545 H         1 UNK         0.3800 
    244 H244       -6.7750  -17.0620  -50.1985 H         1 UNK         0.0800 
    245 H245       -8.3433  -17.7474  -50.5434 H         1 UNK         0.0800 
    246 H246       -7.6408  -16.2315  -48.1943 H         1 UNK         0.0800 
    247 H247       -8.7488  -17.0837  -47.1549 H         1 UNK         0.0800 
@<TRIPOS>BOND
     1    1    2 1    
     2    1  127 1    
     3    1  128 1    
     4    1  129 1    
     5    2    3 2    
     6    2    4 am   BACKBONE|DICT|INTERRES
     7    4    5 1    
     8    4  130 1    
     9    5    6 1    
    10    5   65 1    
    11    5  131 1    
    12    6    7 1    
    13    6  132 1    
    14    6  133 1    
    15    7    8 1    
    16    8    9 1    
    17    8  134 1    
    18    8  135 1    
    19    9   10 ar   
    20    9   14 ar   
    21   10   11 ar   
    22   10  136 1    
    23   11   12 ar   
    24   11  126 1    
    25   12   13 ar   
    26   12  137 1    
    27   13   14 ar   
    28   13   15 1    
    29   14  138 1    
    30   15   16 1    
    31   15  139 1    
    32   15  140 1    
    33   16   17 1    
    34   17   18 1    
    35   17  141 1    
    36   17  142 1    
    37   18   19 1    
    38   18   67 1    
    39   18  143 1    
    40   19   20 am   BACKBONE|DICT|INTERRES
    41   19  144 1    
    42   20   21 2    
    43   20   22 1    
    44   22   23 1    
    45   22   24 1    
    46   22  145 1    
    47   23  146 1    
    48   23  147 1    
    49   23  148 1    
    50   24   25 am   BACKBONE|DICT|INTERRES
    51   24  149 1    
    52   25   26 2    
    53   25   27 1    
    54   27   28 1    
    55   27   29 1    
    56   27  150 1    
    57   28  151 1    
    58   28  152 1    
    59   28  153 1    
    60   29   30 am   BACKBONE|DICT|INTERRES
    61   29  154 1    
    62   30   31 2    
    63   30   32 1    
    64   32   33 1    
    65   32   34 1    
    66   32  155 1    
    67   33  156 1    
    68   33  157 1    
    69   33  158 1    
    70   34   35 am   BACKBONE|DICT|INTERRES
    71   34  159 1    
    72   35   36 2    
    73   35   37 1    
    74   37   38 1    
    75   37   39 1    
    76   37  160 1    
    77   38  161 1    
    78   38  162 1    
    79   38  163 1    
    80   39   40 am   BACKBONE|DICT|INTERRES
    81   39  164 1    
    82   40   41 2    
    83   40   42 1    
    84   42   43 1    
    85   42   44 1    
    86   42  165 1    
    87   43  166 1    
    88   43  167 1    
    89   43  168 1    
    90   44   45 am   BACKBONE|DICT|INTERRES
    91   44  169 1    
    92   45   46 2    
    93   45   47 1    
    94   47   48 1    
    95   47   49 1    
    96   47  170 1    
    97   48  171 1    
    98   48  172 1    
    99   48  173 1    
   100   49   50 am   BACKBONE|DICT|INTERRES
   101   49  174 1    
   102   50   51 2    
   103   50   52 1    
   104   52   53 1    
   105   52   54 1    
   106   52  175 1    
   107   53  176 1    
   108   53  177 1    
   109   53  178 1    
   110   54   55 am   BACKBONE|DICT|INTERRES
   111   54  179 1    
   112   55   56 2    
   113   55   57 1    
   114   57   58 1    
   115   57   59 1    
   116   57  180 1    
   117   58  181 1    
   118   58  182 1    
   119   58  183 1    
   120   59   60 am   BACKBONE|DICT|INTERRES
   121   59  184 1    
   122   60   61 2    
   123   60   62 1    
   124   62   63 1    
   125   62   64 1    
   126   62  185 1    
   127   63  186 1    
   128   63  187 1    
   129   63  188 1    
   130   64   65 am   BACKBONE|DICT|INTERRES
   131   64  189 1    
   132   65   66 2    
   133   67   68 2    
   134   67   69 am   BACKBONE|DICT|INTERRES
   135   69   70 1    
   136   69  190 1    
   137   70   71 1    
   138   70   72 1    
   139   70  191 1    
   140   71  192 1    
   141   71  193 1    
   142   71  194 1    
   143   72   73 2    
   144   72   74 am   BACKBONE|DICT|INTERRES
   145   74   75 1    
   146   74  195 1    
   147   75   76 1    
   148   75   77 1    
   149   75  196 1    
   150   76  197 1    
   151   76  198 1    
   152   76  199 1    
   153   77   78 2    
   154   77   79 am   BACKBONE|DICT|INTERRES
   155   79   80 1    
   156   79  200 1    
   157   80   81 1    
   158   80   82 1    
   159   80  201 1    
   160   81  202 1    
   161   81  203 1    
   162   81  204 1    
   163   82   83 2    
   164   82   84 am   BACKBONE|DICT|INTERRES
   165   84   85 1    
   166   84  205 1    
   167   85   86 1    
   168   85   87 1    
   169   85  206 1    
   170   86  207 1    
   171   86  208 1    
   172   86  209 1    
   173   87   88 2    
   174   87   89 am   BACKBONE|DICT|INTERRES
   175   89   90 1    
   176   89  210 1    
   177   90   91 1    
   178   90   92 1    
   179   90  211 1    
   180   91  212 1    
   181   91  213 1    
   182   91  214 1    
   183   92   93 2    
   184   92   94 am   BACKBONE|DICT|INTERRES
   185   94   95 1    
   186   94  215 1    
   187   95   96 1    
   188   95   97 1    
   189   95  216 1    
   190   96  217 1    
   191   96  218 1    
   192   96  219 1    
   193   97   98 2    
   194   97   99 am   BACKBONE|DICT|INTERRES
   195   99  100 1    
   196   99  220 1    
   197  100  101 1    
   198  100  102 1    
   199  100  221 1    
   200  101  222 1    
   201  101  223 1    
   202  101  224 1    
   203  102  103 2    
   204  102  104 am   BACKBONE|DICT|INTERRES
   205  104  105 1    
   206  104  225 1    
   207  105  106 1    
   208  105  107 1    
   209  105  226 1    
   210  106  227 1    
   211  106  228 1    
   212  106  229 1    
   213  107  108 2    
   214  107  109 am   BACKBONE|DICT|INTERRES
   215  109  110 1    
   216  109  230 1    
   217  110  111 1    
   218  110  112 1    
   219  110  231 1    
   220  111  232 1    
   221  111  233 1    
   222  111  234 1    
   223  112  113 2    
   224  112  114 am   BACKBONE|DICT|INTERRES
   225  114  115 1    
   226  114  235 1    
   227  115  116 1    
   228  115  117 1    
   229  115  236 1    
   230  116  237 1    
   231  116  238 1    
   232  116  239 1    
   233  117  118 2    
   234  117  119 am   BACKBONE|DICT|INTERRES
   235  119  120 1    
   236  119  240 1    
   237  120  121 1    
   238  120  124 1    
   239  120  241 1    
   240  121  122 am   BACKBONE|DICT|INTERRES
   241  121  123 2    
   242  122  242 1    
   243  122  243 1    
   244  124  125 1    
   245  124  244 1    
   246  124  245 1    
   247  125  126 1    
   248  126  246 1    
   249  126  247 1    
@<TRIPOS>SUBSTRUCTURE
     1 UNK         1 GROUP             0       ****    0 ROOT    
