@<TRIPOS>MOLECULE
3R540
247   249    1
SMALL
USER_CHARGES


@<TRIPOS>ATOM
      1 CA          5.4534  -13.0229  -46.6334 C.3       0 UNK        -0.1800 
      2 C           4.2358  -13.8386  -47.0428 C.2       0 UNK         0.5000 
      3 O           4.1307  -15.0065  -46.6760 O.2       0 UNK        -0.5000 
      4 N           3.3150  -13.2267  -47.7967 N.am      1 UNK        -0.5000 
      5 CA          2.0962  -13.8669  -48.3148 C.3       1 UNK         0.1400 
      6 C6          1.4862  -13.0746  -49.4981 C.3       23 UNK        -0.0398 
      7 S7          2.7134  -12.7524  -50.8154 S.3       23 UNK        -0.2404 
      8 C8          1.9522  -13.5277  -52.2795 C.3       23 UNK        -0.0205 
      9 C9          1.7226  -15.0334  -52.1704 C.ar      23 UNK        -0.0193 
     10 C10         0.5920  -15.5858  -52.7796 C.ar      23 UNK        -0.1150 
     11 C11         0.3580  -16.9618  -52.7382 C.ar      23 UNK        -0.0193 
     12 C12         1.2584  -17.7908  -52.0655 C.ar      23 UNK        -0.1150 
     13 C13         2.3869  -17.2555  -51.4399 C.ar      23 UNK        -0.0193 
     14 C14         2.6256  -15.8793  -51.5123 C.ar      23 UNK        -0.1150 
     15 C15         3.3287  -18.1712  -50.6696 C.3       23 UNK        -0.0205 
     16 S16         3.2721  -17.9184  -48.8607 S.3       23 UNK        -0.2404 
     17 C17         1.4880  -17.7690  -48.5023 C.3       23 UNK        -0.0398 
     18 CA          0.7561  -19.1307  -48.4105 C.3       11 UNK         0.1400 
     19 N           1.0935  -19.8353  -47.1761 N.am      11 UNK        -0.5000 
     20 C           1.3157  -21.1500  -47.0696 C.2       10 UNK         0.5000 
     21 O           1.2288  -21.9444  -48.0064 O.2       10 UNK        -0.5000 
     22 CA          1.7283  -21.6641  -45.6778 C.3       10 UNK         0.1400 
     23 CB          3.2016  -21.3365  -45.3870 C.3       10 UNK        -0.1800 
     24 N           0.8919  -21.1172  -44.6112 N.am      10 UNK        -0.5000 
     25 C          -0.3558  -21.5272  -44.3467 C.2       9 UNK         0.5000 
     26 O          -0.9150  -22.4480  -44.9429 O.2       9 UNK        -0.5000 
     27 CA         -1.1109  -20.7828  -43.2281 C.3       9 UNK         0.1400 
     28 CB         -0.8006  -21.4058  -41.8589 C.3       9 UNK        -0.1800 
     29 N          -0.8293  -19.3464  -43.1952 N.am      9 UNK        -0.5000 
     30 C          -1.1241  -18.4915  -44.1857 C.2       8 UNK         0.5000 
     31 O          -1.7076  -18.8161  -45.2168 O.2       8 UNK        -0.5000 
     32 CA         -0.6527  -17.0369  -44.0224 C.3       8 UNK         0.1400 
     33 CB         -1.6449  -16.2399  -43.1622 C.3       8 UNK        -0.1800 
     34 N           0.6869  -16.9419  -43.4442 N.am      8 UNK        -0.5000 
     35 C           1.8000  -17.4393  -44.0022 C.2       7 UNK         0.5000 
     36 O           1.8235  -18.0078  -45.0922 O.2       7 UNK        -0.5000 
     37 CA          3.0854  -17.3527  -43.1628 C.3       7 UNK         0.1400 
     38 CB          3.6828  -15.9379  -43.1925 C.3       7 UNK        -0.1800 
     39 N           2.8424  -17.7524  -41.7776 N.am      7 UNK        -0.5000 
     40 C           2.5798  -19.0078  -41.3886 C.2       6 UNK         0.5000 
     41 O           2.5568  -19.9704  -42.1556 O.2       6 UNK        -0.5000 
     42 CA          2.2615  -19.2136  -39.8957 C.3       6 UNK         0.1400 
     43 CB          3.5542  -19.4171  -39.0917 C.3       6 UNK        -0.1800 
     44 N           1.5038  -18.1003  -39.3192 N.am      6 UNK        -0.5000 
     45 C           0.2333  -17.8094  -39.6331 C.2       5 UNK         0.5000 
     46 O          -0.4394  -18.4611  -40.4305 O.2       5 UNK        -0.5000 
     47 CA         -0.3648  -16.5430  -38.9911 C.3       5 UNK         0.1400 
     48 CB         -0.8643  -16.8388  -37.5690 C.3       5 UNK        -0.1800 
     49 N           0.5689  -15.4117  -38.9580 N.am      5 UNK        -0.5000 
     50 C           1.1165  -14.8570  -40.0462 C.2       4 UNK         0.5000 
     51 O           0.9072  -15.2603  -41.1946 O.2       4 UNK        -0.5000 
     52 CA          2.0859  -13.6884  -39.8242 C.3       4 UNK         0.1400 
     53 CB          3.4136  -14.1761  -39.2162 C.3       4 UNK        -0.1800 
     54 N           2.3321  -13.0871  -41.1266 N.am      4 UNK        -0.5000 
     55 C           2.7651  -11.8524  -41.3872 C.2       3 UNK         0.5000 
     56 O           3.0583  -11.0312  -40.5175 O.2       3 UNK        -0.5000 
     57 CA          2.8992  -11.4721  -42.8770 C.3       3 UNK         0.1400 
     58 CB          4.3760  -11.4922  -43.3010 C.3       3 UNK        -0.1800 
     59 N           2.1402  -12.3405  -43.7873 N.am      3 UNK        -0.5000 
     60 C           0.8050  -12.3289  -43.9216 C.2       2 UNK         0.5000 
     61 O           0.0659  -11.5953  -43.2642 O.2       2 UNK        -0.5000 
     62 CA          0.2191  -13.2662  -44.9943 C.3       2 UNK         0.1400 
     63 CB         -1.2577  -12.9622  -45.3250 C.3       2 UNK        -0.1800 
     64 N           1.0493  -13.2078  -46.1959 N.am      2 UNK        -0.5000 
     65 C           1.0458  -14.0896  -47.2040 C.2       1 UNK         0.5000 
     66 O           0.2747  -15.0469  -47.2744 O.2       1 UNK        -0.5000 
     67 C          -0.7769  -19.0079  -48.5409 C.2       11 UNK         0.5000 
     68 O          -1.4089  -19.9563  -49.0054 O.2       11 UNK        -0.5000 
     69 N          -1.3396  -17.8438  -48.1740 N.am      12 UNK        -0.5000 
     70 CA         -2.7083  -17.3942  -48.4615 C.3       12 UNK         0.1400 
     71 CB         -2.9662  -16.0795  -47.7087 C.3       12 UNK        -0.1800 
     72 C          -3.8488  -18.3949  -48.1852 C.2       12 UNK         0.5000 
     73 O          -4.7991  -18.4550  -48.9664 O.2       12 UNK        -0.5000 
     74 N          -3.7415  -19.1709  -47.0995 N.am      13 UNK        -0.5000 
     75 CA         -4.7285  -20.1722  -46.6876 C.3       13 UNK         0.1400 
     76 CB         -4.3767  -20.6821  -45.2846 C.3       13 UNK        -0.1800 
     77 C          -4.8677  -21.3601  -47.6595 C.2       13 UNK         0.5000 
     78 O          -5.8982  -22.0349  -47.6339 O.2       13 UNK        -0.5000 
     79 N          -3.8579  -21.5914  -48.5122 N.am      14 UNK        -0.5000 
     80 CA         -3.8602  -22.6455  -49.5277 C.3       14 UNK         0.1400 
     81 CB         -2.4406  -22.8240  -50.0846 C.3       14 UNK        -0.1800 
     82 C          -4.8658  -22.4016  -50.6704 C.2       14 UNK         0.5000 
     83 O          -5.1662  -23.3435  -51.4021 O.2       14 UNK        -0.5000 
     84 N          -5.3918  -21.1712  -50.7905 N.am      15 UNK        -0.5000 
     85 CA         -6.3724  -20.7513  -51.7965 C.3       15 UNK         0.1400 
     86 CB         -6.6905  -19.2616  -51.5950 C.3       15 UNK        -0.1800 
     87 C          -7.6793  -21.5662  -51.7987 C.2       15 UNK         0.5000 
     88 O          -8.3352  -21.6377  -52.8383 O.2       15 UNK        -0.5000 
     89 N          -8.0226  -22.1788  -50.6561 N.am      16 UNK        -0.5000 
     90 CA         -9.1334  -23.1123  -50.4777 C.3       16 UNK         0.1400 
     91 CB         -9.2307  -23.4805  -48.9875 C.3       16 UNK        -0.1800 
     92 C          -8.9656  -24.3613  -51.3677 C.2       16 UNK         0.5000 
     93 O          -8.2732  -25.3044  -50.9824 O.2       16 UNK        -0.5000 
     94 N          -9.5686  -24.3052  -52.5637 N.am      17 UNK        -0.5000 
     95 CA         -9.5111  -25.2917  -53.6490 C.3       17 UNK         0.1400 
     96 CB        -10.1313  -26.6347  -53.2074 C.3       17 UNK        -0.1800 
     97 C          -8.1086  -25.4610  -54.2784 C.2       17 UNK         0.5000 
     98 O          -7.8641  -26.4811  -54.9248 O.2       17 UNK        -0.5000 
     99 N          -7.2290  -24.4588  -54.1025 N.am      18 UNK        -0.5000 
    100 CA        -5.8333  -24.4036  -54.5639 C.3       18 UNK         0.1400 
    101 CB        -5.7813  -24.2085  -56.0924 C.3       18 UNK        -0.1800 
    102 C         -5.0175  -25.6244  -54.0830 C.2       18 UNK         0.5000 
    103 O         -4.5007  -26.3985  -54.8912 O.2       18 UNK        -0.5000 
    104 N         -4.9711  -25.7953  -52.7571 N.am      19 UNK        -0.5000 
    105 CA        -4.4398  -26.9661  -52.0576 C.3       19 UNK         0.1400 
    106 CB        -4.8576  -26.8800  -50.5812 C.3       19 UNK        -0.1800 
    107 C         -2.9137  -27.1449  -52.1691 C.2       19 UNK         0.5000 
    108 O         -2.4250  -28.2596  -51.9772 O.2       19 UNK        -0.5000 
    109 N         -2.1914  -26.0593  -52.4664 N.am      20 UNK        -0.5000 
    110 CA        -0.7355  -26.0397  -52.6211 C.3       20 UNK         0.1400 
    111 CB        -0.0462  -26.0621  -51.2434 C.3       20 UNK        -0.1800 
    112 C         -0.2684  -24.8255  -53.4367 C.2       20 UNK         0.5000 
    113 O          0.7160  -24.9301  -54.1691 O.2       20 UNK        -0.5000 
    114 N         -0.9780  -23.7005  -53.3039 N.am      21 UNK        -0.5000 
    115 CA        -0.7141  -22.4341  -53.9729 C.3       21 UNK         0.1400 
    116 CB         0.3881  -21.6684  -53.2133 C.3       21 UNK        -0.1800 
    117 C         -2.0228  -21.6329  -54.0083 C.2       21 UNK         0.5000 
    118 O         -3.0186  -22.0615  -53.4202 O.2       21 UNK        -0.5000 
    119 N         -1.9849  -20.4763  -54.6786 N.am      22 UNK        -0.5000 
    120 CA        -3.0558  -19.4618  -54.7050 C.3       22 UNK         0.1400 
    121 C         -4.3381  -19.8840  -55.4882 C.2       22 UNK         0.5000 
    122 N         -4.2881  -20.9051  -56.3345 N.am      22 UNK        -0.7600 
    123 O         -5.3871  -19.2601  -55.3546 O.2       22 UNK        -0.5000 
    124 C124       -3.3935  -18.8952  -53.2924 C.3       23 UNK        -0.0398 
    125 S125       -2.0018  -18.3179  -52.2545 S.3       23 UNK        -0.2404 
    126 C126       -0.8506  -17.5581  -53.4407 C.3       23 UNK        -0.0205 
    127 H127        6.3311  -13.3609  -47.1842 H         1 UNK         0.0600 
    128 H128        5.6511  -13.1486  -45.5691 H         1 UNK         0.0600 
    129 H129        5.3135  -11.9596  -46.8304 H         1 UNK         0.0600 
    130 H130        3.4733  -12.2766  -48.1017 H         1 UNK         0.3000 
    131 H131        2.3750  -14.8542  -48.6887 H         1 UNK         0.0600 
    132 H132        0.6348  -13.6153  -49.9158 H         1 UNK         0.0800 
    133 H133        1.0987  -12.1122  -49.1592 H         1 UNK         0.0800 
    134 H134        2.5949  -13.3424  -53.1409 H         1 UNK         0.0800 
    135 H135        1.0114  -13.0138  -52.4831 H         1 UNK         0.0800 
    136 H136       -0.1022  -14.9429  -53.3026 H         1 UNK         0.1150 
    137 H137        1.0692  -18.8541  -52.0210 H         1 UNK         0.1150 
    138 H138        3.5070  -15.4704  -51.0389 H         1 UNK         0.1150 
    139 H139        3.1018  -19.2175  -50.8803 H         1 UNK         0.0800 
    140 H140        4.3502  -18.0085  -51.0158 H         1 UNK         0.0800 
    141 H141        1.0289  -17.1087  -49.2382 H         1 UNK         0.0800 
    142 H142        1.4077  -17.2466  -47.5507 H         1 UNK         0.0800 
    143 H143        1.0777  -19.7258  -49.2680 H         1 UNK         0.0600 
    144 H144        1.2208  -19.2509  -46.3533 H         1 UNK         0.3000 
    145 H145        1.6227  -22.7512  -45.6781 H         1 UNK         0.0600 
    146 H146        3.5166  -21.7557  -44.4312 H         1 UNK         0.0600 
    147 H147        3.8529  -21.7521  -46.1568 H         1 UNK         0.0600 
    148 H148        3.3789  -20.2610  -45.3529 H         1 UNK         0.0600 
    149 H149        1.2892  -20.3715  -44.0540 H         1 UNK         0.3000 
    150 H150       -2.1792  -20.9036  -43.4071 H         1 UNK         0.0600 
    151 H151       -1.0196  -22.4743  -41.8576 H         1 UNK         0.0600 
    152 H152       -1.4037  -20.9514  -41.0729 H         1 UNK         0.0600 
    153 H153        0.2484  -21.2862  -41.5894 H         1 UNK         0.0600 
    154 H154       -0.4138  -18.9849  -42.3424 H         1 UNK         0.3000 
    155 H155       -0.6186  -16.5855  -45.0162 H         1 UNK         0.0600 
    156 H156       -1.7310  -16.6565  -42.1582 H         1 UNK         0.0600 
    157 H157       -2.6400  -16.2477  -43.6087 H         1 UNK         0.0600 
    158 H158       -1.3413  -15.1985  -43.0615 H         1 UNK         0.0600 
    159 H159        0.7582  -16.4735  -42.5435 H         1 UNK         0.3000 
    160 H160        3.8179  -18.0391  -43.5933 H         1 UNK         0.0600 
    161 H161        4.5673  -15.8660  -42.5594 H         1 UNK         0.0600 
    162 H162        2.9694  -15.1864  -42.8611 H         1 UNK         0.0600 
    163 H163        3.9882  -15.6725  -44.2029 H         1 UNK         0.0600 
    164 H164        2.7944  -17.0153  -41.0913 H         1 UNK         0.3000 
    165 H165        1.6584  -20.1196  -39.8063 H         1 UNK         0.0600 
    166 H166        3.3376  -19.6388  -38.0465 H         1 UNK         0.0600 
    167 H167        4.1316  -20.2538  -39.4873 H         1 UNK         0.0600 
    168 H168        4.1929  -18.5335  -39.1227 H         1 UNK         0.0600 
    169 H169        1.9854  -17.5111  -38.6562 H         1 UNK         0.3000 
    170 H170       -1.2233  -16.2447  -39.5966 H         1 UNK         0.0600 
    171 H171       -1.5730  -17.6681  -37.5691 H         1 UNK         0.0600 
    172 H172       -0.0454  -17.1066  -36.9003 H         1 UNK         0.0600 
    173 H173       -1.3769  -15.9758  -37.1437 H         1 UNK         0.0600 
    174 H174        0.7894  -15.0341  -38.0477 H         1 UNK         0.3000 
    175 H175        1.6116  -12.9579  -39.1658 H         1 UNK         0.0600 
    176 H176        3.2569  -14.6365  -38.2402 H         1 UNK         0.0600 
    177 H177        4.1092  -13.3493  -39.0726 H         1 UNK         0.0600 
    178 H178        3.9014  -14.9134  -39.8552 H         1 UNK         0.0600 
    179 H179        2.0384  -13.6745  -41.8957 H         1 UNK         0.3000 
    180 H180        2.5270  -10.4512  -42.9860 H         1 UNK         0.0600 
    181 H181        4.8002  -12.4948  -43.2323 H         1 UNK         0.0600 
    182 H182        4.9750  -10.8388  -42.6652 H         1 UNK         0.0600 
    183 H183        4.4968  -11.1421  -44.3262 H         1 UNK         0.0600 
    184 H184        2.6797  -12.9877  -44.3427 H         1 UNK         0.3000 
    185 H185        0.2839  -14.2759  -44.5880 H         1 UNK         0.0600 
    186 H186       -1.8774  -12.9993  -44.4283 H         1 UNK         0.0600 
    187 H187       -1.3716  -11.9712  -45.7653 H         1 UNK         0.0600 
    188 H188       -1.6713  -13.6888  -46.0237 H         1 UNK         0.0600 
    189 H189        1.7049  -12.4398  -46.2365 H         1 UNK         0.3000 
    190 H190       -0.7442  -17.1362  -47.7635 H         1 UNK         0.3000 
    191 H191       -2.7413  -17.1754  -49.5299 H         1 UNK         0.0600 
    192 H192       -2.8262  -16.1998  -46.6336 H         1 UNK         0.0600 
    193 H193       -3.9845  -15.7238  -47.8712 H         1 UNK         0.0600 
    194 H194       -2.2944  -15.2921  -48.0498 H         1 UNK         0.0600 
    195 H195       -2.9230  -19.0626  -46.5005 H         1 UNK         0.3000 
    196 H196       -5.7001  -19.6769  -46.6362 H         1 UNK         0.0600 
    197 H197       -5.1444  -21.3597  -44.9090 H         1 UNK         0.0600 
    198 H198       -4.2875  -19.8620  -44.5719 H         1 UNK         0.0600 
    199 H199       -3.4343  -21.2291  -45.2968 H         1 UNK         0.0600 
    200 H200       -3.0491  -20.9749  -48.5033 H         1 UNK         0.3000 
    201 H201       -4.1479  -23.5781  -49.0380 H         1 UNK         0.0600 
    202 H202       -1.7140  -22.9769  -49.2861 H         1 UNK         0.0600 
    203 H203       -2.1250  -21.9557  -50.6646 H         1 UNK         0.0600 
    204 H204       -2.3922  -23.6933  -50.7390 H         1 UNK         0.0600 
    205 H205       -5.0887  -20.4591  -50.1379 H         1 UNK         0.3000 
    206 H206       -5.9118  -20.8833  -52.7773 H         1 UNK         0.0600 
    207 H207       -5.7906  -18.6488  -51.6241 H         1 UNK         0.0600 
    208 H208       -7.3569  -18.8953  -52.3771 H         1 UNK         0.0600 
    209 H209       -7.1780  -19.0836  -50.6356 H         1 UNK         0.0600 
    210 H210       -7.3969  -22.0808  -49.8685 H         1 UNK         0.3000 
    211 H211      -10.0574  -22.6034  -50.7598 H         1 UNK         0.0600 
    212 H212       -8.3079  -23.9336  -48.6219 H         1 UNK         0.0600 
    213 H213      -10.0390  -24.1917  -48.8129 H         1 UNK         0.0600 
    214 H214       -9.4337  -22.6005  -48.3768 H         1 UNK         0.0600 
    215 H215      -10.0483  -23.4458  -52.7982 H         1 UNK         0.3000 
    216 H216      -10.1412  -24.8912  -54.4444 H         1 UNK         0.0600 
    217 H217      -10.2541  -27.3078  -54.0566 H         1 UNK         0.0600 
    218 H218      -11.1179  -26.4887  -52.7676 H         1 UNK         0.0600 
    219 H219       -9.5086  -27.1478  -52.4740 H         1 UNK         0.0600 
    220 H220       -7.5403  -23.6639  -53.5592 H         1 UNK         0.3000 
    221 H221       -5.3835  -23.5211  -54.1060 H         1 UNK         0.0600 
    222 H222       -4.7528  -24.0841  -56.4328 H         1 UNK         0.0600 
    223 H223       -6.3336  -23.3183  -56.3930 H         1 UNK         0.0600 
    224 H224       -6.2031  -25.0605  -56.6266 H         1 UNK         0.0600 
    225 H225       -5.3531  -25.0553  -52.1718 H         1 UNK         0.3000 
    226 H226       -4.9041  -27.8526  -52.4941 H         1 UNK         0.0600 
    227 H227       -4.5113  -27.7506  -50.0225 H         1 UNK         0.0600 
    228 H228       -4.4446  -25.9929  -50.0993 H         1 UNK         0.0600 
    229 H229       -5.9425  -26.8405  -50.4804 H         1 UNK         0.0600 
    230 H230       -2.6923  -25.2103  -52.6808 H         1 UNK         0.3000 
    231 H231       -0.4340  -26.9301  -53.1772 H         1 UNK         0.0600 
    232 H232       -0.2842  -26.9716  -50.6918 H         1 UNK         0.0600 
    233 H233       -0.3453  -25.2112  -50.6304 H         1 UNK         0.0600 
    234 H234        1.0388  -26.0250  -51.3491 H         1 UNK         0.0600 
    235 H235       -1.7961  -23.6652  -52.7123 H         1 UNK         0.3000 
    236 H236       -0.3989  -22.6218  -55.0014 H         1 UNK         0.0600 
    237 H237        1.3068  -22.2517  -53.1500 H         1 UNK         0.0600 
    238 H238        0.6382  -20.7324  -53.7132 H         1 UNK         0.0600 
    239 H239        0.0772  -21.4245  -52.1961 H         1 UNK         0.0600 
    240 H240       -1.1385  -20.2281  -55.1692 H         1 UNK         0.3000 
    241 H241       -2.6573  -18.6363  -55.2943 H         1 UNK         0.0600 
    242 H242       -5.1138  -21.1567  -56.8532 H         1 UNK         0.3800 
    243 H243       -3.4319  -21.4177  -56.4685 H         1 UNK         0.3800 
    244 H244       -3.9112  -19.6554  -52.7111 H         1 UNK         0.0800 
    245 H245       -4.0891  -18.0595  -53.3825 H         1 UNK         0.0800 
    246 H246       -0.4936  -18.3010  -54.1522 H         1 UNK         0.0800 
    247 H247       -1.3803  -16.7973  -54.0161 H         1 UNK         0.0800 
@<TRIPOS>BOND
     1    1    2 1    
     2    1  127 1    
     3    1  128 1    
     4    1  129 1    
     5    2    3 2    
     6    2    4 am   BACKBONE|DICT|INTERRES
     7    4    5 1    
     8    4  130 1    
     9    5    6 1    
    10    5   65 1    
    11    5  131 1    
    12    6    7 1    
    13    6  132 1    
    14    6  133 1    
    15    7    8 1    
    16    8    9 1    
    17    8  134 1    
    18    8  135 1    
    19    9   10 ar   
    20    9   14 ar   
    21   10   11 ar   
    22   10  136 1    
    23   11   12 ar   
    24   11  126 1    
    25   12   13 ar   
    26   12  137 1    
    27   13   14 ar   
    28   13   15 1    
    29   14  138 1    
    30   15   16 1    
    31   15  139 1    
    32   15  140 1    
    33   16   17 1    
    34   17   18 1    
    35   17  141 1    
    36   17  142 1    
    37   18   19 1    
    38   18   67 1    
    39   18  143 1    
    40   19   20 am   BACKBONE|DICT|INTERRES
    41   19  144 1    
    42   20   21 2    
    43   20   22 1    
    44   22   23 1    
    45   22   24 1    
    46   22  145 1    
    47   23  146 1    
    48   23  147 1    
    49   23  148 1    
    50   24   25 am   BACKBONE|DICT|INTERRES
    51   24  149 1    
    52   25   26 2    
    53   25   27 1    
    54   27   28 1    
    55   27   29 1    
    56   27  150 1    
    57   28  151 1    
    58   28  152 1    
    59   28  153 1    
    60   29   30 am   BACKBONE|DICT|INTERRES
    61   29  154 1    
    62   30   31 2    
    63   30   32 1    
    64   32   33 1    
    65   32   34 1    
    66   32  155 1    
    67   33  156 1    
    68   33  157 1    
    69   33  158 1    
    70   34   35 am   BACKBONE|DICT|INTERRES
    71   34  159 1    
    72   35   36 2    
    73   35   37 1    
    74   37   38 1    
    75   37   39 1    
    76   37  160 1    
    77   38  161 1    
    78   38  162 1    
    79   38  163 1    
    80   39   40 am   BACKBONE|DICT|INTERRES
    81   39  164 1    
    82   40   41 2    
    83   40   42 1    
    84   42   43 1    
    85   42   44 1    
    86   42  165 1    
    87   43  166 1    
    88   43  167 1    
    89   43  168 1    
    90   44   45 am   BACKBONE|DICT|INTERRES
    91   44  169 1    
    92   45   46 2    
    93   45   47 1    
    94   47   48 1    
    95   47   49 1    
    96   47  170 1    
    97   48  171 1    
    98   48  172 1    
    99   48  173 1    
   100   49   50 am   BACKBONE|DICT|INTERRES
   101   49  174 1    
   102   50   51 2    
   103   50   52 1    
   104   52   53 1    
   105   52   54 1    
   106   52  175 1    
   107   53  176 1    
   108   53  177 1    
   109   53  178 1    
   110   54   55 am   BACKBONE|DICT|INTERRES
   111   54  179 1    
   112   55   56 2    
   113   55   57 1    
   114   57   58 1    
   115   57   59 1    
   116   57  180 1    
   117   58  181 1    
   118   58  182 1    
   119   58  183 1    
   120   59   60 am   BACKBONE|DICT|INTERRES
   121   59  184 1    
   122   60   61 2    
   123   60   62 1    
   124   62   63 1    
   125   62   64 1    
   126   62  185 1    
   127   63  186 1    
   128   63  187 1    
   129   63  188 1    
   130   64   65 am   BACKBONE|DICT|INTERRES
   131   64  189 1    
   132   65   66 2    
   133   67   68 2    
   134   67   69 am   BACKBONE|DICT|INTERRES
   135   69   70 1    
   136   69  190 1    
   137   70   71 1    
   138   70   72 1    
   139   70  191 1    
   140   71  192 1    
   141   71  193 1    
   142   71  194 1    
   143   72   73 2    
   144   72   74 am   BACKBONE|DICT|INTERRES
   145   74   75 1    
   146   74  195 1    
   147   75   76 1    
   148   75   77 1    
   149   75  196 1    
   150   76  197 1    
   151   76  198 1    
   152   76  199 1    
   153   77   78 2    
   154   77   79 am   BACKBONE|DICT|INTERRES
   155   79   80 1    
   156   79  200 1    
   157   80   81 1    
   158   80   82 1    
   159   80  201 1    
   160   81  202 1    
   161   81  203 1    
   162   81  204 1    
   163   82   83 2    
   164   82   84 am   BACKBONE|DICT|INTERRES
   165   84   85 1    
   166   84  205 1    
   167   85   86 1    
   168   85   87 1    
   169   85  206 1    
   170   86  207 1    
   171   86  208 1    
   172   86  209 1    
   173   87   88 2    
   174   87   89 am   BACKBONE|DICT|INTERRES
   175   89   90 1    
   176   89  210 1    
   177   90   91 1    
   178   90   92 1    
   179   90  211 1    
   180   91  212 1    
   181   91  213 1    
   182   91  214 1    
   183   92   93 2    
   184   92   94 am   BACKBONE|DICT|INTERRES
   185   94   95 1    
   186   94  215 1    
   187   95   96 1    
   188   95   97 1    
   189   95  216 1    
   190   96  217 1    
   191   96  218 1    
   192   96  219 1    
   193   97   98 2    
   194   97   99 am   BACKBONE|DICT|INTERRES
   195   99  100 1    
   196   99  220 1    
   197  100  101 1    
   198  100  102 1    
   199  100  221 1    
   200  101  222 1    
   201  101  223 1    
   202  101  224 1    
   203  102  103 2    
   204  102  104 am   BACKBONE|DICT|INTERRES
   205  104  105 1    
   206  104  225 1    
   207  105  106 1    
   208  105  107 1    
   209  105  226 1    
   210  106  227 1    
   211  106  228 1    
   212  106  229 1    
   213  107  108 2    
   214  107  109 am   BACKBONE|DICT|INTERRES
   215  109  110 1    
   216  109  230 1    
   217  110  111 1    
   218  110  112 1    
   219  110  231 1    
   220  111  232 1    
   221  111  233 1    
   222  111  234 1    
   223  112  113 2    
   224  112  114 am   BACKBONE|DICT|INTERRES
   225  114  115 1    
   226  114  235 1    
   227  115  116 1    
   228  115  117 1    
   229  115  236 1    
   230  116  237 1    
   231  116  238 1    
   232  116  239 1    
   233  117  118 2    
   234  117  119 am   BACKBONE|DICT|INTERRES
   235  119  120 1    
   236  119  240 1    
   237  120  121 1    
   238  120  124 1    
   239  120  241 1    
   240  121  122 am   BACKBONE|DICT|INTERRES
   241  121  123 2    
   242  122  242 1    
   243  122  243 1    
   244  124  125 1    
   245  124  244 1    
   246  124  245 1    
   247  125  126 1    
   248  126  246 1    
   249  126  247 1    
@<TRIPOS>SUBSTRUCTURE
     1 UNK         1 GROUP             0       ****    0 ROOT    
