@<TRIPOS>MOLECULE
3R540
247   249    1
SMALL
USER_CHARGES


@<TRIPOS>ATOM
      1 CA          0.5983  -16.1463  -48.6769 C.3       0 UNK        -0.1800 
      2 C           1.4595  -14.9090  -48.8760 C.2       0 UNK         0.5000 
      3 O           1.0326  -13.8007  -48.5468 O.2       0 UNK        -0.5000 
      4 N           2.6754  -15.0954  -49.4066 N.am      1 UNK        -0.5000 
      5 CA          3.6907  -14.0495  -49.5783 C.3       1 UNK         0.1400 
      6 C6          4.9353  -14.5665  -50.3421 C.3       23 UNK        -0.0398 
      7 S7          4.6870  -14.4953  -52.1469 S.3       23 UNK        -0.2404 
      8 C8          4.7245  -16.2505  -52.6259 C.3       23 UNK        -0.0205 
      9 C9          3.4434  -16.9935  -52.2723 C.ar      23 UNK        -0.0193 
     10 C10         2.2128  -16.5651  -52.7800 C.ar      23 UNK        -0.1150 
     11 C11         1.0418  -17.2807  -52.5129 C.ar      23 UNK        -0.0193 
     12 C12         1.1144  -18.4504  -51.7497 C.ar      23 UNK        -0.1150 
     13 C13         2.3341  -18.8766  -51.2162 C.ar      23 UNK        -0.0193 
     14 C14         3.4940  -18.1419  -51.4783 C.ar      23 UNK        -0.1150 
     15 C15         2.4091  -20.1314  -50.3618 C.3       23 UNK        -0.0205 
     16 S16         1.9993  -19.7710  -48.6263 S.3       23 UNK        -0.2404 
     17 C17         0.2308  -20.2202  -48.5608 C.3       23 UNK        -0.0398 
     18 CA          0.0343  -21.5756  -47.8420 C.3       11 UNK         0.1400 
     19 N           0.3002  -21.4932  -46.4043 N.am      11 UNK        -0.5000 
     20 C           0.4083  -22.5509  -45.5896 C.2       10 UNK         0.5000 
     21 O           0.3215  -23.7190  -45.9687 O.2       10 UNK        -0.5000 
     22 CA          0.6009  -22.2553  -44.0922 C.3       10 UNK         0.1400 
     23 CB          2.0562  -21.8651  -43.7941 C.3       10 UNK        -0.1800 
     24 N          -0.3061  -21.2168  -43.5999 N.am      10 UNK        -0.5000 
     25 C          -1.6424  -21.3287  -43.5812 C.2       9 UNK         0.5000 
     26 O          -2.2492  -22.3304  -43.9577 O.2       9 UNK        -0.5000 
     27 CA         -2.4439  -20.1087  -43.0958 C.3       9 UNK         0.1400 
     28 CB         -2.4269  -20.0215  -41.5626 C.3       9 UNK        -0.1800 
     29 N          -1.9697  -18.8508  -43.6716 N.am      9 UNK        -0.5000 
     30 C          -1.9826  -18.5613  -44.9811 C.2       8 UNK         0.5000 
     31 O          -2.4263  -19.3145  -45.8471 O.2       8 UNK        -0.5000 
     32 CA         -1.3339  -17.2322  -45.4044 C.3       8 UNK         0.1400 
     33 CB         -2.2618  -16.0428  -45.1178 C.3       8 UNK        -0.1800 
     34 N          -0.0384  -17.0102  -44.7639 N.am      8 UNK        -0.5000 
     35 C           1.0182  -17.8277  -44.8760 C.2       7 UNK         0.5000 
     36 O           1.0258  -18.8506  -45.5574 O.2       7 UNK        -0.5000 
     37 CA          2.2526  -17.4744  -44.0342 C.3       7 UNK         0.1400 
     38 CB          3.0395  -16.3174  -44.6696 C.3       7 UNK        -0.1800 
     39 N           1.8857  -17.1435  -42.6568 N.am      7 UNK        -0.5000 
     40 C           1.3899  -18.0266  -41.7767 C.2       6 UNK         0.5000 
     41 O           1.2247  -19.2209  -42.0227 O.2       6 UNK        -0.5000 
     42 CA          0.9722  -17.4745  -40.4023 C.3       6 UNK         0.1400 
     43 CB          2.1889  -17.3534  -39.4728 C.3       6 UNK        -0.1800 
     44 N           0.3028  -16.1774  -40.4985 N.am      6 UNK        -0.5000 
     45 C          -0.8930  -15.9822  -41.0722 C.2       5 UNK         0.5000 
     46 O          -1.5767  -16.8822  -41.5579 O.2       5 UNK        -0.5000 
     47 CA         -1.3798  -14.5251  -41.1646 C.3       5 UNK         0.1400 
     48 CB         -2.0775  -14.1023  -39.8633 C.3       5 UNK        -0.1800 
     49 N          -0.3036  -13.5787  -41.4732 N.am      5 UNK        -0.5000 
     50 C           0.4203  -13.6022  -42.5994 C.2       4 UNK         0.5000 
     51 O           0.2856  -14.4528  -43.4822 O.2       4 UNK        -0.5000 
     52 CA          1.5064  -12.5254  -42.7459 C.3       4 UNK         0.1400 
     53 CB          2.8725  -13.0701  -42.3015 C.3       4 UNK        -0.1800 
     54 N           1.5979  -12.0805  -44.1334 N.am      4 UNK        -0.5000 
     55 C           0.7139  -11.2694  -44.7286 C.2       3 UNK         0.5000 
     56 O          -0.2352  -10.7551  -44.1331 O.2       3 UNK        -0.5000 
     57 CA          0.9062  -10.9968  -46.2369 C.3       3 UNK         0.1400 
     58 CB          0.4892   -9.5651  -46.6339 C.3       3 UNK        -0.1800 
     59 N           2.2466  -11.3041  -46.7527 N.am      3 UNK        -0.5000 
     60 C           3.4161  -10.7415  -46.4060 C.2       2 UNK         0.5000 
     61 O           3.5243   -9.8796  -45.5332 O.2       2 UNK        -0.5000 
     62 CA          4.6794  -11.1803  -47.1794 C.3       2 UNK         0.1400 
     63 CB          5.7833  -11.7021  -46.2358 C.3       2 UNK        -0.1800 
     64 N           4.4112  -12.1084  -48.2887 N.am      2 UNK        -0.5000 
     65 C           4.0925  -13.4098  -48.2304 C.2       1 UNK         0.5000 
     66 O           4.0800  -14.0782  -47.1948 O.2       1 UNK        -0.5000 
     67 C          -1.3516  -22.1811  -48.1334 C.2       11 UNK         0.5000 
     68 O          -1.4486  -23.0520  -48.9971 O.2       11 UNK        -0.5000 
     69 N          -2.3845  -21.7634  -47.3865 N.am      12 UNK        -0.5000 
     70 CA         -3.7333  -22.3250  -47.4765 C.3       12 UNK         0.1400 
     71 CB         -4.7096  -21.4963  -46.6300 C.3       12 UNK        -0.1800 
     72 C          -3.7852  -23.8089  -47.0737 C.2       12 UNK         0.5000 
     73 O          -4.4309  -24.5956  -47.7634 O.2       12 UNK        -0.5000 
     74 N          -3.0803  -24.1808  -45.9955 N.am      13 UNK        -0.5000 
     75 CA         -2.9464  -25.5635  -45.5328 C.3       13 UNK         0.1400 
     76 CB         -2.2259  -25.5974  -44.1768 C.3       13 UNK        -0.1800 
     77 C          -2.2340  -26.4627  -46.5586 C.2       13 UNK         0.5000 
     78 O          -2.7218  -27.5569  -46.8439 O.2       13 UNK        -0.5000 
     79 N          -1.1314  -25.9653  -47.1380 N.am      14 UNK        -0.5000 
     80 CA         -0.3829  -26.6249  -48.2121 C.3       14 UNK         0.1400 
     81 CB          0.9026  -25.8343  -48.4988 C.3       14 UNK        -0.1800 
     82 C          -1.2088  -26.8057  -49.5012 C.2       14 UNK         0.5000 
     83 O          -1.0619  -27.8206  -50.1825 O.2       14 UNK        -0.5000 
     84 N          -2.0891  -25.8382  -49.7865 N.am      15 UNK        -0.5000 
     85 CA         -3.0373  -25.8509  -50.8998 C.3       15 UNK         0.1400 
     86 CB         -3.3528  -24.3977  -51.2852 C.3       15 UNK        -0.1800 
     87 C          -4.3304  -26.6432  -50.6059 C.2       15 UNK         0.5000 
     88 O          -5.2286  -26.6414  -51.4471 O.2       15 UNK        -0.5000 
     89 N          -4.4198  -27.2952  -49.4362 N.am      16 UNK        -0.5000 
     90 CA         -5.5409  -28.1132  -48.9598 C.3       16 UNK         0.1400 
     91 CB         -5.7118  -29.3750  -49.8320 C.3       16 UNK        -0.1800 
     92 C          -6.8457  -27.3060  -48.7888 C.2       16 UNK         0.5000 
     93 O          -7.9136  -27.7457  -49.2181 O.2       16 UNK        -0.5000 
     94 N          -6.7161  -26.1320  -48.1565 N.am      17 UNK        -0.5000 
     95 CA         -7.7540  -25.1511  -47.8196 C.3       17 UNK         0.1400 
     96 CB         -8.9048  -25.7811  -47.0067 C.3       17 UNK        -0.1800 
     97 C          -8.2510  -24.3159  -49.0168 C.2       17 UNK         0.5000 
     98 O          -9.2273  -23.5774  -48.8723 O.2       17 UNK        -0.5000 
     99 N          -7.5615  -24.4034  -50.1616 N.am      18 UNK        -0.5000 
    100 CA        -7.7509  -23.5155  -51.3079 C.3       18 UNK         0.1400 
    101 CB        -7.2697  -24.2327  -52.5795 C.3       18 UNK        -0.1800 
    102 C         -7.0092  -22.1777  -51.1040 C.2       18 UNK         0.5000 
    103 O         -6.2516  -22.0189  -50.1442 O.2       18 UNK        -0.5000 
    104 N         -7.2246  -21.2395  -52.0351 N.am      19 UNK        -0.5000 
    105 CA        -6.6585  -19.8850  -52.0239 C.3       19 UNK         0.1400 
    106 CB        -7.4402  -19.0235  -53.0300 C.3       19 UNK        -0.1800 
    107 C         -5.1435  -19.8075  -52.3150 C.2       19 UNK         0.5000 
    108 O         -4.5808  -18.7147  -52.2510 O.2       19 UNK        -0.5000 
    109 N         -4.5168  -20.9402  -52.6716 N.am      20 UNK        -0.5000 
    110 CA        -3.0827  -21.1118  -52.9540 C.3       20 UNK         0.1400 
    111 CB        -2.2503  -20.8500  -51.6811 C.3       20 UNK        -0.1800 
    112 C         -2.5774  -20.2904  -54.1604 C.2       20 UNK         0.5000 
    113 O         -1.3801  -20.0233  -54.2600 O.2       20 UNK        -0.5000 
    114 N         -3.5081  -19.9044  -55.0467 N.am      21 UNK        -0.5000 
    115 CA        -3.3406  -19.0172  -56.2028 C.3       21 UNK         0.1400 
    116 CB        -2.3597  -19.6175  -57.2324 C.3       21 UNK        -0.1800 
    117 C         -2.9954  -17.5567  -55.8313 C.2       21 UNK         0.5000 
    118 O         -2.5503  -16.8041  -56.7001 O.2       21 UNK        -0.5000 
    119 N         -3.2183  -17.1638  -54.5691 N.am      22 UNK        -0.5000 
    120 CA        -3.0702  -15.7809  -54.0955 C.3       22 UNK         0.1400 
    121 C         -4.2332  -14.8750  -54.5908 C.2       22 UNK         0.5000 
    122 N         -3.9719  -13.5970  -54.8308 N.am      22 UNK        -0.7600 
    123 O         -5.3770  -15.3061  -54.7237 O.2       22 UNK        -0.5000 
    124 C124       -2.9555  -15.7100  -52.5495 C.3       23 UNK        -0.0398 
    125 S125       -1.5279  -16.5400  -51.7516 S.3       23 UNK        -0.2404 
    126 C126       -0.2917  -16.7990  -53.0689 C.3       23 UNK        -0.0205 
    127 H127       -0.4592  -15.8993  -48.7710 H         1 UNK         0.0600 
    128 H128        0.7712  -16.5611  -47.6848 H         1 UNK         0.0600 
    129 H129        0.8321  -16.9144  -49.4125 H         1 UNK         0.0600 
    130 H130        2.9578  -16.0287  -49.6685 H         1 UNK         0.3000 
    131 H131        3.2216  -13.2592  -50.1691 H         1 UNK         0.0600 
    132 H132        5.8137  -13.9513  -50.1364 H         1 UNK         0.0800 
    133 H133        5.2015  -15.5760  -50.0245 H         1 UNK         0.0800 
    134 H134        5.5973  -16.7290  -52.1788 H         1 UNK         0.0800 
    135 H135        4.8671  -16.3102  -53.7056 H         1 UNK         0.0800 
    136 H136        2.1725  -15.6745  -53.3914 H         1 UNK         0.1150 
    137 H137        0.2139  -19.0152  -51.5581 H         1 UNK         0.1150 
    138 H138        4.4408  -18.4783  -51.0791 H         1 UNK         0.1150 
    139 H139        1.7536  -20.9063  -50.7623 H         1 UNK         0.0800 
    140 H140        3.4175  -20.5461  -50.3993 H         1 UNK         0.0800 
    141 H141       -0.1693  -20.2502  -49.5746 H         1 UNK         0.0800 
    142 H142       -0.3147  -19.4278  -48.0454 H         1 UNK         0.0800 
    143 H143        0.7605  -22.2774  -48.2588 H         1 UNK         0.0600 
    144 H144        0.4332  -20.5585  -46.0231 H         1 UNK         0.3000 
    145 H145        0.3801  -23.1737  -43.5444 H         1 UNK         0.0600 
    146 H146        2.2216  -21.7531  -42.7226 H         1 UNK         0.0600 
    147 H147        2.7470  -22.6297  -44.1517 H         1 UNK         0.0600 
    148 H148        2.3286  -20.9249  -44.2743 H         1 UNK         0.0600 
    149 H149        0.1254  -20.3690  -43.2450 H         1 UNK         0.3000 
    150 H150       -3.4792  -20.2469  -43.4141 H         1 UNK         0.0600 
    151 H151       -2.7777  -20.9515  -41.1136 H         1 UNK         0.0600 
    152 H152       -3.0785  -19.2233  -41.2069 H         1 UNK         0.0600 
    153 H153       -1.4237  -19.8291  -41.1809 H         1 UNK         0.0600 
    154 H154       -1.6192  -18.1574  -43.0165 H         1 UNK         0.3000 
    155 H155       -1.1680  -17.2793  -46.4818 H         1 UNK         0.0600 
    156 H156       -2.4481  -15.9249  -44.0502 H         1 UNK         0.0600 
    157 H157       -1.8313  -15.1112  -45.4861 H         1 UNK         0.0600 
    158 H158       -3.2270  -16.1734  -45.6087 H         1 UNK         0.0600 
    159 H159        0.0525  -16.1688  -44.1992 H         1 UNK         0.3000 
    160 H160        2.9035  -18.3510  -44.0095 H         1 UNK         0.0600 
    161 H161        2.4428  -15.4085  -44.7463 H         1 UNK         0.0600 
    162 H162        3.3598  -16.5762  -45.6799 H         1 UNK         0.0600 
    163 H163        3.9365  -16.0853  -44.0956 H         1 UNK         0.0600 
    164 H164        1.9349  -16.1716  -42.3931 H         1 UNK         0.3000 
    165 H165        0.2721  -18.1848  -39.9573 H         1 UNK         0.0600 
    166 H166        1.8910  -17.0380  -38.4727 H         1 UNK         0.0600 
    167 H167        2.6986  -18.3125  -39.3714 H         1 UNK         0.0600 
    168 H168        2.9162  -16.6332  -39.8497 H         1 UNK         0.0600 
    169 H169        0.7949  -15.3785  -40.1271 H         1 UNK         0.3000 
    170 H170       -2.1103  -14.4731  -41.9745 H         1 UNK         0.0600 
    171 H171       -2.8948  -14.7828  -39.6203 H         1 UNK         0.0600 
    172 H172       -1.3891  -14.1007  -39.0174 H         1 UNK         0.0600 
    173 H173       -2.5045  -13.1031  -39.9514 H         1 UNK         0.0600 
    174 H174       -0.1311  -12.8538  -40.7915 H         1 UNK         0.3000 
    175 H175        1.2514  -11.6700  -42.1166 H         1 UNK         0.0600 
    176 H176        3.1897  -13.9169  -42.9099 H         1 UNK         0.0600 
    177 H177        3.6429  -12.3020  -42.3736 H         1 UNK         0.0600 
    178 H178        2.8432  -13.4032  -41.2633 H         1 UNK         0.0600 
    179 H179        2.3223  -12.4953  -44.7002 H         1 UNK         0.3000 
    180 H180        0.2303  -11.6854  -46.7460 H         1 UNK         0.0600 
    181 H181        1.0787   -8.8119  -46.1105 H         1 UNK         0.0600 
    182 H182       -0.5594   -9.3809  -46.3974 H         1 UNK         0.0600 
    183 H183        0.6100   -9.4019  -47.7049 H         1 UNK         0.0600 
    184 H184        2.2671  -12.0282  -47.4590 H         1 UNK         0.3000 
    185 H185        5.0640  -10.2743  -47.6502 H         1 UNK         0.0600 
    186 H186        6.1083  -10.9184  -45.5506 H         1 UNK         0.0600 
    187 H187        5.4407  -12.5377  -45.6252 H         1 UNK         0.0600 
    188 H188        6.6608  -12.0281  -46.7941 H         1 UNK         0.0600 
    189 H189        4.3871  -11.6642  -49.1969 H         1 UNK         0.3000 
    190 H190       -2.2479  -21.0157  -46.7111 H         1 UNK         0.3000 
    191 H191       -4.0506  -22.2559  -48.5190 H         1 UNK         0.0600 
    192 H192       -4.4263  -21.4902  -45.5771 H         1 UNK         0.0600 
    193 H193       -5.7218  -21.8969  -46.6994 H         1 UNK         0.0600 
    194 H194       -4.7462  -20.4625  -46.9737 H         1 UNK         0.0600 
    195 H195       -2.6135  -23.4685  -45.4398 H         1 UNK         0.3000 
    196 H196       -3.9528  -25.9619  -45.3883 H         1 UNK         0.0600 
    197 H197       -2.1225  -26.6208  -43.8143 H         1 UNK         0.0600 
    198 H198       -2.7819  -25.0403  -43.4227 H         1 UNK         0.0600 
    199 H199       -1.2261  -25.1676  -44.2391 H         1 UNK         0.0600 
    200 H200       -0.7727  -25.0687  -46.8194 H         1 UNK         0.3000 
    201 H201       -0.1006  -27.6186  -47.8585 H         1 UNK         0.0600 
    202 H202        1.5297  -25.7660  -47.6097 H         1 UNK         0.0600 
    203 H203        0.6843  -24.8194  -48.8321 H         1 UNK         0.0600 
    204 H204        1.4935  -26.3169  -49.2781 H         1 UNK         0.0600 
    205 H205       -2.0993  -25.0080  -49.2031 H         1 UNK         0.3000 
    206 H206       -2.5595  -26.3267  -51.7584 H         1 UNK         0.0600 
    207 H207       -2.4360  -23.8357  -51.4607 H         1 UNK         0.0600 
    208 H208       -3.9344  -24.3531  -52.2049 H         1 UNK         0.0600 
    209 H209       -3.9176  -23.8848  -50.5056 H         1 UNK         0.0600 
    210 H210       -3.6464  -27.2087  -48.7878 H         1 UNK         0.3000 
    211 H211       -5.2632  -28.4477  -47.9592 H         1 UNK         0.0600 
    212 H212       -6.0399  -29.1309  -50.8427 H         1 UNK         0.0600 
    213 H213       -6.4546  -30.0479  -49.4021 H         1 UNK         0.0600 
    214 H214       -4.7771  -29.9306  -49.9075 H         1 UNK         0.0600 
    215 H215       -5.7724  -25.8158  -47.9364 H         1 UNK         0.3000 
    216 H216       -7.2588  -24.4353  -47.1619 H         1 UNK         0.0600 
    217 H217       -9.5572  -25.0107  -46.5941 H         1 UNK         0.0600 
    218 H218       -8.5240  -26.3639  -46.1680 H         1 UNK         0.0600 
    219 H219       -9.5264  -26.4349  -47.6185 H         1 UNK         0.0600 
    220 H220       -6.7612  -25.0191  -50.1932 H         1 UNK         0.3000 
    221 H221       -8.8155  -23.2995  -51.4202 H         1 UNK         0.0600 
    222 H222       -6.1929  -24.3913  -52.5708 H         1 UNK         0.0600 
    223 H223       -7.7473  -25.2069  -52.6868 H         1 UNK         0.0600 
    224 H224       -7.5083  -23.6581  -53.4749 H         1 UNK         0.0600 
    225 H225       -7.8522  -21.4488  -52.7983 H         1 UNK         0.3000 
    226 H226       -6.8093  -19.4642  -51.0276 H         1 UNK         0.0600 
    227 H227       -8.5026  -18.9985  -52.7869 H         1 UNK         0.0600 
    228 H228       -7.0862  -17.9914  -53.0256 H         1 UNK         0.0600 
    229 H229       -7.3365  -19.4002  -54.0482 H         1 UNK         0.0600 
    230 H230       -5.0754  -21.7795  -52.7143 H         1 UNK         0.3000 
    231 H231       -2.9500  -22.1581  -53.2297 H         1 UNK         0.0600 
    232 H232       -1.2204  -21.1847  -51.8100 H         1 UNK         0.0600 
    233 H233       -2.6618  -21.3853  -50.8260 H         1 UNK         0.0600 
    234 H234       -2.2221  -19.7898  -51.4270 H         1 UNK         0.0600 
    235 H235       -4.4585  -20.1886  -54.8580 H         1 UNK         0.3000 
    236 H236       -4.3202  -18.9715  -56.6806 H         1 UNK         0.0600 
    237 H237       -2.3795  -19.0539  -58.1657 H         1 UNK         0.0600 
    238 H238       -1.3317  -19.6061  -56.8696 H         1 UNK         0.0600 
    239 H239       -2.6206  -20.6480  -57.4728 H         1 UNK         0.0600 
    240 H240       -3.6063  -17.8203  -53.9011 H         1 UNK         0.3000 
    241 H241       -2.1551  -15.3744  -54.5270 H         1 UNK         0.0600 
    242 H242       -4.7200  -12.9952  -55.1394 H         1 UNK         0.3800 
    243 H243       -3.0447  -13.2145  -54.7253 H         1 UNK         0.3800 
    244 H244       -2.9095  -14.6661  -52.2344 H         1 UNK         0.0800 
    245 H245       -3.8621  -16.1101  -52.0928 H         1 UNK         0.0800 
    246 H246       -0.1491  -15.8652  -53.6131 H         1 UNK         0.0800 
    247 H247       -0.6552  -17.5347  -53.7845 H         1 UNK         0.0800 
@<TRIPOS>BOND
     1    1    2 1    
     2    1  127 1    
     3    1  128 1    
     4    1  129 1    
     5    2    3 2    
     6    2    4 am   BACKBONE|DICT|INTERRES
     7    4    5 1    
     8    4  130 1    
     9    5    6 1    
    10    5   65 1    
    11    5  131 1    
    12    6    7 1    
    13    6  132 1    
    14    6  133 1    
    15    7    8 1    
    16    8    9 1    
    17    8  134 1    
    18    8  135 1    
    19    9   10 ar   
    20    9   14 ar   
    21   10   11 ar   
    22   10  136 1    
    23   11   12 ar   
    24   11  126 1    
    25   12   13 ar   
    26   12  137 1    
    27   13   14 ar   
    28   13   15 1    
    29   14  138 1    
    30   15   16 1    
    31   15  139 1    
    32   15  140 1    
    33   16   17 1    
    34   17   18 1    
    35   17  141 1    
    36   17  142 1    
    37   18   19 1    
    38   18   67 1    
    39   18  143 1    
    40   19   20 am   BACKBONE|DICT|INTERRES
    41   19  144 1    
    42   20   21 2    
    43   20   22 1    
    44   22   23 1    
    45   22   24 1    
    46   22  145 1    
    47   23  146 1    
    48   23  147 1    
    49   23  148 1    
    50   24   25 am   BACKBONE|DICT|INTERRES
    51   24  149 1    
    52   25   26 2    
    53   25   27 1    
    54   27   28 1    
    55   27   29 1    
    56   27  150 1    
    57   28  151 1    
    58   28  152 1    
    59   28  153 1    
    60   29   30 am   BACKBONE|DICT|INTERRES
    61   29  154 1    
    62   30   31 2    
    63   30   32 1    
    64   32   33 1    
    65   32   34 1    
    66   32  155 1    
    67   33  156 1    
    68   33  157 1    
    69   33  158 1    
    70   34   35 am   BACKBONE|DICT|INTERRES
    71   34  159 1    
    72   35   36 2    
    73   35   37 1    
    74   37   38 1    
    75   37   39 1    
    76   37  160 1    
    77   38  161 1    
    78   38  162 1    
    79   38  163 1    
    80   39   40 am   BACKBONE|DICT|INTERRES
    81   39  164 1    
    82   40   41 2    
    83   40   42 1    
    84   42   43 1    
    85   42   44 1    
    86   42  165 1    
    87   43  166 1    
    88   43  167 1    
    89   43  168 1    
    90   44   45 am   BACKBONE|DICT|INTERRES
    91   44  169 1    
    92   45   46 2    
    93   45   47 1    
    94   47   48 1    
    95   47   49 1    
    96   47  170 1    
    97   48  171 1    
    98   48  172 1    
    99   48  173 1    
   100   49   50 am   BACKBONE|DICT|INTERRES
   101   49  174 1    
   102   50   51 2    
   103   50   52 1    
   104   52   53 1    
   105   52   54 1    
   106   52  175 1    
   107   53  176 1    
   108   53  177 1    
   109   53  178 1    
   110   54   55 am   BACKBONE|DICT|INTERRES
   111   54  179 1    
   112   55   56 2    
   113   55   57 1    
   114   57   58 1    
   115   57   59 1    
   116   57  180 1    
   117   58  181 1    
   118   58  182 1    
   119   58  183 1    
   120   59   60 am   BACKBONE|DICT|INTERRES
   121   59  184 1    
   122   60   61 2    
   123   60   62 1    
   124   62   63 1    
   125   62   64 1    
   126   62  185 1    
   127   63  186 1    
   128   63  187 1    
   129   63  188 1    
   130   64   65 am   BACKBONE|DICT|INTERRES
   131   64  189 1    
   132   65   66 2    
   133   67   68 2    
   134   67   69 am   BACKBONE|DICT|INTERRES
   135   69   70 1    
   136   69  190 1    
   137   70   71 1    
   138   70   72 1    
   139   70  191 1    
   140   71  192 1    
   141   71  193 1    
   142   71  194 1    
   143   72   73 2    
   144   72   74 am   BACKBONE|DICT|INTERRES
   145   74   75 1    
   146   74  195 1    
   147   75   76 1    
   148   75   77 1    
   149   75  196 1    
   150   76  197 1    
   151   76  198 1    
   152   76  199 1    
   153   77   78 2    
   154   77   79 am   BACKBONE|DICT|INTERRES
   155   79   80 1    
   156   79  200 1    
   157   80   81 1    
   158   80   82 1    
   159   80  201 1    
   160   81  202 1    
   161   81  203 1    
   162   81  204 1    
   163   82   83 2    
   164   82   84 am   BACKBONE|DICT|INTERRES
   165   84   85 1    
   166   84  205 1    
   167   85   86 1    
   168   85   87 1    
   169   85  206 1    
   170   86  207 1    
   171   86  208 1    
   172   86  209 1    
   173   87   88 2    
   174   87   89 am   BACKBONE|DICT|INTERRES
   175   89   90 1    
   176   89  210 1    
   177   90   91 1    
   178   90   92 1    
   179   90  211 1    
   180   91  212 1    
   181   91  213 1    
   182   91  214 1    
   183   92   93 2    
   184   92   94 am   BACKBONE|DICT|INTERRES
   185   94   95 1    
   186   94  215 1    
   187   95   96 1    
   188   95   97 1    
   189   95  216 1    
   190   96  217 1    
   191   96  218 1    
   192   96  219 1    
   193   97   98 2    
   194   97   99 am   BACKBONE|DICT|INTERRES
   195   99  100 1    
   196   99  220 1    
   197  100  101 1    
   198  100  102 1    
   199  100  221 1    
   200  101  222 1    
   201  101  223 1    
   202  101  224 1    
   203  102  103 2    
   204  102  104 am   BACKBONE|DICT|INTERRES
   205  104  105 1    
   206  104  225 1    
   207  105  106 1    
   208  105  107 1    
   209  105  226 1    
   210  106  227 1    
   211  106  228 1    
   212  106  229 1    
   213  107  108 2    
   214  107  109 am   BACKBONE|DICT|INTERRES
   215  109  110 1    
   216  109  230 1    
   217  110  111 1    
   218  110  112 1    
   219  110  231 1    
   220  111  232 1    
   221  111  233 1    
   222  111  234 1    
   223  112  113 2    
   224  112  114 am   BACKBONE|DICT|INTERRES
   225  114  115 1    
   226  114  235 1    
   227  115  116 1    
   228  115  117 1    
   229  115  236 1    
   230  116  237 1    
   231  116  238 1    
   232  116  239 1    
   233  117  118 2    
   234  117  119 am   BACKBONE|DICT|INTERRES
   235  119  120 1    
   236  119  240 1    
   237  120  121 1    
   238  120  124 1    
   239  120  241 1    
   240  121  122 am   BACKBONE|DICT|INTERRES
   241  121  123 2    
   242  122  242 1    
   243  122  243 1    
   244  124  125 1    
   245  124  244 1    
   246  124  245 1    
   247  125  126 1    
   248  126  246 1    
   249  126  247 1    
@<TRIPOS>SUBSTRUCTURE
     1 UNK         1 GROUP             0       ****    0 ROOT    
