@<TRIPOS>MOLECULE
3R540
247   249    1
SMALL
USER_CHARGES


@<TRIPOS>ATOM
      1 CA          4.2121  -17.0445  -49.3424 C.3       0 UNK        -0.1800 
      2 C           3.6047  -16.2382  -48.2056 C.2       0 UNK         0.5000 
      3 O           3.8643  -16.5368  -47.0420 O.2       0 UNK        -0.5000 
      4 N           2.8347  -15.1889  -48.5224 N.am      1 UNK        -0.5000 
      5 CA          2.2256  -14.2600  -47.5582 C.3       1 UNK         0.1400 
      6 C6          0.9329  -13.6036  -48.1126 C.3       23 UNK        -0.0398 
      7 S7         -0.4026  -14.8201  -48.3839 S.3       23 UNK        -0.2404 
      8 C8         -0.4466  -14.9865  -50.1946 C.3       23 UNK        -0.0205 
      9 C9         -0.5393  -16.4500  -50.5939 C.ar      23 UNK        -0.0193 
     10 C10        -1.7775  -17.0550  -50.8251 C.ar      23 UNK        -0.1150 
     11 C11        -1.8499  -18.4034  -51.1922 C.ar      23 UNK        -0.0193 
     12 C12        -0.6732  -19.1493  -51.3165 C.ar      23 UNK        -0.1150 
     13 C13         0.5688  -18.5526  -51.0847 C.ar      23 UNK        -0.0193 
     14 C14         0.6266  -17.2039  -50.7293 C.ar      23 UNK        -0.1150 
     15 C15         1.8588  -19.3418  -51.2411 C.3       23 UNK        -0.0205 
     16 S16         2.1057  -20.6580  -50.0013 S.3       23 UNK        -0.2404 
     17 C17         1.4714  -20.0167  -48.4027 C.3       23 UNK        -0.0398 
     18 CA          0.7266  -21.1508  -47.6528 C.3       11 UNK         0.1400 
     19 N           0.7875  -21.0485  -46.1913 N.am      11 UNK        -0.5000 
     20 C           0.5564  -22.0965  -45.3830 C.2       10 UNK         0.5000 
     21 O           0.3129  -23.2323  -45.7933 O.2       10 UNK        -0.5000 
     22 CA          0.5277  -21.8275  -43.8691 C.3       10 UNK         0.1400 
     23 CB          1.9449  -21.6938  -43.2913 C.3       10 UNK        -0.1800 
     24 N          -0.2625  -20.6419  -43.5468 N.am      10 UNK        -0.5000 
     25 C          -1.5881  -20.5502  -43.7262 C.2       9 UNK         0.5000 
     26 O          -2.2886  -21.4771  -44.1301 O.2       9 UNK        -0.5000 
     27 CA         -2.2363  -19.1845  -43.4488 C.3       9 UNK         0.1400 
     28 CB         -2.7790  -19.1224  -42.0135 C.3       9 UNK        -0.1800 
     29 N          -1.3135  -18.0747  -43.7024 N.am      9 UNK        -0.5000 
     30 C          -0.9626  -17.6862  -44.9382 C.2       8 UNK         0.5000 
     31 O          -1.3634  -18.2410  -45.9617 O.2       8 UNK        -0.5000 
     32 CA          0.0258  -16.5127  -45.0580 C.3       8 UNK         0.1400 
     33 CB         -0.6847  -15.1747  -44.8071 C.3       8 UNK        -0.1800 
     34 N           1.1876  -16.6129  -44.1757 N.am      8 UNK        -0.5000 
     35 C           2.0764  -17.6179  -44.1945 C.2       7 UNK         0.5000 
     36 O           1.9686  -18.6099  -44.9176 O.2       7 UNK        -0.5000 
     37 CA          3.2624  -17.5153  -43.2213 C.3       7 UNK         0.1400 
     38 CB          4.4018  -16.6810  -43.8233 C.3       7 UNK        -0.1800 
     39 N           2.8412  -16.9162  -41.9539 N.am      7 UNK        -0.5000 
     40 C           2.8311  -17.5680  -40.7845 C.2       6 UNK         0.5000 
     41 O           3.2728  -18.7071  -40.6268 O.2       6 UNK        -0.5000 
     42 CA          2.1980  -16.8421  -39.5823 C.3       6 UNK         0.1400 
     43 CB          3.2344  -15.9544  -38.8778 C.3       6 UNK        -0.1800 
     44 N           1.0136  -16.0373  -39.8922 N.am      6 UNK        -0.5000 
     45 C          -0.0997  -16.4542  -40.5081 C.2       5 UNK         0.5000 
     46 O          -0.2157  -17.5564  -41.0393 O.2       5 UNK        -0.5000 
     47 CA         -1.2828  -15.4681  -40.5704 C.3       5 UNK         0.1400 
     48 CB         -1.9363  -15.2761  -39.1886 C.3       5 UNK        -0.1800 
     49 N          -0.9438  -14.1887  -41.2013 N.am      5 UNK        -0.5000 
     50 C          -0.0851  -13.2530  -40.7802 C.2       4 UNK         0.5000 
     51 O           0.4918  -13.2702  -39.6899 O.2       4 UNK        -0.5000 
     52 CA          0.2239  -12.1315  -41.7838 C.3       4 UNK         0.1400 
     53 CB         -0.3328  -10.7865  -41.2931 C.3       4 UNK        -0.1800 
     54 N           1.6631  -12.0088  -42.0079 N.am      4 UNK        -0.5000 
     55 C           2.4581  -12.9685  -42.4979 C.2       3 UNK         0.5000 
     56 O           2.0720  -14.0893  -42.8547 O.2       3 UNK        -0.5000 
     57 CA          3.9432  -12.6142  -42.6113 C.3       3 UNK         0.1400 
     58 CB          4.7751  -13.3470  -41.5471 C.3       3 UNK        -0.1800 
     59 N           4.3832  -13.0055  -43.9399 N.am      3 UNK        -0.5000 
     60 C           5.3011  -12.3771  -44.6808 C.2       2 UNK         0.5000 
     61 O           5.9405  -11.3974  -44.2959 O.2       2 UNK        -0.5000 
     62 CA          5.5466  -12.9366  -46.0946 C.3       2 UNK         0.1400 
     63 CB          6.8019  -13.8225  -46.1084 C.3       2 UNK        -0.1800 
     64 N           4.4194  -13.7188  -46.6048 N.am      2 UNK        -0.5000 
     65 C           3.2626  -13.2228  -47.0629 C.2       1 UNK         0.5000 
     66 O           3.0175  -12.0167  -47.1143 O.2       1 UNK        -0.5000 
     67 C          -0.7150  -21.3642  -48.1630 C.2       11 UNK         0.5000 
     68 O          -0.9024  -22.1331  -49.1040 O.2       11 UNK        -0.5000 
     69 N          -1.7172  -20.7568  -47.5067 N.am      12 UNK        -0.5000 
     70 CA         -3.1340  -21.0022  -47.7931 C.3       12 UNK         0.1400 
     71 CB         -4.0236  -20.0359  -47.0013 C.3       12 UNK        -0.1800 
     72 C          -3.5506  -22.4633  -47.5456 C.2       12 UNK         0.5000 
     73 O          -4.2527  -23.0370  -48.3791 O.2       12 UNK        -0.5000 
     74 N          -3.0786  -23.0517  -46.4376 N.am      13 UNK        -0.5000 
     75 CA         -3.2662  -24.4632  -46.1025 C.3       13 UNK         0.1400 
     76 CB         -2.7883  -24.7276  -44.6672 C.3       13 UNK        -0.1800 
     77 C          -2.5666  -25.4038  -47.0999 C.2       13 UNK         0.5000 
     78 O          -3.1817  -26.3745  -47.5427 O.2       13 UNK        -0.5000 
     79 N          -1.3217  -25.0761  -47.4796 N.am      14 UNK        -0.5000 
     80 CA         -0.5465  -25.7914  -48.5009 C.3       14 UNK         0.1400 
     81 CB          0.8823  -25.2306  -48.5510 C.3       14 UNK        -0.1800 
     82 C          -1.2000  -25.7424  -49.8973 C.2       14 UNK         0.5000 
     83 O          -1.1406  -26.7248  -50.6364 O.2       14 UNK        -0.5000 
     84 N          -1.8620  -24.6199  -50.2022 N.am      15 UNK        -0.5000 
     85 CA         -2.6846  -24.3883  -51.3888 C.3       15 UNK         0.1400 
     86 CB         -2.7642  -22.8728  -51.6315 C.3       15 UNK        -0.1800 
     87 C          -4.0960  -25.0112  -51.3037 C.2       15 UNK         0.5000 
     88 O          -4.9354  -24.6850  -52.1435 O.2       15 UNK        -0.5000 
     89 N          -4.3470  -25.8722  -50.3049 N.am      16 UNK        -0.5000 
     90 CA         -5.5869  -26.6137  -50.0539 C.3       16 UNK         0.1400 
     91 CB         -5.8601  -27.6257  -51.1864 C.3       16 UNK        -0.1800 
     92 C          -6.7798  -25.6832  -49.7621 C.2       16 UNK         0.5000 
     93 O          -7.8338  -25.8057  -50.3874 O.2       16 UNK        -0.5000 
     94 N          -6.5653  -24.7571  -48.8171 N.am      17 UNK        -0.5000 
     95 CA         -7.4659  -23.6739  -48.4091 C.3       17 UNK         0.1400 
     96 CB         -8.7979  -24.2151  -47.8473 C.3       17 UNK        -0.1800 
     97 C          -7.6401  -22.6338  -49.5331 C.2       17 UNK         0.5000 
     98 O          -8.7598  -22.2096  -49.8246 O.2       17 UNK        -0.5000 
     99 N          -6.5038  -22.2519  -50.1356 N.am      18 UNK        -0.5000 
    100 CA        -6.3562  -21.2871  -51.2298 C.3       18 UNK         0.1400 
    101 CB        -6.6667  -19.8595  -50.7347 C.3       18 UNK        -0.1800 
    102 C         -7.1398  -21.6754  -52.5032 C.2       18 UNK         0.5000 
    103 O         -7.7616  -20.8201  -53.1359 O.2       18 UNK        -0.5000 
    104 N         -7.0920  -22.9661  -52.8579 N.am      19 UNK        -0.5000 
    105 CA        -7.6731  -23.5133  -54.0850 C.3       19 UNK         0.1400 
    106 CB        -7.9845  -25.0018  -53.8692 C.3       19 UNK        -0.1800 
    107 C         -6.7448  -23.3265  -55.3012 C.2       19 UNK         0.5000 
    108 O         -7.2201  -23.3679  -56.4374 O.2       19 UNK        -0.5000 
    109 N         -5.4438  -23.1294  -55.0455 N.am      20 UNK        -0.5000 
    110 CA        -4.4180  -22.8153  -56.0405 C.3       20 UNK         0.1400 
    111 CB        -3.0353  -23.0023  -55.3915 C.3       20 UNK        -0.1800 
    112 C         -4.5637  -21.3880  -56.6109 C.2       20 UNK         0.5000 
    113 O         -5.3891  -20.5996  -56.1410 O.2       20 UNK        -0.5000 
    114 N         -3.7263  -21.0650  -57.6050 N.am      21 UNK        -0.5000 
    115 CA        -3.6302  -19.7538  -58.2530 C.3       21 UNK         0.1400 
    116 CB        -2.9290  -19.9278  -59.6125 C.3       21 UNK        -0.1800 
    117 C         -2.9346  -18.7053  -57.3541 C.2       21 UNK         0.5000 
    118 O         -1.8578  -18.2085  -57.6895 O.2       21 UNK        -0.5000 
    119 N         -3.5624  -18.4073  -56.2127 N.am      22 UNK        -0.5000 
    120 CA        -3.0993  -17.4582  -55.1867 C.3       22 UNK         0.1400 
    121 C         -3.1998  -15.9569  -55.5912 C.2       22 UNK         0.5000 
    122 N         -3.8869  -15.5976  -56.6690 N.am      22 UNK        -0.7600 
    123 O         -2.6380  -15.0997  -54.9151 O.2       22 UNK        -0.5000 
    124 C124       -3.8181  -17.7057  -53.8359 C.3       23 UNK        -0.0398 
    125 S125       -3.5286  -19.3883  -53.1878 S.3       23 UNK        -0.2404 
    126 C126       -3.1990  -19.0628  -51.4285 C.3       23 UNK        -0.0205 
    127 H127        3.9223  -16.6587  -50.3194 H         1 UNK         0.0600 
    128 H128        5.2997  -17.0152  -49.2779 H         1 UNK         0.0600 
    129 H129        3.8979  -18.0848  -49.2676 H         1 UNK         0.0600 
    130 H130        2.6958  -14.9552  -49.4941 H         1 UNK         0.3000 
    131 H131        1.9398  -14.8266  -46.6705 H         1 UNK         0.0600 
    132 H132        0.5438  -12.8751  -47.3989 H         1 UNK         0.0800 
    133 H133        1.1368  -13.0457  -49.0275 H         1 UNK         0.0800 
    134 H134       -1.2990  -14.4293  -50.5859 H         1 UNK         0.0800 
    135 H135        0.4415  -14.5435  -50.6465 H         1 UNK         0.0800 
    136 H136       -2.6834  -16.4757  -50.7152 H         1 UNK         0.1150 
    137 H137       -0.7238  -20.1937  -51.5912 H         1 UNK         0.1150 
    138 H138        1.5821  -16.7351  -50.5561 H         1 UNK         0.1150 
    139 H139        1.8682  -19.8000  -52.2309 H         1 UNK         0.0800 
    140 H140        2.7211  -18.6763  -51.2221 H         1 UNK         0.0800 
    141 H141        0.8365  -19.1391  -48.5274 H         1 UNK         0.0800 
    142 H142        2.3330  -19.6833  -47.8223 H         1 UNK         0.0800 
    143 H143        1.2613  -22.0749  -47.8839 H         1 UNK         0.0600 
    144 H144        1.0087  -20.1422  -45.7887 H         1 UNK         0.3000 
    145 H145        0.0517  -22.6852  -43.3888 H         1 UNK         0.0600 
    146 H146        1.9186  -21.5225  -42.2149 H         1 UNK         0.0600 
    147 H147        2.5185  -22.6057  -43.4613 H         1 UNK         0.0600 
    148 H148        2.4986  -20.8736  -43.7463 H         1 UNK         0.0600 
    149 H149        0.2408  -19.8218  -43.2417 H         1 UNK         0.3000 
    150 H150       -3.0877  -19.0722  -44.1218 H         1 UNK         0.0600 
    151 H151       -3.5872  -19.8421  -41.8785 H         1 UNK         0.0600 
    152 H152       -3.1802  -18.1364  -41.7801 H         1 UNK         0.0600 
    153 H153       -2.0121  -19.3622  -41.2770 H         1 UNK         0.0600 
    154 H154       -0.8824  -17.6481  -42.8889 H         1 UNK         0.3000 
    155 H155        0.4008  -16.5179  -46.0826 H         1 UNK         0.0600 
    156 H156       -0.0102  -14.3316  -44.9579 H         1 UNK         0.0600 
    157 H157       -1.0779  -15.1158  -43.7939 H         1 UNK         0.0600 
    158 H158       -1.5249  -15.0457  -45.4906 H         1 UNK         0.0600 
    159 H159        1.3736  -15.8086  -43.5875 H         1 UNK         0.3000 
    160 H160        3.6402  -18.5277  -43.0649 H         1 UNK         0.0600 
    161 H161        4.0514  -15.7085  -44.1641 H         1 UNK         0.0600 
    162 H162        4.8401  -17.1916  -44.6808 H         1 UNK         0.0600 
    163 H163        5.2020  -16.5191  -43.1011 H         1 UNK         0.0600 
    164 H164        2.4611  -15.9782  -41.9939 H         1 UNK         0.3000 
    165 H165        1.8801  -17.6125  -38.8772 H         1 UNK         0.0600 
    166 H166        3.5315  -15.1136  -39.5037 H         1 UNK         0.0600 
    167 H167        2.8392  -15.5523  -37.9448 H         1 UNK         0.0600 
    168 H168        4.1352  -16.5187  -38.6324 H         1 UNK         0.0600 
    169 H169        1.0134  -15.0782  -39.5550 H         1 UNK         0.3000 
    170 H170       -2.0338  -15.9229  -41.2183 H         1 UNK         0.0600 
    171 H171       -2.2723  -16.2318  -38.7843 H         1 UNK         0.0600 
    172 H172       -1.2496  -14.8414  -38.4622 H         1 UNK         0.0600 
    173 H173       -2.8090  -14.6265  -39.2539 H         1 UNK         0.0600 
    174 H174       -1.3530  -14.0556  -42.1147 H         1 UNK         0.3000 
    175 H175       -0.2418  -12.3674  -42.7432 H         1 UNK         0.0600 
    176 H176       -0.1555   -9.9957  -42.0222 H         1 UNK         0.0600 
    177 H177       -1.4103  -10.8454  -41.1339 H         1 UNK         0.0600 
    178 H178        0.1221  -10.4821  -40.3495 H         1 UNK         0.0600 
    179 H179        2.0794  -11.1358  -41.7188 H         1 UNK         0.3000 
    180 H180        4.0645  -11.5362  -42.4836 H         1 UNK         0.0600 
    181 H181        4.6805  -14.4298  -41.6360 H         1 UNK         0.0600 
    182 H182        4.4557  -13.0664  -40.5429 H         1 UNK         0.0600 
    183 H183        5.8326  -13.0970  -41.6335 H         1 UNK         0.0600 
    184 H184        3.8691  -13.7737  -44.3470 H         1 UNK         0.3000 
    185 H185        5.7139  -12.0895  -46.7632 H         1 UNK         0.0600 
    186 H186        7.0240  -14.1759  -47.1155 H         1 UNK         0.0600 
    187 H187        7.6750  -13.2702  -45.7584 H         1 UNK         0.0600 
    188 H188        6.6846  -14.6954  -45.4646 H         1 UNK         0.0600 
    189 H189        4.5264  -14.7289  -46.6141 H         1 UNK         0.3000 
    190 H190       -1.5037  -20.0828  -46.7786 H         1 UNK         0.3000 
    191 H191       -3.2919  -20.7986  -48.8504 H         1 UNK         0.0600 
    192 H192       -3.7494  -18.9981  -47.1915 H         1 UNK         0.0600 
    193 H193       -5.0702  -20.1530  -47.2855 H         1 UNK         0.0600 
    194 H194       -3.9563  -20.2145  -45.9294 H         1 UNK         0.0600 
    195 H195       -2.5588  -22.4928  -45.7671 H         1 UNK         0.3000 
    196 H196       -4.3367  -24.6746  -46.1438 H         1 UNK         0.0600 
    197 H197       -2.9312  -25.7738  -44.3938 H         1 UNK         0.0600 
    198 H198       -3.3465  -24.1251  -43.9504 H         1 UNK         0.0600 
    199 H199       -1.7302  -24.4967  -44.5433 H         1 UNK         0.0600 
    200 H200       -0.8687  -24.2833  -47.0351 H         1 UNK         0.3000 
    201 H201       -0.4903  -26.8388  -48.1978 H         1 UNK         0.0600 
    202 H202        1.3603  -25.2739  -47.5722 H         1 UNK         0.0600 
    203 H203        0.8953  -24.1939  -48.8864 H         1 UNK         0.0600 
    204 H204        1.5008  -25.8043  -49.2421 H         1 UNK         0.0600 
    205 H205       -1.7832  -23.8343  -49.5631 H         1 UNK         0.3000 
    206 H206       -2.1918  -24.8427  -52.2504 H         1 UNK         0.0600 
    207 H207       -1.7763  -22.4514  -51.8171 H         1 UNK         0.0600 
    208 H208       -3.3859  -22.6307  -52.4918 H         1 UNK         0.0600 
    209 H209       -3.1886  -22.3600  -50.7703 H         1 UNK         0.0600 
    210 H210       -3.6127  -26.0323  -49.6261 H         1 UNK         0.3000 
    211 H211       -5.4196  -27.1872  -49.1411 H         1 UNK         0.0600 
    212 H212       -6.0629  -27.1315  -52.1361 H         1 UNK         0.0600 
    213 H213       -6.7239  -28.2488  -50.9523 H         1 UNK         0.0600 
    214 H214       -5.0096  -28.2919  -51.3313 H         1 UNK         0.0600 
    215 H215       -5.6277  -24.6867  -48.4399 H         1 UNK         0.3000 
    216 H216       -6.9618  -23.1540  -47.5931 H         1 UNK         0.0600 
    217 H217       -8.6247  -24.9521  -47.0633 H         1 UNK         0.0600 
    218 H218       -9.4100  -24.6821  -48.6190 H         1 UNK         0.0600 
    219 H219       -9.3888  -23.4094  -47.4104 H         1 UNK         0.0600 
    220 H220       -5.6436  -22.6607  -49.7846 H         1 UNK         0.3000 
    221 H221       -5.3048  -21.3108  -51.5132 H         1 UNK         0.0600 
    222 H222       -7.7169  -19.7437  -50.4657 H         1 UNK         0.0600 
    223 H223       -6.0665  -19.6063  -49.8608 H         1 UNK         0.0600 
    224 H224       -6.4441  -19.1215  -51.5064 H         1 UNK         0.0600 
    225 H225       -6.5227  -23.6087  -52.3137 H         1 UNK         0.3000 
    226 H226       -8.6117  -22.9979  -54.2985 H         1 UNK         0.0600 
    227 H227       -8.6607  -25.1453  -53.0262 H         1 UNK         0.0600 
    228 H228       -8.4638  -25.4328  -54.7489 H         1 UNK         0.0600 
    229 H229       -7.0790  -25.5764  -53.6737 H         1 UNK         0.0600 
    230 H230       -5.1536  -23.1309  -54.0788 H         1 UNK         0.3000 
    231 H231       -4.5178  -23.5243  -56.8648 H         1 UNK         0.0600 
    232 H232       -2.9632  -23.9570  -54.8697 H         1 UNK         0.0600 
    233 H233       -2.8168  -22.2079  -54.6773 H         1 UNK         0.0600 
    234 H234       -2.2436  -22.9869  -56.1411 H         1 UNK         0.0600 
    235 H235       -3.0570  -21.7550  -57.9139 H         1 UNK         0.3000 
    236 H236       -4.6408  -19.3894  -58.4493 H         1 UNK         0.0600 
    237 H237       -3.4781  -20.6176  -60.2537 H         1 UNK         0.0600 
    238 H238       -2.8633  -18.9772  -60.1434 H         1 UNK         0.0600 
    239 H239       -1.9145  -20.3117  -59.4977 H         1 UNK         0.0600 
    240 H240       -4.4068  -18.9283  -55.9946 H         1 UNK         0.3000 
    241 H241       -2.0357  -17.6488  -55.0300 H         1 UNK         0.0600 
    242 H242       -4.3547  -16.2889  -57.2328 H         1 UNK         0.3800 
    243 H243       -3.9406  -14.6233  -56.9222 H         1 UNK         0.3800 
    244 H244       -3.4897  -16.9773  -53.0938 H         1 UNK         0.0800 
    245 H245       -4.8942  -17.5614  -53.9445 H         1 UNK         0.0800 
    246 H246       -3.2199  -20.0136  -50.9027 H         1 UNK         0.0800 
    247 H247       -4.0058  -18.4608  -51.0086 H         1 UNK         0.0800 
@<TRIPOS>BOND
     1    1    2 1    
     2    1  127 1    
     3    1  128 1    
     4    1  129 1    
     5    2    3 2    
     6    2    4 am   BACKBONE|DICT|INTERRES
     7    4    5 1    
     8    4  130 1    
     9    5    6 1    
    10    5   65 1    
    11    5  131 1    
    12    6    7 1    
    13    6  132 1    
    14    6  133 1    
    15    7    8 1    
    16    8    9 1    
    17    8  134 1    
    18    8  135 1    
    19    9   10 ar   
    20    9   14 ar   
    21   10   11 ar   
    22   10  136 1    
    23   11   12 ar   
    24   11  126 1    
    25   12   13 ar   
    26   12  137 1    
    27   13   14 ar   
    28   13   15 1    
    29   14  138 1    
    30   15   16 1    
    31   15  139 1    
    32   15  140 1    
    33   16   17 1    
    34   17   18 1    
    35   17  141 1    
    36   17  142 1    
    37   18   19 1    
    38   18   67 1    
    39   18  143 1    
    40   19   20 am   BACKBONE|DICT|INTERRES
    41   19  144 1    
    42   20   21 2    
    43   20   22 1    
    44   22   23 1    
    45   22   24 1    
    46   22  145 1    
    47   23  146 1    
    48   23  147 1    
    49   23  148 1    
    50   24   25 am   BACKBONE|DICT|INTERRES
    51   24  149 1    
    52   25   26 2    
    53   25   27 1    
    54   27   28 1    
    55   27   29 1    
    56   27  150 1    
    57   28  151 1    
    58   28  152 1    
    59   28  153 1    
    60   29   30 am   BACKBONE|DICT|INTERRES
    61   29  154 1    
    62   30   31 2    
    63   30   32 1    
    64   32   33 1    
    65   32   34 1    
    66   32  155 1    
    67   33  156 1    
    68   33  157 1    
    69   33  158 1    
    70   34   35 am   BACKBONE|DICT|INTERRES
    71   34  159 1    
    72   35   36 2    
    73   35   37 1    
    74   37   38 1    
    75   37   39 1    
    76   37  160 1    
    77   38  161 1    
    78   38  162 1    
    79   38  163 1    
    80   39   40 am   BACKBONE|DICT|INTERRES
    81   39  164 1    
    82   40   41 2    
    83   40   42 1    
    84   42   43 1    
    85   42   44 1    
    86   42  165 1    
    87   43  166 1    
    88   43  167 1    
    89   43  168 1    
    90   44   45 am   BACKBONE|DICT|INTERRES
    91   44  169 1    
    92   45   46 2    
    93   45   47 1    
    94   47   48 1    
    95   47   49 1    
    96   47  170 1    
    97   48  171 1    
    98   48  172 1    
    99   48  173 1    
   100   49   50 am   BACKBONE|DICT|INTERRES
   101   49  174 1    
   102   50   51 2    
   103   50   52 1    
   104   52   53 1    
   105   52   54 1    
   106   52  175 1    
   107   53  176 1    
   108   53  177 1    
   109   53  178 1    
   110   54   55 am   BACKBONE|DICT|INTERRES
   111   54  179 1    
   112   55   56 2    
   113   55   57 1    
   114   57   58 1    
   115   57   59 1    
   116   57  180 1    
   117   58  181 1    
   118   58  182 1    
   119   58  183 1    
   120   59   60 am   BACKBONE|DICT|INTERRES
   121   59  184 1    
   122   60   61 2    
   123   60   62 1    
   124   62   63 1    
   125   62   64 1    
   126   62  185 1    
   127   63  186 1    
   128   63  187 1    
   129   63  188 1    
   130   64   65 am   BACKBONE|DICT|INTERRES
   131   64  189 1    
   132   65   66 2    
   133   67   68 2    
   134   67   69 am   BACKBONE|DICT|INTERRES
   135   69   70 1    
   136   69  190 1    
   137   70   71 1    
   138   70   72 1    
   139   70  191 1    
   140   71  192 1    
   141   71  193 1    
   142   71  194 1    
   143   72   73 2    
   144   72   74 am   BACKBONE|DICT|INTERRES
   145   74   75 1    
   146   74  195 1    
   147   75   76 1    
   148   75   77 1    
   149   75  196 1    
   150   76  197 1    
   151   76  198 1    
   152   76  199 1    
   153   77   78 2    
   154   77   79 am   BACKBONE|DICT|INTERRES
   155   79   80 1    
   156   79  200 1    
   157   80   81 1    
   158   80   82 1    
   159   80  201 1    
   160   81  202 1    
   161   81  203 1    
   162   81  204 1    
   163   82   83 2    
   164   82   84 am   BACKBONE|DICT|INTERRES
   165   84   85 1    
   166   84  205 1    
   167   85   86 1    
   168   85   87 1    
   169   85  206 1    
   170   86  207 1    
   171   86  208 1    
   172   86  209 1    
   173   87   88 2    
   174   87   89 am   BACKBONE|DICT|INTERRES
   175   89   90 1    
   176   89  210 1    
   177   90   91 1    
   178   90   92 1    
   179   90  211 1    
   180   91  212 1    
   181   91  213 1    
   182   91  214 1    
   183   92   93 2    
   184   92   94 am   BACKBONE|DICT|INTERRES
   185   94   95 1    
   186   94  215 1    
   187   95   96 1    
   188   95   97 1    
   189   95  216 1    
   190   96  217 1    
   191   96  218 1    
   192   96  219 1    
   193   97   98 2    
   194   97   99 am   BACKBONE|DICT|INTERRES
   195   99  100 1    
   196   99  220 1    
   197  100  101 1    
   198  100  102 1    
   199  100  221 1    
   200  101  222 1    
   201  101  223 1    
   202  101  224 1    
   203  102  103 2    
   204  102  104 am   BACKBONE|DICT|INTERRES
   205  104  105 1    
   206  104  225 1    
   207  105  106 1    
   208  105  107 1    
   209  105  226 1    
   210  106  227 1    
   211  106  228 1    
   212  106  229 1    
   213  107  108 2    
   214  107  109 am   BACKBONE|DICT|INTERRES
   215  109  110 1    
   216  109  230 1    
   217  110  111 1    
   218  110  112 1    
   219  110  231 1    
   220  111  232 1    
   221  111  233 1    
   222  111  234 1    
   223  112  113 2    
   224  112  114 am   BACKBONE|DICT|INTERRES
   225  114  115 1    
   226  114  235 1    
   227  115  116 1    
   228  115  117 1    
   229  115  236 1    
   230  116  237 1    
   231  116  238 1    
   232  116  239 1    
   233  117  118 2    
   234  117  119 am   BACKBONE|DICT|INTERRES
   235  119  120 1    
   236  119  240 1    
   237  120  121 1    
   238  120  124 1    
   239  120  241 1    
   240  121  122 am   BACKBONE|DICT|INTERRES
   241  121  123 2    
   242  122  242 1    
   243  122  243 1    
   244  124  125 1    
   245  124  244 1    
   246  124  245 1    
   247  125  126 1    
   248  126  246 1    
   249  126  247 1    
@<TRIPOS>SUBSTRUCTURE
     1 UNK         1 GROUP             0       ****    0 ROOT    
