@<TRIPOS>MOLECULE
3R540
247   249    1
SMALL
USER_CHARGES


@<TRIPOS>ATOM
      1 CA          3.8163  -13.9989  -43.8943 C.3       0 UNK        -0.1800 
      2 C           2.8246  -13.7331  -45.0162 C.2       0 UNK         0.5000 
      3 O           1.7225  -14.2812  -45.0055 O.2       0 UNK        -0.5000 
      4 N           3.2092  -12.8873  -45.9770 N.am      1 UNK        -0.5000 
      5 CA          2.3669  -12.4423  -47.0858 C.3       1 UNK         0.1400 
      6 C6          2.7230  -13.1415  -48.4219 C.3       23 UNK        -0.0398 
      7 S7          2.1759  -14.8781  -48.4267 S.3       23 UNK        -0.2404 
      8 C8          1.7662  -15.1398  -50.1795 C.3       23 UNK        -0.0205 
      9 C9          1.1385  -16.5106  -50.3672 C.ar      23 UNK        -0.0193 
     10 C10        -0.2342  -16.6380  -50.6044 C.ar      23 UNK        -0.1150 
     11 C11        -0.8211  -17.9038  -50.6881 C.ar      23 UNK        -0.0193 
     12 C12        -0.0241  -19.0423  -50.5475 C.ar      23 UNK        -0.1150 
     13 C13         1.3482  -18.9277  -50.3107 C.ar      23 UNK        -0.0193 
     14 C14         1.9271  -17.6586  -50.2420 C.ar      23 UNK        -0.1150 
     15 C15         2.1874  -20.1736  -50.0591 C.3       23 UNK        -0.0205 
     16 S16         2.7514  -20.3011  -48.3255 S.3       23 UNK        -0.2404 
     17 C17         1.1873  -20.1892  -47.3910 C.3       23 UNK        -0.0398 
     18 CA          0.6363  -21.5642  -46.9554 C.3       11 UNK         0.1400 
     19 N           1.4988  -22.2367  -45.9828 N.am      11 UNK        -0.5000 
     20 C           1.3701  -23.5156  -45.6060 C.2       10 UNK         0.5000 
     21 O           0.5315  -24.2866  -46.0729 O.2       10 UNK        -0.5000 
     22 CA          2.3056  -23.9945  -44.4808 C.3       10 UNK         0.1400 
     23 CB          3.6959  -24.3362  -45.0371 C.3       10 UNK        -0.1800 
     24 N           2.4384  -23.0093  -43.4049 N.am      10 UNK        -0.5000 
     25 C           1.4361  -22.6400  -42.5949 C.2       9 UNK         0.5000 
     26 O           0.3030  -23.1154  -42.6522 O.2       9 UNK        -0.5000 
     27 CA          1.7336  -21.5253  -41.5749 C.3       9 UNK         0.1400 
     28 CB          2.3326  -22.1183  -40.2913 C.3       9 UNK        -0.1800 
     29 N           2.6095  -20.4583  -42.0674 N.am      9 UNK        -0.5000 
     30 C           2.4028  -19.7166  -43.1645 C.2       8 UNK         0.5000 
     31 O           1.4957  -19.9271  -43.9708 O.2       8 UNK        -0.5000 
     32 CA          3.3505  -18.5199  -43.3486 C.3       8 UNK         0.1400 
     33 CB          3.1092  -17.7665  -44.6701 C.3       8 UNK        -0.1800 
     34 N           3.1359  -17.6077  -42.2292 N.am      8 UNK        -0.5000 
     35 C           3.9575  -17.4418  -41.1843 C.2       7 UNK         0.5000 
     36 O           5.0638  -17.9755  -41.0990 O.2       7 UNK        -0.5000 
     37 CA          3.4555  -16.5611  -40.0190 C.3       7 UNK         0.1400 
     38 CB          4.0135  -15.1347  -40.1342 C.3       7 UNK        -0.1800 
     39 N           1.9957  -16.4928  -39.9262 N.am      7 UNK        -0.5000 
     40 C           1.1982  -17.5151  -39.5850 C.2       6 UNK         0.5000 
     41 O           1.6185  -18.6069  -39.2015 O.2       6 UNK        -0.5000 
     42 CA         -0.3251  -17.2959  -39.7193 C.3       6 UNK         0.1400 
     43 CB         -0.9448  -16.9933  -38.3466 C.3       6 UNK        -0.1800 
     44 N          -0.7281  -16.2446  -40.6652 N.am      6 UNK        -0.5000 
     45 C          -0.4135  -16.2131  -41.9673 C.2       5 UNK         0.5000 
     46 O           0.3343  -17.0357  -42.4988 O.2       5 UNK        -0.5000 
     47 CA         -0.9919  -15.0460  -42.7931 C.3       5 UNK         0.1400 
     48 CB         -0.3150  -13.7197  -42.4082 C.3       5 UNK        -0.1800 
     49 N          -0.7985  -15.2751  -44.2247 N.am      5 UNK        -0.5000 
     50 C          -1.4780  -16.1798  -44.9397 C.2       4 UNK         0.5000 
     51 O          -2.4768  -16.7701  -44.5213 O.2       4 UNK        -0.5000 
     52 CA         -0.9326  -16.4619  -46.3531 C.3       4 UNK         0.1400 
     53 CB         -1.6120  -17.6722  -47.0235 C.3       4 UNK        -0.1800 
     54 N          -0.9808  -15.2858  -47.2275 N.am      4 UNK        -0.5000 
     55 C          -2.0720  -14.6170  -47.6264 C.2       3 UNK         0.5000 
     56 O          -3.2203  -14.8777  -47.2664 O.2       3 UNK        -0.5000 
     57 CA         -1.8165  -13.4188  -48.5509 C.3       3 UNK         0.1400 
     58 CB         -3.0678  -12.9746  -49.3330 C.3       3 UNK        -0.1800 
     59 N          -1.3193  -12.3222  -47.7304 N.am      3 UNK        -0.5000 
     60 C          -0.5031  -11.3505  -48.1486 C.2       2 UNK         0.5000 
     61 O          -0.1253  -11.2302  -49.3149 O.2       2 UNK        -0.5000 
     62 CA          0.0263  -10.3700  -47.0786 C.3       2 UNK         0.1400 
     63 CB         -0.3201  -10.7490  -45.6181 C.3       2 UNK        -0.1800 
     64 N           1.4639  -10.0899  -47.2110 N.am      2 UNK        -0.5000 
     65 C           2.5279  -10.9122  -47.2004 C.2       1 UNK         0.5000 
     66 O           3.6711  -10.4610  -47.2854 O.2       1 UNK        -0.5000 
     67 C          -0.7932  -21.4040  -46.4092 C.2       11 UNK         0.5000 
     68 O          -1.7488  -21.6518  -47.1429 O.2       11 UNK        -0.5000 
     69 N          -0.9116  -21.0097  -45.1334 N.am      12 UNK        -0.5000 
     70 CA         -2.1832  -20.8318  -44.4320 C.3       12 UNK         0.1400 
     71 CB         -1.9237  -20.1872  -43.0620 C.3       12 UNK        -0.1800 
     72 C          -2.9740  -22.1459  -44.2882 C.2       12 UNK         0.5000 
     73 O          -4.1964  -22.1355  -44.4359 O.2       12 UNK        -0.5000 
     74 N          -2.2626  -23.2530  -44.0327 N.am      13 UNK        -0.5000 
     75 CA         -2.8189  -24.6040  -43.9824 C.3       13 UNK         0.1400 
     76 CB         -1.7913  -25.5586  -43.3554 C.3       13 UNK        -0.1800 
     77 C          -3.2620  -25.1159  -45.3653 C.2       13 UNK         0.5000 
     78 O          -4.3160  -25.7455  -45.4642 O.2       13 UNK        -0.5000 
     79 N          -2.4553  -24.8443  -46.4015 N.am      14 UNK        -0.5000 
     80 CA         -2.7343  -25.2275  -47.7858 C.3       14 UNK         0.1400 
     81 CB         -1.4640  -25.0577  -48.6339 C.3       14 UNK        -0.1800 
     82 C          -3.9046  -24.4389  -48.3981 C.2       14 UNK         0.5000 
     83 O          -4.7848  -25.0409  -49.0151 O.2       14 UNK        -0.5000 
     84 N          -3.8872  -23.1092  -48.2252 N.am      15 UNK        -0.5000 
     85 CA         -4.8327  -22.1382  -48.7794 C.3       15 UNK         0.1400 
     86 CB         -6.1810  -22.2189  -48.0305 C.3       15 UNK        -0.1800 
     87 C          -4.9417  -22.2849  -50.3121 C.2       15 UNK         0.5000 
     88 O          -3.9253  -22.1686  -50.9969 O.2       15 UNK        -0.5000 
     89 N          -6.1402  -22.5938  -50.8242 N.am      16 UNK        -0.5000 
     90 CA         -6.4321  -22.8239  -52.2426 C.3       16 UNK         0.1400 
     91 CB         -7.9482  -23.0038  -52.4104 C.3       16 UNK        -0.1800 
     92 C          -5.6691  -24.0045  -52.8841 C.2       16 UNK         0.5000 
     93 O          -5.6152  -24.0827  -54.1116 O.2       16 UNK        -0.5000 
     94 N          -5.0822  -24.8966  -52.0709 N.am      17 UNK        -0.5000 
     95 CA         -4.2053  -25.9693  -52.5440 C.3       17 UNK         0.1400 
     96 CB         -4.0925  -27.0611  -51.4689 C.3       17 UNK        -0.1800 
     97 C          -2.8055  -25.4661  -52.9520 C.2       17 UNK         0.5000 
     98 O          -2.1226  -26.1652  -53.7016 O.2       17 UNK        -0.5000 
     99 N          -2.3914  -24.2842  -52.4654 N.am      18 UNK        -0.5000 
    100 CA        -1.1137  -23.6624  -52.8220 C.3       18 UNK         0.1400 
    101 CB        -0.7613  -22.5699  -51.8018 C.3       18 UNK        -0.1800 
    102 C         -1.1374  -23.0807  -54.2464 C.2       18 UNK         0.5000 
    103 O         -0.1720  -23.2513  -54.9919 O.2       18 UNK        -0.5000 
    104 N         -2.2496  -22.4280  -54.5988 N.am      19 UNK        -0.5000 
    105 CA        -2.5316  -21.8398  -55.9018 C.3       19 UNK         0.1400 
    106 CB        -1.6966  -20.5622  -56.1125 C.3       19 UNK        -0.1800 
    107 C         -4.0262  -21.5090  -55.9514 C.2       19 UNK         0.5000 
    108 O         -4.6054  -21.1758  -54.9157 O.2       19 UNK        -0.5000 
    109 N         -4.6186  -21.5475  -57.1521 N.am      20 UNK        -0.5000 
    110 CA        -6.0345  -21.2356  -57.3864 C.3       20 UNK         0.1400 
    111 CB        -6.3805  -21.5208  -58.8554 C.3       20 UNK        -0.1800 
    112 C         -6.4155  -19.7892  -57.0109 C.2       20 UNK         0.5000 
    113 O         -7.5379  -19.5485  -56.5642 O.2       20 UNK        -0.5000 
    114 N         -5.4517  -18.8658  -57.1415 N.am      21 UNK        -0.5000 
    115 CA        -5.5510  -17.4638  -56.7286 C.3       21 UNK         0.1400 
    116 CB        -4.2910  -16.7208  -57.1988 C.3       21 UNK        -0.1800 
    117 C         -5.7520  -17.2724  -55.2104 C.2       21 UNK         0.5000 
    118 O         -6.2812  -16.2386  -54.8003 O.2       21 UNK        -0.5000 
    119 N         -5.3477  -18.2676  -54.4109 N.am      22 UNK        -0.5000 
    120 CA        -5.5754  -18.3263  -52.9606 C.3       22 UNK         0.1400 
    121 C         -6.9971  -18.8345  -52.5715 C.2       22 UNK         0.5000 
    122 N         -7.8448  -19.2589  -53.5031 N.am      22 UNK        -0.7600 
    123 O         -7.3437  -18.8363  -51.3939 O.2       22 UNK        -0.5000 
    124 C124       -4.4844  -19.1611  -52.2462 C.3       23 UNK        -0.0398 
    125 S125       -2.7842  -18.5572  -52.5272 S.3       23 UNK        -0.2404 
    126 C126       -2.3251  -18.0564  -50.8415 C.3       23 UNK        -0.0205 
    127 H127        3.6498  -14.9856  -43.4644 H         1 UNK         0.0600 
    128 H128        3.6927  -13.2582  -43.1048 H         1 UNK         0.0600 
    129 H129        4.8440  -13.9545  -44.2545 H         1 UNK         0.0600 
    130 H130        4.1101  -12.4307  -45.9226 H         1 UNK         0.3000 
    131 H131        1.3378  -12.6881  -46.8482 H         1 UNK         0.0600 
    132 H132        2.2484  -12.6293  -49.2606 H         1 UNK         0.0800 
    133 H133        3.7975  -13.1057  -48.6090 H         1 UNK         0.0800 
    134 H134        1.0890  -14.3564  -50.5233 H         1 UNK         0.0800 
    135 H135        2.6716  -15.0618  -50.7832 H         1 UNK         0.0800 
    136 H136       -0.8518  -15.7556  -50.6890 H         1 UNK         0.1150 
    137 H137       -0.4857  -20.0181  -50.5777 H         1 UNK         0.1150 
    138 H138        2.9837  -17.5633  -50.0342 H         1 UNK         0.1150 
    139 H139        1.6275  -21.0747  -50.3119 H         1 UNK         0.0800 
    140 H140        3.0580  -20.1591  -50.7160 H         1 UNK         0.0800 
    141 H141        1.3586  -19.5510  -46.5246 H         1 UNK         0.0800 
    142 H142        0.4455  -19.6600  -47.9841 H         1 UNK         0.0800 
    143 H143        0.5730  -22.1989  -47.8421 H         1 UNK         0.0600 
    144 H144        2.1693  -21.6532  -45.5040 H         1 UNK         0.3000 
    145 H145        1.8752  -24.9040  -44.0560 H         1 UNK         0.0600 
    146 H146        4.3400  -24.7504  -44.2612 H         1 UNK         0.0600 
    147 H147        3.6253  -25.0807  -45.8313 H         1 UNK         0.0600 
    148 H148        4.1923  -23.4586  -45.4532 H         1 UNK         0.0600 
    149 H149        3.3375  -22.5645  -43.2941 H         1 UNK         0.3000 
    150 H150        0.7817  -21.0587  -41.3158 H         1 UNK         0.0600 
    151 H151        1.6908  -22.9015  -39.8856 H         1 UNK         0.0600 
    152 H152        2.4401  -21.3568  -39.5184 H         1 UNK         0.0600 
    153 H153        3.3149  -22.5572  -40.4702 H         1 UNK         0.0600 
    154 H154        3.3684  -20.1928  -41.4562 H         1 UNK         0.3000 
    155 H155        4.3732  -18.9018  -43.3573 H         1 UNK         0.0600 
    156 H156        3.8209  -16.9514  -44.7937 H         1 UNK         0.0600 
    157 H157        2.1046  -17.3439  -44.7186 H         1 UNK         0.0600 
    158 H158        3.2336  -18.4293  -45.5267 H         1 UNK         0.0600 
    159 H159        2.2014  -17.2077  -42.1897 H         1 UNK         0.3000 
    160 H160        3.8342  -17.0003  -39.0938 H         1 UNK         0.0600 
    161 H161        3.6105  -14.6145  -41.0027 H         1 UNK         0.0600 
    162 H162        5.1001  -15.1437  -40.2292 H         1 UNK         0.0600 
    163 H163        3.7708  -14.5454  -39.2497 H         1 UNK         0.0600 
    164 H164        1.5616  -15.6316  -40.2224 H         1 UNK         0.3000 
    165 H165       -0.7471  -18.2350  -40.0837 H         1 UNK         0.0600 
    166 H166       -0.5886  -16.0433  -37.9462 H         1 UNK         0.0600 
    167 H167       -2.0325  -16.9482  -38.4047 H         1 UNK         0.0600 
    168 H168       -0.6927  -17.7697  -37.6229 H         1 UNK         0.0600 
    169 H169       -1.3292  -15.5230  -40.2941 H         1 UNK         0.3000 
    170 H170       -2.0618  -14.9704  -42.5891 H         1 UNK         0.0600 
    171 H171       -0.5270  -13.4544  -41.3721 H         1 UNK         0.0600 
    172 H172        0.7688  -13.7735  -42.5162 H         1 UNK         0.0600 
    173 H173       -0.6723  -12.8990  -43.0306 H         1 UNK         0.0600 
    174 H174        0.0578  -14.8871  -44.6180 H         1 UNK         0.3000 
    175 H175        0.1231  -16.7112  -46.2318 H         1 UNK         0.0600 
    176 H176       -1.1440  -17.9022  -47.9770 H         1 UNK         0.0600 
    177 H177       -1.5224  -18.5567  -46.3962 H         1 UNK         0.0600 
    178 H178       -2.6747  -17.5061  -47.2007 H         1 UNK         0.0600 
    179 H179       -0.0764  -14.9658  -47.5496 H         1 UNK         0.3000 
    180 H180       -1.0498  -13.7159  -49.2693 H         1 UNK         0.0600 
    181 H181       -2.8318  -12.1727  -50.0326 H         1 UNK         0.0600 
    182 H182       -3.4777  -13.8018  -49.9140 H         1 UNK         0.0600 
    183 H183       -3.8538  -12.6162  -48.6673 H         1 UNK         0.0600 
    184 H184       -1.5746  -12.3630  -46.7528 H         1 UNK         0.3000 
    185 H185       -0.4757   -9.4241  -47.2873 H         1 UNK         0.0600 
    186 H186        0.0589   -9.9972  -44.9256 H         1 UNK         0.0600 
    187 H187       -1.3993  -10.7931  -45.4666 H         1 UNK         0.0600 
    188 H188        0.0953  -11.7082  -45.3110 H         1 UNK         0.0600 
    189 H189        1.6659   -9.1086  -47.3377 H         1 UNK         0.3000 
    190 H190       -0.0669  -20.7775  -44.6161 H         1 UNK         0.3000 
    191 H191       -2.7927  -20.1423  -45.0196 H         1 UNK         0.0600 
    192 H192       -2.8615  -19.9719  -42.5490 H         1 UNK         0.0600 
    193 H193       -1.3851  -19.2445  -43.1652 H         1 UNK         0.0600 
    194 H194       -1.3374  -20.8393  -42.4154 H         1 UNK         0.0600 
    195 H195       -1.2688  -23.1637  -43.8438 H         1 UNK         0.3000 
    196 H196       -3.6993  -24.5841  -43.3365 H         1 UNK         0.0600 
    197 H197       -2.1820  -26.5756  -43.3031 H         1 UNK         0.0600 
    198 H198       -1.5406  -25.2541  -42.3391 H         1 UNK         0.0600 
    199 H199       -0.8661  -25.5898  -43.9321 H         1 UNK         0.0600 
    200 H200       -1.5799  -24.3630  -46.2298 H         1 UNK         0.3000 
    201 H201       -3.0062  -26.2851  -47.7978 H         1 UNK         0.0600 
    202 H202       -0.6637  -25.7057  -48.2764 H         1 UNK         0.0600 
    203 H203       -1.0973  -24.0314  -48.6065 H         1 UNK         0.0600 
    204 H204       -1.6482  -25.3137  -49.6779 H         1 UNK         0.0600 
    205 H205       -3.0899  -22.6970  -47.7429 H         1 UNK         0.3000 
    206 H206       -4.4058  -21.1512  -48.5958 H         1 UNK         0.0600 
    207 H207       -6.0371  -22.0556  -46.9621 H         1 UNK         0.0600 
    208 H208       -6.8739  -21.4523  -48.3799 H         1 UNK         0.0600 
    209 H209       -6.6631  -23.1899  -48.1495 H         1 UNK         0.0600 
    210 H210       -6.9139  -22.7082  -50.1861 H         1 UNK         0.3000 
    211 H211       -6.1401  -21.9255  -52.7879 H         1 UNK         0.0600 
    212 H212       -8.3115  -23.8779  -51.8687 H         1 UNK         0.0600 
    213 H213       -8.2128  -23.1332  -53.4608 H         1 UNK         0.0600 
    214 H214       -8.4908  -22.1307  -52.0473 H         1 UNK         0.0600 
    215 H215       -5.1654  -24.7868  -51.0656 H         1 UNK         0.3000 
    216 H216       -4.6622  -26.4217  -53.4268 H         1 UNK         0.0600 
    217 H217       -3.5704  -27.9353  -51.8597 H         1 UNK         0.0600 
    218 H218       -5.0751  -27.3925  -51.1327 H         1 UNK         0.0600 
    219 H219       -3.5356  -26.7169  -50.5981 H         1 UNK         0.0600 
    220 H220       -3.0138  -23.7356  -51.8804 H         1 UNK         0.3000 
    221 H221       -0.3332  -24.4252  -52.7793 H         1 UNK         0.0600 
    222 H222       -1.4792  -21.7498  -51.8287 H         1 UNK         0.0600 
    223 H223       -0.7368  -22.9628  -50.7861 H         1 UNK         0.0600 
    224 H224        0.2213  -22.1479  -52.0145 H         1 UNK         0.0600 
    225 H225       -3.0091  -22.3382  -53.9348 H         1 UNK         0.3000 
    226 H226       -2.3009  -22.5702  -56.6798 H         1 UNK         0.0600 
    227 H227       -0.6281  -20.7765  -56.1124 H         1 UNK         0.0600 
    228 H228       -1.9298  -20.0941  -57.0694 H         1 UNK         0.0600 
    229 H229       -1.8889  -19.8259  -55.3308 H         1 UNK         0.0600 
    230 H230       -4.0775  -21.8181  -57.9607 H         1 UNK         0.3000 
    231 H231       -6.6287  -21.9028  -56.7581 H         1 UNK         0.0600 
    232 H232       -7.4339  -21.3192  -59.0546 H         1 UNK         0.0600 
    233 H233       -6.1981  -22.5654  -59.1083 H         1 UNK         0.0600 
    234 H234       -5.7935  -20.9020  -59.5352 H         1 UNK         0.0600 
    235 H235       -4.5611  -19.1629  -57.5112 H         1 UNK         0.3000 
    236 H236       -6.4169  -17.0280  -57.2310 H         1 UNK         0.0600 
    237 H237       -3.3892  -17.1316  -56.7425 H         1 UNK         0.0600 
    238 H238       -4.1779  -16.7796  -58.2815 H         1 UNK         0.0600 
    239 H239       -4.3394  -15.6633  -56.9355 H         1 UNK         0.0600 
    240 H240       -4.9513  -19.1054  -54.8197 H         1 UNK         0.3000 
    241 H241       -5.5082  -17.3105  -52.5670 H         1 UNK         0.0600 
    242 H242       -8.7619  -19.5694  -53.2260 H         1 UNK         0.3800 
    243 H243       -7.5938  -19.2622  -54.4842 H         1 UNK         0.3800 
    244 H244       -4.5216  -20.1938  -52.5865 H         1 UNK         0.0800 
    245 H245       -4.6803  -19.1991  -51.1738 H         1 UNK         0.0800 
    246 H246       -2.6685  -18.8064  -50.1270 H         1 UNK         0.0800 
    247 H247       -2.8390  -17.1282  -50.5866 H         1 UNK         0.0800 
@<TRIPOS>BOND
     1    1    2 1    
     2    1  127 1    
     3    1  128 1    
     4    1  129 1    
     5    2    3 2    
     6    2    4 am   BACKBONE|DICT|INTERRES
     7    4    5 1    
     8    4  130 1    
     9    5    6 1    
    10    5   65 1    
    11    5  131 1    
    12    6    7 1    
    13    6  132 1    
    14    6  133 1    
    15    7    8 1    
    16    8    9 1    
    17    8  134 1    
    18    8  135 1    
    19    9   10 ar   
    20    9   14 ar   
    21   10   11 ar   
    22   10  136 1    
    23   11   12 ar   
    24   11  126 1    
    25   12   13 ar   
    26   12  137 1    
    27   13   14 ar   
    28   13   15 1    
    29   14  138 1    
    30   15   16 1    
    31   15  139 1    
    32   15  140 1    
    33   16   17 1    
    34   17   18 1    
    35   17  141 1    
    36   17  142 1    
    37   18   19 1    
    38   18   67 1    
    39   18  143 1    
    40   19   20 am   BACKBONE|DICT|INTERRES
    41   19  144 1    
    42   20   21 2    
    43   20   22 1    
    44   22   23 1    
    45   22   24 1    
    46   22  145 1    
    47   23  146 1    
    48   23  147 1    
    49   23  148 1    
    50   24   25 am   BACKBONE|DICT|INTERRES
    51   24  149 1    
    52   25   26 2    
    53   25   27 1    
    54   27   28 1    
    55   27   29 1    
    56   27  150 1    
    57   28  151 1    
    58   28  152 1    
    59   28  153 1    
    60   29   30 am   BACKBONE|DICT|INTERRES
    61   29  154 1    
    62   30   31 2    
    63   30   32 1    
    64   32   33 1    
    65   32   34 1    
    66   32  155 1    
    67   33  156 1    
    68   33  157 1    
    69   33  158 1    
    70   34   35 am   BACKBONE|DICT|INTERRES
    71   34  159 1    
    72   35   36 2    
    73   35   37 1    
    74   37   38 1    
    75   37   39 1    
    76   37  160 1    
    77   38  161 1    
    78   38  162 1    
    79   38  163 1    
    80   39   40 am   BACKBONE|DICT|INTERRES
    81   39  164 1    
    82   40   41 2    
    83   40   42 1    
    84   42   43 1    
    85   42   44 1    
    86   42  165 1    
    87   43  166 1    
    88   43  167 1    
    89   43  168 1    
    90   44   45 am   BACKBONE|DICT|INTERRES
    91   44  169 1    
    92   45   46 2    
    93   45   47 1    
    94   47   48 1    
    95   47   49 1    
    96   47  170 1    
    97   48  171 1    
    98   48  172 1    
    99   48  173 1    
   100   49   50 am   BACKBONE|DICT|INTERRES
   101   49  174 1    
   102   50   51 2    
   103   50   52 1    
   104   52   53 1    
   105   52   54 1    
   106   52  175 1    
   107   53  176 1    
   108   53  177 1    
   109   53  178 1    
   110   54   55 am   BACKBONE|DICT|INTERRES
   111   54  179 1    
   112   55   56 2    
   113   55   57 1    
   114   57   58 1    
   115   57   59 1    
   116   57  180 1    
   117   58  181 1    
   118   58  182 1    
   119   58  183 1    
   120   59   60 am   BACKBONE|DICT|INTERRES
   121   59  184 1    
   122   60   61 2    
   123   60   62 1    
   124   62   63 1    
   125   62   64 1    
   126   62  185 1    
   127   63  186 1    
   128   63  187 1    
   129   63  188 1    
   130   64   65 am   BACKBONE|DICT|INTERRES
   131   64  189 1    
   132   65   66 2    
   133   67   68 2    
   134   67   69 am   BACKBONE|DICT|INTERRES
   135   69   70 1    
   136   69  190 1    
   137   70   71 1    
   138   70   72 1    
   139   70  191 1    
   140   71  192 1    
   141   71  193 1    
   142   71  194 1    
   143   72   73 2    
   144   72   74 am   BACKBONE|DICT|INTERRES
   145   74   75 1    
   146   74  195 1    
   147   75   76 1    
   148   75   77 1    
   149   75  196 1    
   150   76  197 1    
   151   76  198 1    
   152   76  199 1    
   153   77   78 2    
   154   77   79 am   BACKBONE|DICT|INTERRES
   155   79   80 1    
   156   79  200 1    
   157   80   81 1    
   158   80   82 1    
   159   80  201 1    
   160   81  202 1    
   161   81  203 1    
   162   81  204 1    
   163   82   83 2    
   164   82   84 am   BACKBONE|DICT|INTERRES
   165   84   85 1    
   166   84  205 1    
   167   85   86 1    
   168   85   87 1    
   169   85  206 1    
   170   86  207 1    
   171   86  208 1    
   172   86  209 1    
   173   87   88 2    
   174   87   89 am   BACKBONE|DICT|INTERRES
   175   89   90 1    
   176   89  210 1    
   177   90   91 1    
   178   90   92 1    
   179   90  211 1    
   180   91  212 1    
   181   91  213 1    
   182   91  214 1    
   183   92   93 2    
   184   92   94 am   BACKBONE|DICT|INTERRES
   185   94   95 1    
   186   94  215 1    
   187   95   96 1    
   188   95   97 1    
   189   95  216 1    
   190   96  217 1    
   191   96  218 1    
   192   96  219 1    
   193   97   98 2    
   194   97   99 am   BACKBONE|DICT|INTERRES
   195   99  100 1    
   196   99  220 1    
   197  100  101 1    
   198  100  102 1    
   199  100  221 1    
   200  101  222 1    
   201  101  223 1    
   202  101  224 1    
   203  102  103 2    
   204  102  104 am   BACKBONE|DICT|INTERRES
   205  104  105 1    
   206  104  225 1    
   207  105  106 1    
   208  105  107 1    
   209  105  226 1    
   210  106  227 1    
   211  106  228 1    
   212  106  229 1    
   213  107  108 2    
   214  107  109 am   BACKBONE|DICT|INTERRES
   215  109  110 1    
   216  109  230 1    
   217  110  111 1    
   218  110  112 1    
   219  110  231 1    
   220  111  232 1    
   221  111  233 1    
   222  111  234 1    
   223  112  113 2    
   224  112  114 am   BACKBONE|DICT|INTERRES
   225  114  115 1    
   226  114  235 1    
   227  115  116 1    
   228  115  117 1    
   229  115  236 1    
   230  116  237 1    
   231  116  238 1    
   232  116  239 1    
   233  117  118 2    
   234  117  119 am   BACKBONE|DICT|INTERRES
   235  119  120 1    
   236  119  240 1    
   237  120  121 1    
   238  120  124 1    
   239  120  241 1    
   240  121  122 am   BACKBONE|DICT|INTERRES
   241  121  123 2    
   242  122  242 1    
   243  122  243 1    
   244  124  125 1    
   245  124  244 1    
   246  124  245 1    
   247  125  126 1    
   248  126  246 1    
   249  126  247 1    
@<TRIPOS>SUBSTRUCTURE
     1 UNK         1 GROUP             0       ****    0 ROOT    
