@<TRIPOS>MOLECULE
3R540
247   249    1
SMALL
USER_CHARGES


@<TRIPOS>ATOM
      1 CA          7.1578  -14.6267  -45.3033 C.3       0 UNK        -0.1800 
      2 C           5.9598  -13.7187  -45.0727 C.2       0 UNK         0.5000 
      3 O           5.6372  -13.4133  -43.9257 O.2       0 UNK        -0.5000 
      4 N           5.3124  -13.2703  -46.1563 N.am      1 UNK        -0.5000 
      5 CA          4.0858  -12.4570  -46.1541 C.3       1 UNK         0.1400 
      6 C6          3.5481  -12.1934  -47.5842 C.3       23 UNK        -0.0398 
      7 S7          3.5317  -13.6616  -48.6689 S.3       23 UNK        -0.2404 
      8 C8          1.8777  -14.3467  -48.3592 C.3       23 UNK        -0.0205 
      9 C9          1.5016  -15.3470  -49.4407 C.ar      23 UNK        -0.0193 
     10 C10         0.5600  -15.0048  -50.4146 C.ar      23 UNK        -0.1150 
     11 C11         0.2402  -15.8982  -51.4404 C.ar      23 UNK        -0.0193 
     12 C12         0.8642  -17.1489  -51.4820 C.ar      23 UNK        -0.1150 
     13 C13         1.8036  -17.5073  -50.5096 C.ar      23 UNK        -0.0193 
     14 C14         2.1136  -16.6032  -49.4883 C.ar      23 UNK        -0.1150 
     15 C15         2.5271  -18.8450  -50.5980 C.3       23 UNK        -0.0205 
     16 S16         2.2218  -19.9135  -49.1570 S.3       23 UNK        -0.2404 
     17 C17         0.4543  -20.3055  -49.3601 C.3       23 UNK        -0.0398 
     18 CA          0.0389  -21.5200  -48.4964 C.3       11 UNK         0.1400 
     19 N           0.0861  -21.2445  -47.0555 N.am      11 UNK        -0.5000 
     20 C          -0.0773  -22.1722  -46.1000 C.2       10 UNK         0.5000 
     21 O          -0.2245  -23.3728  -46.3304 O.2       10 UNK        -0.5000 
     22 CA         -0.1515  -21.6735  -44.6453 C.3       10 UNK         0.1400 
     23 CB          1.2484  -21.3841  -44.0839 C.3       10 UNK        -0.1800 
     24 N          -0.9987  -20.4890  -44.5077 N.am      10 UNK        -0.5000 
     25 C          -2.3154  -20.4639  -44.7586 C.2       9 UNK         0.5000 
     26 O          -2.9706  -21.4602  -45.0612 O.2       9 UNK        -0.5000 
     27 CA         -3.0076  -19.0892  -44.7179 C.3       9 UNK         0.1400 
     28 CB         -3.4093  -18.7120  -43.2842 C.3       9 UNK        -0.1800 
     29 N          -2.1768  -18.0335  -45.2986 N.am      9 UNK        -0.5000 
     30 C          -1.8391  -17.9657  -46.5949 C.2       8 UNK         0.5000 
     31 O          -2.2357  -18.7596  -47.4466 O.2       8 UNK        -0.5000 
     32 CA         -0.8545  -16.8543  -46.9951 C.3       8 UNK         0.1400 
     33 CB         -1.6023  -15.5414  -47.2710 C.3       8 UNK        -0.1800 
     34 N           0.1735  -16.6424  -45.9732 N.am      8 UNK        -0.5000 
     35 C           1.1490  -17.5267  -45.7109 C.2       7 UNK         0.5000 
     36 O           1.2774  -18.5893  -46.3149 O.2       7 UNK        -0.5000 
     37 CA          2.0991  -17.2111  -44.5383 C.3       7 UNK         0.1400 
     38 CB          3.2514  -16.3064  -44.9975 C.3       7 UNK        -0.1800 
     39 N           1.4136  -16.5892  -43.4055 N.am      7 UNK        -0.5000 
     40 C           0.4144  -17.1649  -42.7191 C.2       6 UNK         0.5000 
     41 O           0.0540  -18.3267  -42.9019 O.2       6 UNK        -0.5000 
     42 CA         -0.3515  -16.2990  -41.6982 C.3       6 UNK         0.1400 
     43 CB          0.1048  -16.6297  -40.2696 C.3       6 UNK        -0.1800 
     44 N          -0.2216  -14.8569  -41.9139 N.am      6 UNK        -0.5000 
     45 C          -0.5494  -14.1824  -43.0266 C.2       5 UNK         0.5000 
     46 O          -1.0751  -14.7042  -44.0099 O.2       5 UNK        -0.5000 
     47 CA         -0.1668  -12.6883  -43.0674 C.3       5 UNK         0.1400 
     48 CB         -1.3996  -11.8102  -42.8082 C.3       5 UNK        -0.1800 
     49 N           0.8874  -12.3344  -42.1088 N.am      5 UNK        -0.5000 
     50 C           2.1494  -12.7819  -42.1638 C.2       4 UNK         0.5000 
     51 O           2.5748  -13.5216  -43.0530 O.2       4 UNK        -0.5000 
     52 CA          3.0476  -12.4218  -40.9761 C.3       4 UNK         0.1400 
     53 CB          3.0769  -13.5791  -39.9597 C.3       4 UNK        -0.1800 
     54 N           4.3957  -12.1262  -41.4460 N.am      4 UNK        -0.5000 
     55 C           5.2963  -11.4104  -40.7600 C.2       3 UNK         0.5000 
     56 O           5.0966  -10.9596  -39.6310 O.2       3 UNK        -0.5000 
     57 CA          6.6322  -11.1151  -41.4596 C.3       3 UNK         0.1400 
     58 CB          7.5864  -12.3168  -41.3672 C.3       3 UNK        -0.1800 
     59 N           6.4225  -10.7476  -42.8589 N.am      3 UNK        -0.5000 
     60 C           6.0839   -9.5164  -43.2692 C.2       2 UNK         0.5000 
     61 O           5.9717   -8.5528  -42.5102 O.2       2 UNK        -0.5000 
     62 CA          5.8361   -9.3122  -44.7762 C.3       2 UNK         0.1400 
     63 CB          7.0882   -8.7311  -45.4510 C.3       2 UNK        -0.1800 
     64 N           5.4579  -10.5444  -45.4659 N.am      2 UNK        -0.5000 
     65 C           4.2456  -11.1134  -45.4089 C.2       1 UNK         0.5000 
     66 O           3.2886  -10.6275  -44.8055 O.2       1 UNK        -0.5000 
     67 C          -1.3367  -22.0624  -48.9323 C.2       11 UNK         0.5000 
     68 O          -1.3819  -23.0389  -49.6792 O.2       11 UNK        -0.5000 
     69 N          -2.4255  -21.4653  -48.4264 N.am      12 UNK        -0.5000 
     70 CA         -3.7965  -21.9192  -48.6613 C.3       12 UNK         0.1400 
     71 CB         -4.7969  -20.9150  -48.0704 C.3       12 UNK        -0.1800 
     72 C          -4.0549  -23.3321  -48.1171 C.2       12 UNK         0.5000 
     73 O          -4.6209  -24.1557  -48.8352 O.2       12 UNK        -0.5000 
     74 N          -3.6093  -23.6008  -46.8823 N.am      13 UNK        -0.5000 
     75 CA         -3.6977  -24.9085  -46.2315 C.3       13 UNK         0.1400 
     76 CB         -3.2277  -24.7943  -44.7738 C.3       13 UNK        -0.1800 
     77 C          -2.9112  -25.9995  -46.9800 C.2       13 UNK         0.5000 
     78 O          -3.4422  -27.0913  -47.1897 O.2       13 UNK        -0.5000 
     79 N          -1.6853  -25.6695  -47.4129 N.am      14 UNK        -0.5000 
     80 CA         -0.8320  -26.5298  -48.2367 C.3       14 UNK         0.1400 
     81 CB          0.5568  -25.8893  -48.3782 C.3       14 UNK        -0.1800 
     82 C          -1.4382  -26.8271  -49.6220 C.2       14 UNK         0.5000 
     83 O          -1.2924  -27.9418  -50.1236 O.2       14 UNK        -0.5000 
     84 N          -2.1485  -25.8444  -50.1891 N.am      15 UNK        -0.5000 
     85 CA         -2.8839  -25.9344  -51.4495 C.3       15 UNK         0.1400 
     86 CB         -2.8653  -24.5589  -52.1351 C.3       15 UNK        -0.1800 
     87 C          -4.3224  -26.4697  -51.2772 C.2       15 UNK         0.5000 
     88 O          -5.1876  -26.1338  -52.0859 O.2       15 UNK        -0.5000 
     89 N          -4.5610  -27.2883  -50.2412 N.am      16 UNK        -0.5000 
     90 CA         -5.8043  -28.0122  -49.9508 C.3       16 UNK         0.1400 
     91 CB         -6.0361  -29.1167  -51.0036 C.3       16 UNK        -0.1800 
     92 C          -7.0257  -27.0860  -49.7722 C.2       16 UNK         0.5000 
     93 O          -8.0833  -27.3329  -50.3542 O.2       16 UNK        -0.5000 
     94 N          -6.8375  -26.0310  -48.9681 N.am      17 UNK        -0.5000 
     95 CA         -7.7788  -24.9408  -48.6946 C.3       17 UNK         0.1400 
     96 CB         -9.0819  -25.4543  -48.0452 C.3       17 UNK        -0.1800 
     97 C          -8.0061  -24.0609  -49.9401 C.2       17 UNK         0.5000 
     98 O          -9.1485  -23.7706  -50.2996 O.2       17 UNK        -0.5000 
     99 N          -6.8886  -23.6482  -50.5568 N.am      18 UNK        -0.5000 
    100 CA        -6.7823  -22.7578  -51.7171 C.3       18 UNK         0.1400 
    101 CB        -7.2453  -21.3346  -51.3420 C.3       18 UNK        -0.1800 
    102 C         -7.4964  -23.3049  -52.9713 C.2       18 UNK         0.5000 
    103 O         -8.2288  -22.5705  -53.6384 O.2       18 UNK        -0.5000 
    104 N         -7.2799  -24.5920  -53.2724 N.am      19 UNK        -0.5000 
    105 CA        -7.8452  -25.2907  -54.4255 C.3       19 UNK         0.1400 
    106 CB        -7.7118  -26.8080  -54.2076 C.3       19 UNK        -0.1800 
    107 C         -7.1686  -24.8254  -55.7297 C.2       19 UNK         0.5000 
    108 O         -6.1566  -25.3998  -56.1354 O.2       19 UNK        -0.5000 
    109 N         -7.7271  -23.7633  -56.3303 N.am      20 UNK        -0.5000 
    110 CA        -7.2261  -23.0380  -57.5051 C.3       20 UNK         0.1400 
    111 CB        -7.2867  -23.9223  -58.7687 C.3       20 UNK        -0.1800 
    112 C         -5.8318  -22.4253  -57.2518 C.2       20 UNK         0.5000 
    113 O         -4.9259  -22.5619  -58.0768 O.2       20 UNK        -0.5000 
    114 N         -5.6857  -21.7806  -56.0895 N.am      21 UNK        -0.5000 
    115 CA        -4.4429  -21.2100  -55.5811 C.3       21 UNK         0.1400 
    116 CB        -3.6680  -22.3066  -54.8278 C.3       21 UNK        -0.1800 
    117 C         -4.7586  -20.0165  -54.6650 C.2       21 UNK         0.5000 
    118 O         -5.9303  -19.6839  -54.4673 O.2       21 UNK        -0.5000 
    119 N         -3.7036  -19.3992  -54.1191 N.am      22 UNK        -0.5000 
    120 CA        -3.7762  -18.3514  -53.0886 C.3       22 UNK         0.1400 
    121 C         -4.4468  -18.8532  -51.7787 C.2       22 UNK         0.5000 
    122 N         -5.2825  -18.0437  -51.1428 N.am      22 UNK        -0.7600 
    123 O         -4.1855  -19.9629  -51.3255 O.2       22 UNK        -0.5000 
    124 C124       -2.3673  -17.7728  -52.7964 C.3       23 UNK        -0.0398 
    125 S125       -2.4336  -16.0613  -52.1677 S.3       23 UNK        -0.2404 
    126 C126       -0.7450  -15.4859  -52.5245 C.3       23 UNK        -0.0205 
    127 H127        8.0512  -14.1887  -44.8582 H         1 UNK         0.0600 
    128 H128        7.3476  -14.7863  -46.3649 H         1 UNK         0.0600 
    129 H129        6.9842  -15.5970  -44.8382 H         1 UNK         0.0600 
    130 H130        5.6232  -13.5642  -47.0718 H         1 UNK         0.3000 
    131 H131        3.3297  -13.0291  -45.6147 H         1 UNK         0.0600 
    132 H132        2.5450  -11.7656  -47.5403 H         1 UNK         0.0800 
    133 H133        4.1659  -11.4470  -48.0876 H         1 UNK         0.0800 
    134 H134        1.1461  -13.5384  -48.3206 H         1 UNK         0.0800 
    135 H135        1.8604  -14.8310  -47.3837 H         1 UNK         0.0800 
    136 H136        0.0886  -14.0324  -50.3868 H         1 UNK         0.1150 
    137 H137        0.6332  -17.8343  -52.2849 H         1 UNK         0.1150 
    138 H138        2.8481  -16.8700  -48.7411 H         1 UNK         0.1150 
    139 H139        2.2519  -19.3814  -51.5074 H         1 UNK         0.0800 
    140 H140        3.5990  -18.6564  -50.6696 H         1 UNK         0.0800 
    141 H141        0.2756  -20.5078  -50.4180 H         1 UNK         0.0800 
    142 H142       -0.1381  -19.4247  -49.1085 H         1 UNK         0.0800 
    143 H143        0.7566  -22.3211  -48.6874 H         1 UNK         0.0600 
    144 H144        0.2682  -20.2831  -46.7843 H         1 UNK         0.3000 
    145 H145       -0.5965  -22.4691  -44.0443 H         1 UNK         0.0600 
    146 H146        1.1978  -21.0734  -43.0401 H         1 UNK         0.0600 
    147 H147        1.8768  -22.2742  -44.1297 H         1 UNK         0.0600 
    148 H148        1.7551  -20.5973  -44.6419 H         1 UNK         0.0600 
    149 H149       -0.5462  -19.6359  -44.1926 H         1 UNK         0.3000 
    150 H150       -3.9200  -19.1586  -45.3136 H         1 UNK         0.0600 
    151 H151       -4.0975  -19.4498  -42.8700 H         1 UNK         0.0600 
    152 H152       -3.9131  -17.7457  -43.2553 H         1 UNK         0.0600 
    153 H153       -2.5484  -18.6631  -42.6184 H         1 UNK         0.0600 
    154 H154       -1.7895  -17.3504  -44.6642 H         1 UNK         0.3000 
    155 H155       -0.3601  -17.1620  -47.9188 H         1 UNK         0.0600 
    156 H156       -2.1737  -15.2094  -46.4039 H         1 UNK         0.0600 
    157 H157       -2.3033  -15.6642  -48.0977 H         1 UNK         0.0600 
    158 H158       -0.9163  -14.7414  -47.5453 H         1 UNK         0.0600 
    159 H159        0.0618  -15.8300  -45.3777 H         1 UNK         0.3000 
    160 H160        2.5244  -18.1559  -44.1940 H         1 UNK         0.0600 
    161 H161        3.9852  -16.1688  -44.2030 H         1 UNK         0.0600 
    162 H162        2.8927  -15.3201  -45.2888 H         1 UNK         0.0600 
    163 H163        3.7731  -16.7346  -45.8545 H         1 UNK         0.0600 
    164 H164        1.6640  -15.6307  -43.1965 H         1 UNK         0.3000 
    165 H165       -1.4099  -16.5496  -41.7895 H         1 UNK         0.0600 
    166 H166       -0.4868  -16.0897  -39.5301 H         1 UNK         0.0600 
    167 H167       -0.0092  -17.6941  -40.0594 H         1 UNK         0.0600 
    168 H168        1.1539  -16.3748  -40.1136 H         1 UNK         0.0600 
    169 H169        0.2015  -14.3333  -41.1631 H         1 UNK         0.3000 
    170 H170        0.2043  -12.4739  -44.0720 H         1 UNK         0.0600 
    171 H171       -2.1932  -12.0305  -43.5236 H         1 UNK         0.0600 
    172 H172       -1.8052  -11.9698  -41.8084 H         1 UNK         0.0600 
    173 H173       -1.1584  -10.7518  -42.9092 H         1 UNK         0.0600 
    174 H174        0.6106  -11.7390  -41.3412 H         1 UNK         0.3000 
    175 H175        2.6403  -11.5305  -40.4937 H         1 UNK         0.0600 
    176 H176        3.4972  -14.4852  -40.3984 H         1 UNK         0.0600 
    177 H177        3.6724  -13.3260  -39.0826 H         1 UNK         0.0600 
    178 H178        2.0730  -13.8186  -39.6075 H         1 UNK         0.0600 
    179 H179        4.6276  -12.4890  -42.3677 H         1 UNK         0.3000 
    180 H180        7.1066  -10.2794  -40.9405 H         1 UNK         0.0600 
    181 H181        7.1638  -13.2130  -41.8209 H         1 UNK         0.0600 
    182 H182        7.8076  -12.5544  -40.3261 H         1 UNK         0.0600 
    183 H183        8.5349  -12.1060  -41.8611 H         1 UNK         0.0600 
    184 H184        6.4130  -11.5100  -43.5251 H         1 UNK         0.3000 
    185 H185        5.0248   -8.5889  -44.8830 H         1 UNK         0.0600 
    186 H186        7.3854   -7.7926  -44.9811 H         1 UNK         0.0600 
    187 H187        7.9359   -9.4143  -45.3843 H         1 UNK         0.0600 
    188 H188        6.9070   -8.5215  -46.5054 H         1 UNK         0.0600 
    189 H189        6.1840  -11.0166  -45.9850 H         1 UNK         0.3000 
    190 H190       -2.3140  -20.6230  -47.8686 H         1 UNK         0.3000 
    191 H191       -3.9512  -21.9607  -49.7403 H         1 UNK         0.0600 
    192 H192       -4.6768  -20.8078  -46.9933 H         1 UNK         0.0600 
    193 H193       -5.8236  -21.2334  -48.2533 H         1 UNK         0.0600 
    194 H194       -4.6746  -19.9296  -48.5198 H         1 UNK         0.0600 
    195 H195       -3.1942  -22.8489  -46.3376 H         1 UNK         0.3000 
    196 H196       -4.7490  -25.2036  -46.2257 H         1 UNK         0.0600 
    197 H197       -3.3002  -25.7550  -44.2628 H         1 UNK         0.0600 
    198 H198       -3.8390  -24.0829  -44.2183 H         1 UNK         0.0600 
    199 H199       -2.1907  -24.4639  -44.7089 H         1 UNK         0.0600 
    200 H200       -1.3059  -24.7599  -47.1632 H         1 UNK         0.3000 
    201 H201       -0.7165  -27.4818  -47.7148 H         1 UNK         0.0600 
    202 H202        1.0248  -25.7442  -47.4044 H         1 UNK         0.0600 
    203 H203        0.5033  -24.9180  -48.8707 H         1 UNK         0.0600 
    204 H204        1.2213  -26.5215  -48.9683 H         1 UNK         0.0600 
    205 H205       -2.1808  -24.9435  -49.7234 H         1 UNK         0.3000 
    206 H206       -2.3681  -26.6345  -52.1093 H         1 UNK         0.0600 
    207 H207       -1.8472  -24.1878  -52.2528 H         1 UNK         0.0600 
    208 H208       -3.3016  -24.6215  -53.1317 H         1 UNK         0.0600 
    209 H209       -3.4286  -23.8179  -51.5666 H         1 UNK         0.0600 
    210 H210       -3.8013  -27.4560  -49.5953 H         1 UNK         0.3000 
    211 H211       -5.6530  -28.5030  -48.9883 H         1 UNK         0.0600 
    212 H212       -6.2289  -28.6994  -51.9926 H         1 UNK         0.0600 
    213 H213       -6.8925  -29.7373  -50.7379 H         1 UNK         0.0600 
    214 H214       -5.1711  -29.7753  -51.0808 H         1 UNK         0.0600 
    215 H215       -5.8969  -25.8714  -48.6267 H         1 UNK         0.3000 
    216 H216       -7.2895  -24.3001  -47.9595 H         1 UNK         0.0600 
    217 H217       -9.7010  -24.6209  -47.7114 H         1 UNK         0.0600 
    218 H218       -8.8708  -26.0716  -47.1721 H         1 UNK         0.0600 
    219 H219       -9.6824  -26.0445  -48.7375 H         1 UNK         0.0600 
    220 H220       -6.0069  -23.9627  -50.1614 H         1 UNK         0.3000 
    221 H221       -5.7219  -22.7022  -51.9656 H         1 UNK         0.0600 
    222 H222       -8.3098  -21.2991  -51.1095 H         1 UNK         0.0600 
    223 H223       -6.6997  -20.9572  -50.4786 H         1 UNK         0.0600 
    224 H224       -7.0675  -20.6378  -52.1614 H         1 UNK         0.0600 
    225 H225       -6.6180  -25.1264  -52.7123 H         1 UNK         0.3000 
    226 H226       -8.9109  -25.0596  -54.4852 H         1 UNK         0.0600 
    227 H227       -8.1540  -27.3608  -55.0371 H         1 UNK         0.0600 
    228 H228       -6.6692  -27.1171  -54.1260 H         1 UNK         0.0600 
    229 H229       -8.2223  -27.1211  -53.2964 H         1 UNK         0.0600 
    230 H230       -8.5104  -23.3297  -55.8581 H         1 UNK         0.3000 
    231 H231       -7.9042  -22.1979  -57.6612 H         1 UNK         0.0600 
    232 H232       -8.2886  -24.3233  -58.9211 H         1 UNK         0.0600 
    233 H233       -6.5941  -24.7624  -58.7127 H         1 UNK         0.0600 
    234 H234       -7.0292  -23.3470  -59.6587 H         1 UNK         0.0600 
    235 H235       -6.4895  -21.6432  -55.4889 H         1 UNK         0.3000 
    236 H236       -3.8407  -20.8392  -56.4132 H         1 UNK         0.0600 
    237 H237       -3.4856  -23.1738  -55.4630 H         1 UNK         0.0600 
    238 H238       -2.6966  -21.9522  -54.4826 H         1 UNK         0.0600 
    239 H239       -4.2259  -22.6446  -53.9547 H         1 UNK         0.0600 
    240 H240       -2.7807  -19.7522  -54.3228 H         1 UNK         0.3000 
    241 H241       -4.3985  -17.5587  -53.5092 H         1 UNK         0.0600 
    242 H242       -5.7086  -18.3580  -50.2869 H         1 UNK         0.3800 
    243 H243       -5.4879  -17.1206  -51.4913 H         1 UNK         0.3800 
    244 H244       -1.8133  -18.3994  -52.0946 H         1 UNK         0.0800 
    245 H245       -1.7797  -17.7579  -53.7153 H         1 UNK         0.0800 
    246 H246       -0.4142  -15.8532  -53.4969 H         1 UNK         0.0800 
    247 H247       -0.7639  -14.3984  -52.6103 H         1 UNK         0.0800 
@<TRIPOS>BOND
     1    1    2 1    
     2    1  127 1    
     3    1  128 1    
     4    1  129 1    
     5    2    3 2    
     6    2    4 am   BACKBONE|DICT|INTERRES
     7    4    5 1    
     8    4  130 1    
     9    5    6 1    
    10    5   65 1    
    11    5  131 1    
    12    6    7 1    
    13    6  132 1    
    14    6  133 1    
    15    7    8 1    
    16    8    9 1    
    17    8  134 1    
    18    8  135 1    
    19    9   10 ar   
    20    9   14 ar   
    21   10   11 ar   
    22   10  136 1    
    23   11   12 ar   
    24   11  126 1    
    25   12   13 ar   
    26   12  137 1    
    27   13   14 ar   
    28   13   15 1    
    29   14  138 1    
    30   15   16 1    
    31   15  139 1    
    32   15  140 1    
    33   16   17 1    
    34   17   18 1    
    35   17  141 1    
    36   17  142 1    
    37   18   19 1    
    38   18   67 1    
    39   18  143 1    
    40   19   20 am   BACKBONE|DICT|INTERRES
    41   19  144 1    
    42   20   21 2    
    43   20   22 1    
    44   22   23 1    
    45   22   24 1    
    46   22  145 1    
    47   23  146 1    
    48   23  147 1    
    49   23  148 1    
    50   24   25 am   BACKBONE|DICT|INTERRES
    51   24  149 1    
    52   25   26 2    
    53   25   27 1    
    54   27   28 1    
    55   27   29 1    
    56   27  150 1    
    57   28  151 1    
    58   28  152 1    
    59   28  153 1    
    60   29   30 am   BACKBONE|DICT|INTERRES
    61   29  154 1    
    62   30   31 2    
    63   30   32 1    
    64   32   33 1    
    65   32   34 1    
    66   32  155 1    
    67   33  156 1    
    68   33  157 1    
    69   33  158 1    
    70   34   35 am   BACKBONE|DICT|INTERRES
    71   34  159 1    
    72   35   36 2    
    73   35   37 1    
    74   37   38 1    
    75   37   39 1    
    76   37  160 1    
    77   38  161 1    
    78   38  162 1    
    79   38  163 1    
    80   39   40 am   BACKBONE|DICT|INTERRES
    81   39  164 1    
    82   40   41 2    
    83   40   42 1    
    84   42   43 1    
    85   42   44 1    
    86   42  165 1    
    87   43  166 1    
    88   43  167 1    
    89   43  168 1    
    90   44   45 am   BACKBONE|DICT|INTERRES
    91   44  169 1    
    92   45   46 2    
    93   45   47 1    
    94   47   48 1    
    95   47   49 1    
    96   47  170 1    
    97   48  171 1    
    98   48  172 1    
    99   48  173 1    
   100   49   50 am   BACKBONE|DICT|INTERRES
   101   49  174 1    
   102   50   51 2    
   103   50   52 1    
   104   52   53 1    
   105   52   54 1    
   106   52  175 1    
   107   53  176 1    
   108   53  177 1    
   109   53  178 1    
   110   54   55 am   BACKBONE|DICT|INTERRES
   111   54  179 1    
   112   55   56 2    
   113   55   57 1    
   114   57   58 1    
   115   57   59 1    
   116   57  180 1    
   117   58  181 1    
   118   58  182 1    
   119   58  183 1    
   120   59   60 am   BACKBONE|DICT|INTERRES
   121   59  184 1    
   122   60   61 2    
   123   60   62 1    
   124   62   63 1    
   125   62   64 1    
   126   62  185 1    
   127   63  186 1    
   128   63  187 1    
   129   63  188 1    
   130   64   65 am   BACKBONE|DICT|INTERRES
   131   64  189 1    
   132   65   66 2    
   133   67   68 2    
   134   67   69 am   BACKBONE|DICT|INTERRES
   135   69   70 1    
   136   69  190 1    
   137   70   71 1    
   138   70   72 1    
   139   70  191 1    
   140   71  192 1    
   141   71  193 1    
   142   71  194 1    
   143   72   73 2    
   144   72   74 am   BACKBONE|DICT|INTERRES
   145   74   75 1    
   146   74  195 1    
   147   75   76 1    
   148   75   77 1    
   149   75  196 1    
   150   76  197 1    
   151   76  198 1    
   152   76  199 1    
   153   77   78 2    
   154   77   79 am   BACKBONE|DICT|INTERRES
   155   79   80 1    
   156   79  200 1    
   157   80   81 1    
   158   80   82 1    
   159   80  201 1    
   160   81  202 1    
   161   81  203 1    
   162   81  204 1    
   163   82   83 2    
   164   82   84 am   BACKBONE|DICT|INTERRES
   165   84   85 1    
   166   84  205 1    
   167   85   86 1    
   168   85   87 1    
   169   85  206 1    
   170   86  207 1    
   171   86  208 1    
   172   86  209 1    
   173   87   88 2    
   174   87   89 am   BACKBONE|DICT|INTERRES
   175   89   90 1    
   176   89  210 1    
   177   90   91 1    
   178   90   92 1    
   179   90  211 1    
   180   91  212 1    
   181   91  213 1    
   182   91  214 1    
   183   92   93 2    
   184   92   94 am   BACKBONE|DICT|INTERRES
   185   94   95 1    
   186   94  215 1    
   187   95   96 1    
   188   95   97 1    
   189   95  216 1    
   190   96  217 1    
   191   96  218 1    
   192   96  219 1    
   193   97   98 2    
   194   97   99 am   BACKBONE|DICT|INTERRES
   195   99  100 1    
   196   99  220 1    
   197  100  101 1    
   198  100  102 1    
   199  100  221 1    
   200  101  222 1    
   201  101  223 1    
   202  101  224 1    
   203  102  103 2    
   204  102  104 am   BACKBONE|DICT|INTERRES
   205  104  105 1    
   206  104  225 1    
   207  105  106 1    
   208  105  107 1    
   209  105  226 1    
   210  106  227 1    
   211  106  228 1    
   212  106  229 1    
   213  107  108 2    
   214  107  109 am   BACKBONE|DICT|INTERRES
   215  109  110 1    
   216  109  230 1    
   217  110  111 1    
   218  110  112 1    
   219  110  231 1    
   220  111  232 1    
   221  111  233 1    
   222  111  234 1    
   223  112  113 2    
   224  112  114 am   BACKBONE|DICT|INTERRES
   225  114  115 1    
   226  114  235 1    
   227  115  116 1    
   228  115  117 1    
   229  115  236 1    
   230  116  237 1    
   231  116  238 1    
   232  116  239 1    
   233  117  118 2    
   234  117  119 am   BACKBONE|DICT|INTERRES
   235  119  120 1    
   236  119  240 1    
   237  120  121 1    
   238  120  124 1    
   239  120  241 1    
   240  121  122 am   BACKBONE|DICT|INTERRES
   241  121  123 2    
   242  122  242 1    
   243  122  243 1    
   244  124  125 1    
   245  124  244 1    
   246  124  245 1    
   247  125  126 1    
   248  126  246 1    
   249  126  247 1    
@<TRIPOS>SUBSTRUCTURE
     1 UNK         1 GROUP             0       ****    0 ROOT    
