@<TRIPOS>MOLECULE
3R540
247   249    1
SMALL
USER_CHARGES


@<TRIPOS>ATOM
      1 CA         -4.9046  -17.3013  -47.3212 C.3       0 UNK        -0.1800 
      2 C          -4.0130  -16.0893  -47.5543 C.2       0 UNK         0.5000 
      3 O          -4.2345  -15.3361  -48.5022 O.2       0 UNK        -0.5000 
      4 N          -3.0096  -15.9004  -46.6928 N.am      1 UNK        -0.5000 
      5 CA         -2.0016  -14.8407  -46.7899 C.3       1 UNK         0.1400 
      6 C6         -0.9146  -15.1076  -47.8705 C.3       23 UNK        -0.0398 
      7 S7         -0.2034  -16.7856  -47.8042 S.3       23 UNK        -0.2404 
      8 C8          0.6120  -16.9092  -49.4224 C.3       23 UNK        -0.0205 
      9 C9          0.9769  -18.3480  -49.7681 C.ar      23 UNK        -0.0193 
     10 C10         0.2351  -19.0478  -50.7257 C.ar      23 UNK        -0.1150 
     11 C11         0.6042  -20.3417  -51.1044 C.ar      23 UNK        -0.0193 
     12 C12         1.7132  -20.9433  -50.5033 C.ar      23 UNK        -0.1150 
     13 C13         2.4577  -20.2635  -49.5349 C.ar      23 UNK        -0.0193 
     14 C14         2.0812  -18.9655  -49.1692 C.ar      23 UNK        -0.1150 
     15 C15         3.7107  -20.9032  -48.9449 C.3       23 UNK        -0.0205 
     16 S16         3.3925  -22.4827  -48.0874 S.3       23 UNK        -0.2404 
     17 C17         2.5843  -21.9051  -46.5585 C.3       23 UNK        -0.0398 
     18 CA          1.3591  -22.7490  -46.1277 C.3       11 UNK         0.1400 
     19 N           0.8901  -22.3645  -44.7923 N.am      11 UNK        -0.5000 
     20 C          -0.0770  -22.9806  -44.0966 C.2       10 UNK         0.5000 
     21 O          -0.6457  -24.0049  -44.4723 O.2       10 UNK        -0.5000 
     22 CA         -0.5227  -22.3101  -42.7826 C.3       10 UNK         0.1400 
     23 CB          0.4410  -22.6454  -41.6349 C.3       10 UNK        -0.1800 
     24 N          -0.6535  -20.8579  -42.9118 N.am      10 UNK        -0.5000 
     25 C          -1.5380  -20.2487  -43.7144 C.2       9 UNK         0.5000 
     26 O          -2.3902  -20.8476  -44.3699 O.2       9 UNK        -0.5000 
     27 CA         -1.4189  -18.7188  -43.8510 C.3       9 UNK         0.1400 
     28 CB         -2.1430  -18.0149  -42.6973 C.3       9 UNK        -0.1800 
     29 N          -0.0307  -18.2548  -43.9414 N.am      9 UNK        -0.5000 
     30 C           0.8168  -18.6266  -44.9134 C.2       8 UNK         0.5000 
     31 O           0.4941  -19.3548  -45.8479 O.2       8 UNK        -0.5000 
     32 CA          2.2868  -18.1951  -44.7793 C.3       8 UNK         0.1400 
     33 CB          2.5094  -16.7531  -45.2578 C.3       8 UNK        -0.1800 
     34 N           2.7548  -18.3515  -43.4040 N.am      8 UNK        -0.5000 
     35 C           2.9693  -19.5385  -42.8178 C.2       7 UNK         0.5000 
     36 O           2.8592  -20.6158  -43.4027 O.2       7 UNK        -0.5000 
     37 CA          3.3239  -19.5208  -41.3189 C.3       7 UNK         0.1400 
     38 CB          4.8414  -19.3854  -41.1264 C.3       7 UNK        -0.1800 
     39 N           2.6478  -18.4425  -40.5962 N.am      7 UNK        -0.5000 
     40 C           1.3226  -18.3681  -40.4032 C.2       6 UNK         0.5000 
     41 O           0.5356  -19.2504  -40.7438 O.2       6 UNK        -0.5000 
     42 CA          0.7888  -17.0594  -39.7850 C.3       6 UNK         0.1400 
     43 CB          0.7601  -17.1560  -38.2529 C.3       6 UNK        -0.1800 
     44 N           1.5787  -15.8899  -40.1873 N.am      6 UNK        -0.5000 
     45 C           1.6541  -15.4366  -41.4452 C.2       5 UNK         0.5000 
     46 O           0.9923  -15.9033  -42.3749 O.2       5 UNK        -0.5000 
     47 CA          2.7154  -14.3646  -41.7237 C.3       5 UNK         0.1400 
     48 CB          4.1044  -15.0334  -41.8216 C.3       5 UNK        -0.1800 
     49 N           2.3891  -13.6646  -42.9645 N.am      5 UNK        -0.5000 
     50 C           3.0233  -12.5854  -43.4426 C.2       4 UNK         0.5000 
     51 O           3.9815  -12.0465  -42.8873 O.2       4 UNK        -0.5000 
     52 CA          2.4691  -11.9780  -44.7414 C.3       4 UNK         0.1400 
     53 CB          2.7101  -12.9002  -45.9482 C.3       4 UNK        -0.1800 
     54 N           1.0438  -11.6881  -44.6018 N.am      4 UNK        -0.5000 
     55 C           0.5607  -10.6002  -43.9807 C.2       3 UNK         0.5000 
     56 O           1.2697   -9.6837  -43.5624 O.2       3 UNK        -0.5000 
     57 CA         -0.9663  -10.5100  -43.7803 C.3       3 UNK         0.1400 
     58 CB         -1.6070   -9.6745  -44.8991 C.3       3 UNK        -0.1800 
     59 N          -1.6224  -11.8155  -43.7290 N.am      3 UNK        -0.5000 
     60 C          -1.4435  -12.7311  -42.7669 C.2       2 UNK         0.5000 
     61 O          -0.7811  -12.5327  -41.7482 O.2       2 UNK        -0.5000 
     62 CA         -2.0865  -14.1131  -42.9953 C.3       2 UNK         0.1400 
     63 CB         -3.3857  -14.2405  -42.1849 C.3       2 UNK        -0.1800 
     64 N          -2.3670  -14.4360  -44.4017 N.am      2 UNK        -0.5000 
     65 C          -1.4567  -14.5083  -45.3863 C.2       1 UNK         0.5000 
     66 O          -0.2581  -14.2888  -45.2109 O.2       1 UNK        -0.5000 
     67 C           0.2141  -22.7069  -47.1625 C.2       11 UNK         0.5000 
     68 O          -0.0162  -23.7018  -47.8493 O.2       11 UNK        -0.5000 
     69 N          -0.5195  -21.5867  -47.2032 N.am      12 UNK        -0.5000 
     70 CA         -1.6984  -21.3738  -48.0408 C.3       12 UNK         0.1400 
     71 CB         -2.2259  -19.9479  -47.8259 C.3       12 UNK        -0.1800 
     72 C          -2.8131  -22.4044  -47.7997 C.2       12 UNK         0.5000 
     73 O          -3.3508  -22.9477  -48.7649 O.2       12 UNK        -0.5000 
     74 N          -3.1187  -22.6721  -46.5229 N.am      13 UNK        -0.5000 
     75 CA         -4.1086  -23.6604  -46.0963 C.3       13 UNK         0.1400 
     76 CB         -4.3407  -23.5346  -44.5831 C.3       13 UNK        -0.1800 
     77 C          -3.7202  -25.1023  -46.4707 C.2       13 UNK         0.5000 
     78 O          -4.5812  -25.8618  -46.9161 O.2       13 UNK        -0.5000 
     79 N          -2.4369  -25.4486  -46.2981 N.am      14 UNK        -0.5000 
     80 CA         -1.8792  -26.7543  -46.6493 C.3       14 UNK         0.1400 
     81 CB         -0.4831  -26.9022  -46.0250 C.3       14 UNK        -0.1800 
     82 C          -1.8229  -26.9854  -48.1697 C.2       14 UNK         0.5000 
     83 O          -2.1679  -28.0741  -48.6313 O.2       14 UNK        -0.5000 
     84 N          -1.3911  -25.9615  -48.9176 N.am      15 UNK        -0.5000 
     85 CA         -1.2750  -25.9919  -50.3744 C.3       15 UNK         0.1400 
     86 CB         -0.4059  -24.8122  -50.8340 C.3       15 UNK        -0.1800 
     87 C          -2.6343  -25.9518  -51.0925 C.2       15 UNK         0.5000 
     88 O          -2.7593  -26.5310  -52.1709 O.2       15 UNK        -0.5000 
     89 N          -3.6043  -25.2252  -50.5168 N.am      16 UNK        -0.5000 
     90 CA         -4.9689  -24.9500  -50.9945 C.3       16 UNK         0.1400 
     91 CB         -5.7689  -26.2507  -51.1944 C.3       16 UNK        -0.1800 
     92 C          -5.0496  -24.0426  -52.2422 C.2       16 UNK         0.5000 
     93 O          -6.0786  -23.3995  -52.4554 O.2       16 UNK        -0.5000 
     94 N          -3.9603  -23.9601  -53.0187 N.am      17 UNK        -0.5000 
     95 CA         -3.7970  -23.1607  -54.2356 C.3       17 UNK         0.1400 
     96 CB         -2.4177  -23.4634  -54.8395 C.3       17 UNK        -0.1800 
     97 C          -3.9670  -21.6431  -54.0359 C.2       17 UNK         0.5000 
     98 O          -4.1976  -20.9296  -55.0123 O.2       17 UNK        -0.5000 
     99 N          -3.8893  -21.1697  -52.7839 N.am      18 UNK        -0.5000 
    100 CA        -4.1349  -19.7835  -52.3781 C.3       18 UNK         0.1400 
    101 CB        -3.8717  -19.6484  -50.8752 C.3       18 UNK        -0.1800 
    102 C         -5.5450  -19.2689  -52.7305 C.2       18 UNK         0.5000 
    103 O         -5.7117  -18.0651  -52.9235 O.2       18 UNK        -0.5000 
    104 N         -6.5138  -20.1840  -52.8894 N.am      19 UNK        -0.5000 
    105 CA        -7.8514  -19.9072  -53.4224 C.3       19 UNK         0.1400 
    106 CB        -8.7052  -21.1781  -53.3004 C.3       19 UNK        -0.1800 
    107 C         -7.8432  -19.4014  -54.8830 C.2       19 UNK         0.5000 
    108 O         -8.7777  -18.7090  -55.2868 O.2       19 UNK        -0.5000 
    109 N         -6.7827  -19.7310  -55.6327 N.am      20 UNK        -0.5000 
    110 CA        -6.5036  -19.2628  -56.9904 C.3       20 UNK         0.1400 
    111 CB        -6.2332  -20.4893  -57.8802 C.3       20 UNK        -0.1800 
    112 C         -5.3174  -18.2725  -57.0094 C.2       20 UNK         0.5000 
    113 O         -4.7244  -18.0611  -58.0674 O.2       20 UNK        -0.5000 
    114 N         -4.9864  -17.6933  -55.8432 N.am      21 UNK        -0.5000 
    115 CA        -3.8874  -16.7561  -55.5738 C.3       21 UNK         0.1400 
    116 CB        -4.0181  -15.4729  -56.4214 C.3       21 UNK        -0.1800 
    117 C         -2.4771  -17.3836  -55.6508 C.2       21 UNK         0.5000 
    118 O         -1.4905  -16.6476  -55.7089 O.2       21 UNK        -0.5000 
    119 N         -2.3970  -18.7197  -55.5963 N.am      22 UNK        -0.5000 
    120 CA        -1.1671  -19.5247  -55.6391 C.3       22 UNK         0.1400 
    121 C         -0.3948  -19.4445  -56.9941 C.2       22 UNK         0.5000 
    122 N          0.8405  -19.9240  -57.0507 N.am      22 UNK        -0.7600 
    123 O         -0.9151  -18.9979  -58.0141 O.2       22 UNK        -0.5000 
    124 C124       -0.2739  -19.3011  -54.3808 C.3       23 UNK        -0.0398 
    125 S125        0.5357  -20.8438  -53.8286 S.3       23 UNK        -0.2404 
    126 C126       -0.1770  -21.0917  -52.1722 C.3       23 UNK        -0.0205 
    127 H127       -5.9135  -16.9808  -47.0619 H         1 UNK         0.0600 
    128 H128       -4.5286  -17.9331  -46.5158 H         1 UNK         0.0600 
    129 H129       -4.9604  -17.9056  -48.2265 H         1 UNK         0.0600 
    130 H130       -2.8655  -16.5565  -45.9392 H         1 UNK         0.3000 
    131 H131       -2.5171  -13.9260  -47.0904 H         1 UNK         0.0600 
    132 H132       -0.1089  -14.3735  -47.8168 H         1 UNK         0.0800 
    133 H133       -1.3655  -14.9761  -48.8547 H         1 UNK         0.0800 
    134 H134        1.5117  -16.2924  -49.4181 H         1 UNK         0.0800 
    135 H135       -0.0421  -16.4950  -50.1910 H         1 UNK         0.0800 
    136 H136       -0.6180  -18.5756  -51.1911 H         1 UNK         0.1150 
    137 H137        2.0092  -21.9394  -50.8015 H         1 UNK         0.1150 
    138 H138        2.6578  -18.4225  -48.4338 H         1 UNK         0.1150 
    139 H139        4.4156  -21.0877  -49.7565 H         1 UNK         0.0800 
    140 H140        4.2123  -20.2190  -48.2587 H         1 UNK         0.0800 
    141 H141        2.3063  -20.8601  -46.6792 H         1 UNK         0.0800 
    142 H142        3.3378  -21.9236  -45.7702 H         1 UNK         0.0800 
    143 H143        1.6848  -23.7886  -46.0529 H         1 UNK         0.0600 
    144 H144        1.3294  -21.5470  -44.3835 H         1 UNK         0.3000 
    145 H145       -1.5056  -22.7092  -42.5241 H         1 UNK         0.0600 
    146 H146        0.1005  -22.2111  -40.6948 H         1 UNK         0.0600 
    147 H147        1.4471  -22.2747  -41.8288 H         1 UNK         0.0600 
    148 H148        0.5118  -23.7240  -41.4895 H         1 UNK         0.0600 
    149 H149       -0.0324  -20.2857  -42.3485 H         1 UNK         0.3000 
    150 H150       -1.9158  -18.4324  -44.7792 H         1 UNK         0.0600 
    151 H151       -3.1853  -18.3310  -42.6398 H         1 UNK         0.0600 
    152 H152       -2.1407  -16.9387  -42.8397 H         1 UNK         0.0600 
    153 H153       -1.6827  -18.2288  -41.7337 H         1 UNK         0.0600 
    154 H154        0.2975  -17.6137  -43.2271 H         1 UNK         0.3000 
    155 H155        2.8896  -18.8471  -45.4147 H         1 UNK         0.0600 
    156 H156        2.3494  -16.6766  -46.3330 H         1 UNK         0.0600 
    157 H157        3.5274  -16.4178  -45.0608 H         1 UNK         0.0600 
    158 H158        1.8246  -16.0536  -44.7817 H         1 UNK         0.0600 
    159 H159        2.8053  -17.5142  -42.8451 H         1 UNK         0.3000 
    160 H160        3.0058  -20.4726  -40.8885 H         1 UNK         0.0600 
    161 H161        5.2161  -18.4397  -41.5203 H         1 UNK         0.0600 
    162 H162        5.3724  -20.1883  -41.6396 H         1 UNK         0.0600 
    163 H163        5.1117  -19.4411  -40.0718 H         1 UNK         0.0600 
    164 H164        3.2252  -17.6843  -40.2659 H         1 UNK         0.3000 
    165 H165       -0.2345  -16.9171  -40.1387 H         1 UNK         0.0600 
    166 H166        0.3201  -16.2622  -37.8100 H         1 UNK         0.0600 
    167 H167        0.1606  -18.0073  -37.9275 H         1 UNK         0.0600 
    168 H168        1.7605  -17.2804  -37.8367 H         1 UNK         0.0600 
    169 H169        2.1477  -15.4607  -39.4714 H         1 UNK         0.3000 
    170 H170        2.7051  -13.6449  -40.9029 H         1 UNK         0.0600 
    171 H171        4.1704  -15.6982  -42.6833 H         1 UNK         0.0600 
    172 H172        4.9025  -14.2973  -41.9112 H         1 UNK         0.0600 
    173 H173        4.3266  -15.6240  -40.9323 H         1 UNK         0.0600 
    174 H174        1.5935  -14.0462  -43.4645 H         1 UNK         0.3000 
    175 H175        3.0042  -11.0453  -44.9330 H         1 UNK         0.0600 
    176 H176        2.2219  -13.8667  -45.8335 H         1 UNK         0.0600 
    177 H177        2.3395  -12.4482  -46.8683 H         1 UNK         0.0600 
    178 H178        3.7754  -13.0893  -46.0842 H         1 UNK         0.0600 
    179 H179        0.4075  -12.4285  -44.8774 H         1 UNK         0.3000 
    180 H180       -1.1448  -10.0046  -42.8289 H         1 UNK         0.0600 
    181 H181       -2.6757   -9.5408  -44.7300 H         1 UNK         0.0600 
    182 H182       -1.4760  -10.1418  -45.8760 H         1 UNK         0.0600 
    183 H183       -1.1606   -8.6804  -44.9485 H         1 UNK         0.0600 
    184 H184       -2.1972  -12.0639  -44.5199 H         1 UNK         0.3000 
    185 H185       -1.3739  -14.8476  -42.6213 H         1 UNK         0.0600 
    186 H186       -4.1395  -13.5277  -42.5213 H         1 UNK         0.0600 
    187 H187       -3.8105  -15.2409  -42.2665 H         1 UNK         0.0600 
    188 H188       -3.2053  -14.0523  -41.1256 H         1 UNK         0.0600 
    189 H189       -3.3356  -14.6010  -44.6359 H         1 UNK         0.3000 
    190 H190       -0.2308  -20.7984  -46.6252 H         1 UNK         0.3000 
    191 H191       -1.3869  -21.4713  -49.0824 H         1 UNK         0.0600 
    192 H192       -3.2330  -19.8240  -48.2209 H         1 UNK         0.0600 
    193 H193       -1.5871  -19.2246  -48.3280 H         1 UNK         0.0600 
    194 H194       -2.2654  -19.6834  -46.7711 H         1 UNK         0.0600 
    195 H195       -2.6595  -22.1407  -45.7880 H         1 UNK         0.3000 
    196 H196       -5.0476  -23.4289  -46.6032 H         1 UNK         0.0600 
    197 H197       -4.7020  -22.5398  -44.3218 H         1 UNK         0.0600 
    198 H198       -3.4251  -23.7156  -44.0192 H         1 UNK         0.0600 
    199 H199       -5.0866  -24.2526  -44.2401 H         1 UNK         0.0600 
    200 H200       -1.7971  -24.7783  -45.8814 H         1 UNK         0.3000 
    201 H201       -2.5235  -27.5241  -46.2193 H         1 UNK         0.0600 
    202 H202       -0.5288  -26.8293  -44.9383 H         1 UNK         0.0600 
    203 H203        0.2016  -26.1319  -46.3820 H         1 UNK         0.0600 
    204 H204       -0.0455  -27.8711  -46.2683 H         1 UNK         0.0600 
    205 H205       -1.0690  -25.1136  -48.4547 H         1 UNK         0.3000 
    206 H206       -0.7731  -26.9182  -50.6615 H         1 UNK         0.0600 
    207 H207       -0.8401  -23.8607  -50.5249 H         1 UNK         0.0600 
    208 H208        0.5972  -24.8723  -50.4111 H         1 UNK         0.0600 
    209 H209       -0.3019  -24.7951  -51.9197 H         1 UNK         0.0600 
    210 H210       -3.3585  -24.7107  -49.6760 H         1 UNK         0.3000 
    211 H211       -5.4479  -24.3941  -50.1870 H         1 UNK         0.0600 
    212 H212       -5.3826  -26.8465  -52.0216 H         1 UNK         0.0600 
    213 H213       -6.8147  -26.0325  -51.4138 H         1 UNK         0.0600 
    214 H214       -5.7470  -26.8675  -50.2957 H         1 UNK         0.0600 
    215 H215       -3.1997  -24.5877  -52.7917 H         1 UNK         0.3000 
    216 H216       -4.5634  -23.4793  -54.9447 H         1 UNK         0.0600 
    217 H217       -2.2720  -22.9254  -55.7771 H         1 UNK         0.0600 
    218 H218       -2.3071  -24.5258  -55.0578 H         1 UNK         0.0600 
    219 H219       -1.6111  -23.1747  -54.1645 H         1 UNK         0.0600 
    220 H220       -3.7222  -21.8340  -52.0426 H         1 UNK         0.3000 
    221 H221       -3.4181  -19.1525  -52.9065 H         1 UNK         0.0600 
    222 H222       -4.5335  -20.2905  -50.2924 H         1 UNK         0.0600 
    223 H223       -2.8438  -19.9153  -50.6343 H         1 UNK         0.0600 
    224 H224       -4.0252  -18.6216  -50.5399 H         1 UNK         0.0600 
    225 H225       -6.2948  -21.1576  -52.7133 H         1 UNK         0.3000 
    226 H226       -8.3036  -19.1272  -52.8066 H         1 UNK         0.0600 
    227 H227       -8.7783  -21.5065  -52.2635 H         1 UNK         0.0600 
    228 H228       -9.7207  -21.0045  -53.6590 H         1 UNK         0.0600 
    229 H229       -8.2860  -22.0000  -53.8825 H         1 UNK         0.0600 
    230 H230       -6.0425  -20.2871  -55.2163 H         1 UNK         0.3000 
    231 H231       -7.3670  -18.7320  -57.3958 H         1 UNK         0.0600 
    232 H232       -6.0906  -20.1982  -58.9214 H         1 UNK         0.0600 
    233 H233       -7.0701  -21.1873  -57.8527 H         1 UNK         0.0600 
    234 H234       -5.3385  -21.0264  -57.5626 H         1 UNK         0.0600 
    235 H235       -5.5390  -17.9321  -55.0280 H         1 UNK         0.3000 
    236 H236       -4.0125  -16.4608  -54.5312 H         1 UNK         0.0600 
    237 H237       -3.8063  -15.6574  -57.4748 H         1 UNK         0.0600 
    238 H238       -5.0202  -15.0506  -56.3476 H         1 UNK         0.0600 
    239 H239       -3.3200  -14.7073  -56.0811 H         1 UNK         0.0600 
    240 H240       -3.2555  -19.2588  -55.5695 H         1 UNK         0.3000 
    241 H241       -1.5396  -20.5479  -55.6087 H         1 UNK         0.0600 
    242 H242        1.3430  -19.8950  -57.9243 H         1 UNK         0.3800 
    243 H243        1.2780  -20.3252  -56.2341 H         1 UNK         0.3800 
    244 H244       -0.8755  -18.9167  -53.5574 H         1 UNK         0.0800 
    245 H245        0.4835  -18.5366  -54.5618 H         1 UNK         0.0800 
    246 H246       -1.2254  -20.7989  -52.1639 H         1 UNK         0.0800 
    247 H247       -0.1600  -22.1581  -51.9524 H         1 UNK         0.0800 
@<TRIPOS>BOND
     1    1    2 1    
     2    1  127 1    
     3    1  128 1    
     4    1  129 1    
     5    2    3 2    
     6    2    4 am   BACKBONE|DICT|INTERRES
     7    4    5 1    
     8    4  130 1    
     9    5    6 1    
    10    5   65 1    
    11    5  131 1    
    12    6    7 1    
    13    6  132 1    
    14    6  133 1    
    15    7    8 1    
    16    8    9 1    
    17    8  134 1    
    18    8  135 1    
    19    9   10 ar   
    20    9   14 ar   
    21   10   11 ar   
    22   10  136 1    
    23   11   12 ar   
    24   11  126 1    
    25   12   13 ar   
    26   12  137 1    
    27   13   14 ar   
    28   13   15 1    
    29   14  138 1    
    30   15   16 1    
    31   15  139 1    
    32   15  140 1    
    33   16   17 1    
    34   17   18 1    
    35   17  141 1    
    36   17  142 1    
    37   18   19 1    
    38   18   67 1    
    39   18  143 1    
    40   19   20 am   BACKBONE|DICT|INTERRES
    41   19  144 1    
    42   20   21 2    
    43   20   22 1    
    44   22   23 1    
    45   22   24 1    
    46   22  145 1    
    47   23  146 1    
    48   23  147 1    
    49   23  148 1    
    50   24   25 am   BACKBONE|DICT|INTERRES
    51   24  149 1    
    52   25   26 2    
    53   25   27 1    
    54   27   28 1    
    55   27   29 1    
    56   27  150 1    
    57   28  151 1    
    58   28  152 1    
    59   28  153 1    
    60   29   30 am   BACKBONE|DICT|INTERRES
    61   29  154 1    
    62   30   31 2    
    63   30   32 1    
    64   32   33 1    
    65   32   34 1    
    66   32  155 1    
    67   33  156 1    
    68   33  157 1    
    69   33  158 1    
    70   34   35 am   BACKBONE|DICT|INTERRES
    71   34  159 1    
    72   35   36 2    
    73   35   37 1    
    74   37   38 1    
    75   37   39 1    
    76   37  160 1    
    77   38  161 1    
    78   38  162 1    
    79   38  163 1    
    80   39   40 am   BACKBONE|DICT|INTERRES
    81   39  164 1    
    82   40   41 2    
    83   40   42 1    
    84   42   43 1    
    85   42   44 1    
    86   42  165 1    
    87   43  166 1    
    88   43  167 1    
    89   43  168 1    
    90   44   45 am   BACKBONE|DICT|INTERRES
    91   44  169 1    
    92   45   46 2    
    93   45   47 1    
    94   47   48 1    
    95   47   49 1    
    96   47  170 1    
    97   48  171 1    
    98   48  172 1    
    99   48  173 1    
   100   49   50 am   BACKBONE|DICT|INTERRES
   101   49  174 1    
   102   50   51 2    
   103   50   52 1    
   104   52   53 1    
   105   52   54 1    
   106   52  175 1    
   107   53  176 1    
   108   53  177 1    
   109   53  178 1    
   110   54   55 am   BACKBONE|DICT|INTERRES
   111   54  179 1    
   112   55   56 2    
   113   55   57 1    
   114   57   58 1    
   115   57   59 1    
   116   57  180 1    
   117   58  181 1    
   118   58  182 1    
   119   58  183 1    
   120   59   60 am   BACKBONE|DICT|INTERRES
   121   59  184 1    
   122   60   61 2    
   123   60   62 1    
   124   62   63 1    
   125   62   64 1    
   126   62  185 1    
   127   63  186 1    
   128   63  187 1    
   129   63  188 1    
   130   64   65 am   BACKBONE|DICT|INTERRES
   131   64  189 1    
   132   65   66 2    
   133   67   68 2    
   134   67   69 am   BACKBONE|DICT|INTERRES
   135   69   70 1    
   136   69  190 1    
   137   70   71 1    
   138   70   72 1    
   139   70  191 1    
   140   71  192 1    
   141   71  193 1    
   142   71  194 1    
   143   72   73 2    
   144   72   74 am   BACKBONE|DICT|INTERRES
   145   74   75 1    
   146   74  195 1    
   147   75   76 1    
   148   75   77 1    
   149   75  196 1    
   150   76  197 1    
   151   76  198 1    
   152   76  199 1    
   153   77   78 2    
   154   77   79 am   BACKBONE|DICT|INTERRES
   155   79   80 1    
   156   79  200 1    
   157   80   81 1    
   158   80   82 1    
   159   80  201 1    
   160   81  202 1    
   161   81  203 1    
   162   81  204 1    
   163   82   83 2    
   164   82   84 am   BACKBONE|DICT|INTERRES
   165   84   85 1    
   166   84  205 1    
   167   85   86 1    
   168   85   87 1    
   169   85  206 1    
   170   86  207 1    
   171   86  208 1    
   172   86  209 1    
   173   87   88 2    
   174   87   89 am   BACKBONE|DICT|INTERRES
   175   89   90 1    
   176   89  210 1    
   177   90   91 1    
   178   90   92 1    
   179   90  211 1    
   180   91  212 1    
   181   91  213 1    
   182   91  214 1    
   183   92   93 2    
   184   92   94 am   BACKBONE|DICT|INTERRES
   185   94   95 1    
   186   94  215 1    
   187   95   96 1    
   188   95   97 1    
   189   95  216 1    
   190   96  217 1    
   191   96  218 1    
   192   96  219 1    
   193   97   98 2    
   194   97   99 am   BACKBONE|DICT|INTERRES
   195   99  100 1    
   196   99  220 1    
   197  100  101 1    
   198  100  102 1    
   199  100  221 1    
   200  101  222 1    
   201  101  223 1    
   202  101  224 1    
   203  102  103 2    
   204  102  104 am   BACKBONE|DICT|INTERRES
   205  104  105 1    
   206  104  225 1    
   207  105  106 1    
   208  105  107 1    
   209  105  226 1    
   210  106  227 1    
   211  106  228 1    
   212  106  229 1    
   213  107  108 2    
   214  107  109 am   BACKBONE|DICT|INTERRES
   215  109  110 1    
   216  109  230 1    
   217  110  111 1    
   218  110  112 1    
   219  110  231 1    
   220  111  232 1    
   221  111  233 1    
   222  111  234 1    
   223  112  113 2    
   224  112  114 am   BACKBONE|DICT|INTERRES
   225  114  115 1    
   226  114  235 1    
   227  115  116 1    
   228  115  117 1    
   229  115  236 1    
   230  116  237 1    
   231  116  238 1    
   232  116  239 1    
   233  117  118 2    
   234  117  119 am   BACKBONE|DICT|INTERRES
   235  119  120 1    
   236  119  240 1    
   237  120  121 1    
   238  120  124 1    
   239  120  241 1    
   240  121  122 am   BACKBONE|DICT|INTERRES
   241  121  123 2    
   242  122  242 1    
   243  122  243 1    
   244  124  125 1    
   245  124  244 1    
   246  124  245 1    
   247  125  126 1    
   248  126  246 1    
   249  126  247 1    
@<TRIPOS>SUBSTRUCTURE
     1 UNK         1 GROUP             0       ****    0 ROOT    
