@<TRIPOS>MOLECULE
3R540
247   249    1
SMALL
USER_CHARGES


@<TRIPOS>ATOM
      1 CA         -1.1284  -14.4713  -50.1553 C.3       0 UNK        -0.1800 
      2 C          -1.6991  -14.4636  -48.7450 C.2       0 UNK         0.5000 
      3 O          -2.0122  -13.3956  -48.2180 O.2       0 UNK        -0.5000 
      4 N          -1.8169  -15.6445  -48.1224 N.am      1 UNK        -0.5000 
      5 CA         -2.2382  -15.8528  -46.7307 C.3       1 UNK         0.1400 
      6 C6         -3.7484  -15.5243  -46.4859 C.3       23 UNK        -0.0398 
      7 S7         -4.8077  -17.0071  -46.5384 S.3       23 UNK        -0.2404 
      8 C8         -4.7886  -17.4042  -48.3125 C.3       23 UNK        -0.0205 
      9 C9         -5.2624  -18.8170  -48.6267 C.ar      23 UNK        -0.0193 
     10 C10        -6.0740  -19.0433  -49.7407 C.ar      23 UNK        -0.1150 
     11 C11        -6.4327  -20.3423  -50.1097 C.ar      23 UNK        -0.0193 
     12 C12        -6.0117  -21.4224  -49.3273 C.ar      23 UNK        -0.1150 
     13 C13        -5.2038  -21.2114  -48.2053 C.ar      23 UNK        -0.0193 
     14 C14        -4.8240  -19.9091  -47.8704 C.ar      23 UNK        -0.1150 
     15 C15        -4.6675  -22.3884  -47.4043 C.3       23 UNK        -0.0205 
     16 S16        -5.2372  -22.3666  -45.6755 S.3       23 UNK        -0.2404 
     17 C17        -4.3060  -23.7896  -45.0146 C.3       23 UNK        -0.0398 
     18 CA         -2.8696  -23.4092  -44.5594 C.3       11 UNK         0.1400 
     19 N          -2.8172  -22.3653  -43.5283 N.am      11 UNK        -0.5000 
     20 C          -3.2812  -22.4425  -42.2728 C.2       10 UNK         0.5000 
     21 O          -3.8911  -23.4158  -41.8289 O.2       10 UNK        -0.5000 
     22 CA         -2.9797  -21.2551  -41.3344 C.3       10 UNK         0.1400 
     23 CB         -1.9266  -21.6627  -40.2914 C.3       10 UNK        -0.1800 
     24 N          -2.5000  -20.0619  -42.0339 N.am      10 UNK        -0.5000 
     25 C          -3.2686  -19.2288  -42.7479 C.2       9 UNK         0.5000 
     26 O          -4.4909  -19.3356  -42.8433 O.2       9 UNK        -0.5000 
     27 CA         -2.5371  -18.1015  -43.5011 C.3       9 UNK         0.1400 
     28 CB         -2.2873  -16.9086  -42.5654 C.3       9 UNK        -0.1800 
     29 N          -1.2675  -18.5362  -44.0905 N.am      9 UNK        -0.5000 
     30 C          -1.1350  -19.4927  -45.0226 C.2       8 UNK         0.5000 
     31 O          -2.0787  -20.0834  -45.5429 O.2       8 UNK        -0.5000 
     32 CA          0.2974  -19.9201  -45.3758 C.3       8 UNK         0.1400 
     33 CB          0.9233  -18.9866  -46.4208 C.3       8 UNK        -0.1800 
     34 N           1.1401  -19.9753  -44.1808 N.am      8 UNK        -0.5000 
     35 C           1.0681  -20.9481  -43.2621 C.2       7 UNK         0.5000 
     36 O           0.3292  -21.9256  -43.3706 O.2       7 UNK        -0.5000 
     37 CA          1.9601  -20.8160  -42.0151 C.3       7 UNK         0.1400 
     38 CB          3.3187  -21.4870  -42.2630 C.3       7 UNK        -0.1800 
     39 N           2.1709  -19.4261  -41.6125 N.am      7 UNK        -0.5000 
     40 C           1.2142  -18.6241  -41.1228 C.2       6 UNK         0.5000 
     41 O           0.0628  -18.9961  -40.8997 O.2       6 UNK        -0.5000 
     42 CA          1.5969  -17.1430  -40.9197 C.3       6 UNK         0.1400 
     43 CB          2.2096  -16.9266  -39.5285 C.3       6 UNK        -0.1800 
     44 N           2.5256  -16.6537  -41.9468 N.am      6 UNK        -0.5000 
     45 C           2.2318  -16.6099  -43.2526 C.2       5 UNK         0.5000 
     46 O           1.1290  -16.9235  -43.7014 O.2       5 UNK        -0.5000 
     47 CA          3.3819  -16.2795  -44.2123 C.3       5 UNK         0.1400 
     48 CB          4.2299  -17.5517  -44.4349 C.3       5 UNK        -0.1800 
     49 N           2.8458  -15.7860  -45.4816 N.am      5 UNK        -0.5000 
     50 C           3.5756  -15.3081  -46.4997 C.2       4 UNK         0.5000 
     51 O           4.8020  -15.1967  -46.4711 O.2       4 UNK        -0.5000 
     52 CA          2.8149  -14.8419  -47.7513 C.3       4 UNK         0.1400 
     53 CB          2.1037  -16.0055  -48.4649 C.3       4 UNK        -0.1800 
     54 N           1.8525  -13.8028  -47.3991 N.am      4 UNK        -0.5000 
     55 C           2.1258  -12.4897  -47.3856 C.2       3 UNK         0.5000 
     56 O           3.1991  -12.0131  -47.7571 O.2       3 UNK        -0.5000 
     57 CA          1.0265  -11.5367  -46.8740 C.3       3 UNK         0.1400 
     58 CB          0.3095  -10.8566  -48.0504 C.3       3 UNK        -0.1800 
     59 N           0.0412  -12.2121  -46.0288 N.am      3 UNK        -0.5000 
     60 C           0.2645  -12.5656  -44.7539 C.2       2 UNK         0.5000 
     61 O           1.2852  -12.2659  -44.1337 O.2       2 UNK        -0.5000 
     62 CA         -0.8116  -13.4232  -44.0571 C.3       2 UNK         0.1400 
     63 CB         -1.6984  -12.5552  -43.1526 C.3       2 UNK        -0.1800 
     64 N          -1.6661  -14.1790  -44.9778 N.am      2 UNK        -0.5000 
     65 C          -1.2287  -15.1394  -45.8038 C.2       1 UNK         0.5000 
     66 O          -0.0398  -15.4432  -45.8972 O.2       1 UNK        -0.5000 
     67 C          -2.0055  -24.6417  -44.2002 C.2       11 UNK         0.5000 
     68 O          -2.2594  -25.7404  -44.6953 O.2       11 UNK        -0.5000 
     69 N          -0.9699  -24.4314  -43.3760 N.am      12 UNK        -0.5000 
     70 CA          0.0939  -25.3964  -43.1074 C.3       12 UNK         0.1400 
     71 CB          0.7856  -25.0399  -41.7825 C.3       12 UNK        -0.1800 
     72 C           1.0981  -25.4093  -44.2723 C.2       12 UNK         0.5000 
     73 O           1.5037  -26.4809  -44.7223 O.2       12 UNK        -0.5000 
     74 N           1.4191  -24.2138  -44.7869 N.am      13 UNK        -0.5000 
     75 CA          2.1577  -24.0004  -46.0281 C.3       13 UNK         0.1400 
     76 CB          3.0812  -22.7782  -45.8801 C.3       13 UNK        -0.1800 
     77 C           1.1501  -23.8493  -47.1806 C.2       13 UNK         0.5000 
     78 O           1.0437  -22.7817  -47.7880 O.2       13 UNK        -0.5000 
     79 N           0.4076  -24.9307  -47.4528 N.am      14 UNK        -0.5000 
     80 CA         -0.6185  -25.0127  -48.4973 C.3       14 UNK         0.1400 
     81 CB         -1.3890  -26.3314  -48.3386 C.3       14 UNK        -0.1800 
     82 C          -0.0626  -24.8770  -49.9301 C.2       14 UNK         0.5000 
     83 O          -0.8129  -24.5287  -50.8408 O.2       14 UNK        -0.5000 
     84 N           1.2426  -25.1315  -50.1012 N.am      15 UNK        -0.5000 
     85 CA          1.9848  -24.8916  -51.3390 C.3       15 UNK         0.1400 
     86 CB          3.3448  -25.6007  -51.2502 C.3       15 UNK        -0.1800 
     87 C           2.1770  -23.3913  -51.6418 C.2       15 UNK         0.5000 
     88 O           2.3094  -23.0292  -52.8112 O.2       15 UNK        -0.5000 
     89 N           2.1862  -22.5527  -50.5949 N.am      16 UNK        -0.5000 
     90 CA          2.2075  -21.0977  -50.7038 C.3       16 UNK         0.1400 
     91 CB          2.9803  -20.4899  -49.5191 C.3       16 UNK        -0.1800 
     92 C           0.7658  -20.5776  -50.7817 C.2       16 UNK         0.5000 
     93 O           0.3707  -20.0586  -51.8283 O.2       16 UNK        -0.5000 
     94 N           0.0066  -20.7690  -49.6870 N.am      17 UNK        -0.5000 
     95 CA         -1.4060  -20.4058  -49.5120 C.3       17 UNK         0.1400 
     96 CB         -2.2782  -21.4777  -50.2055 C.3       17 UNK        -0.1800 
     97 C          -1.6922  -18.9624  -49.9879 C.2       17 UNK         0.5000 
     98 O          -1.0780  -18.0187  -49.4876 O.2       17 UNK        -0.5000 
     99 N          -2.5557  -18.8367  -50.9967 N.am      18 UNK        -0.5000 
    100 CA        -2.5673  -17.7567  -51.9723 C.3       18 UNK         0.1400 
    101 CB        -3.6629  -16.7278  -51.6412 C.3       18 UNK        -0.1800 
    102 C         -2.7644  -18.4366  -53.3352 C.2       18 UNK         0.5000 
    103 O         -3.7256  -18.1379  -54.0411 O.2       18 UNK        -0.5000 
    104 N         -1.8799  -19.3976  -53.6480 N.am      19 UNK        -0.5000 
    105 CA        -2.0070  -20.3756  -54.7375 C.3       19 UNK         0.1400 
    106 CB        -0.8161  -21.3450  -54.6710 C.3       19 UNK        -0.1800 
    107 C         -2.1588  -19.7991  -56.1613 C.2       19 UNK         0.5000 
    108 O         -2.6172  -20.5149  -57.0525 O.2       19 UNK        -0.5000 
    109 N         -1.7958  -18.5244  -56.3549 N.am      20 UNK        -0.5000 
    110 CA        -2.0486  -17.7625  -57.5800 C.3       20 UNK         0.1400 
    111 CB        -1.1893  -16.4888  -57.5539 C.3       20 UNK        -0.1800 
    112 C         -3.5384  -17.4041  -57.7825 C.2       20 UNK         0.5000 
    113 O         -3.9356  -17.1109  -58.9114 O.2       20 UNK        -0.5000 
    114 N         -4.3246  -17.4217  -56.6989 N.am      21 UNK        -0.5000 
    115 CA        -5.7577  -17.1593  -56.6645 C.3       21 UNK         0.1400 
    116 CB        -6.0167  -15.9695  -55.7168 C.3       21 UNK        -0.1800 
    117 C         -6.4923  -18.4570  -56.2694 C.2       21 UNK         0.5000 
    118 O         -6.3237  -19.4698  -56.9512 O.2       21 UNK        -0.5000 
    119 N         -7.3104  -18.4039  -55.2083 N.am      22 UNK        -0.5000 
    120 CA        -8.1724  -19.4911  -54.6996 C.3       22 UNK         0.1400 
    121 C         -9.3500  -19.8849  -55.6469 C.2       22 UNK         0.5000 
    122 N         -9.7178  -19.0651  -56.6243 N.am      22 UNK        -0.7600 
    123 O         -9.9686  -20.9326  -55.4778 O.2       22 UNK        -0.5000 
    124 C124       -7.3850  -20.7323  -54.1849 C.3       23 UNK        -0.0398 
    125 S125       -6.1982  -20.3400  -52.8558 S.3       23 UNK        -0.2404 
    126 C126       -7.2385  -20.5725  -51.3780 C.3       23 UNK        -0.0205 
    127 H127       -1.8774  -14.1239  -50.8666 H         1 UNK         0.0600 
    128 H128       -0.8059  -15.4681  -50.4548 H         1 UNK         0.0600 
    129 H129       -0.2659  -13.8074  -50.2124 H         1 UNK         0.0600 
    130 H130       -1.5007  -16.4847  -48.6057 H         1 UNK         0.3000 
    131 H131       -2.0790  -16.9137  -46.5325 H         1 UNK         0.0600 
    132 H132       -4.1254  -14.7853  -47.1941 H         1 UNK         0.0800 
    133 H133       -3.9332  -15.1039  -45.4981 H         1 UNK         0.0800 
    134 H134       -3.7710  -17.3217  -48.6839 H         1 UNK         0.0800 
    135 H135       -5.3833  -16.6620  -48.8470 H         1 UNK         0.0800 
    136 H136       -6.3953  -18.2118  -50.3518 H         1 UNK         0.1150 
    137 H137       -6.2820  -22.4291  -49.6137 H         1 UNK         0.1150 
    138 H138       -4.1718  -19.7508  -47.0234 H         1 UNK         0.1150 
    139 H139       -4.9582  -23.3334  -47.8657 H         1 UNK         0.0800 
    140 H140       -3.5776  -22.3528  -47.4259 H         1 UNK         0.0800 
    141 H141       -4.2806  -24.5619  -45.7852 H         1 UNK         0.0800 
    142 H142       -4.8711  -24.2161  -44.1850 H         1 UNK         0.0800 
    143 H143       -2.3653  -22.9734  -45.4229 H         1 UNK         0.0600 
    144 H144       -2.3616  -21.5077  -43.8111 H         1 UNK         0.3000 
    145 H145       -3.9045  -21.0051  -40.8106 H         1 UNK         0.0600 
    146 H146       -1.7336  -20.8528  -39.5877 H         1 UNK         0.0600 
    147 H147       -0.9796  -21.9308  -40.7612 H         1 UNK         0.0600 
    148 H148       -2.2602  -22.5239  -39.7111 H         1 UNK         0.0600 
    149 H149       -1.5141  -19.8446  -41.9354 H         1 UNK         0.3000 
    150 H150       -3.1803  -17.7714  -44.3155 H         1 UNK         0.0600 
    151 H151       -3.2293  -16.4557  -42.2546 H         1 UNK         0.0600 
    152 H152       -1.6958  -16.1355  -43.0502 H         1 UNK         0.0600 
    153 H153       -1.7552  -17.2064  -41.6623 H         1 UNK         0.0600 
    154 H154       -0.4279  -18.0646  -43.7649 H         1 UNK         0.3000 
    155 H155        0.2456  -20.9195  -45.8131 H         1 UNK         0.0600 
    156 H156        0.3358  -18.9786  -47.3384 H         1 UNK         0.0600 
    157 H157        1.9322  -19.3042  -46.6822 H         1 UNK         0.0600 
    158 H158        0.9778  -17.9602  -46.0644 H         1 UNK         0.0600 
    159 H159        1.7195  -19.1698  -43.9983 H         1 UNK         0.3000 
    160 H160        1.4639  -21.3389  -41.1950 H         1 UNK         0.0600 
    161 H161        3.8710  -20.9967  -43.0659 H         1 UNK         0.0600 
    162 H162        3.1930  -22.5338  -42.5432 H         1 UNK         0.0600 
    163 H163        3.9385  -21.4651  -41.3666 H         1 UNK         0.0600 
    164 H164        3.0938  -19.0439  -41.7541 H         1 UNK         0.3000 
    165 H165        0.6803  -16.5531  -40.9862 H         1 UNK         0.0600 
    166 H166        2.4112  -15.8708  -39.3466 H         1 UNK         0.0600 
    167 H167        1.5292  -17.2658  -38.7461 H         1 UNK         0.0600 
    168 H168        3.1458  -17.4734  -39.4096 H         1 UNK         0.0600 
    169 H169        3.4516  -16.3958  -41.6363 H         1 UNK         0.3000 
    170 H170        3.9955  -15.4964  -43.7630 H         1 UNK         0.0600 
    171 H171        3.6676  -18.3211  -44.9651 H         1 UNK         0.0600 
    172 H172        5.1295  -17.3433  -45.0128 H         1 UNK         0.0600 
    173 H173        4.5620  -17.9805  -43.4888 H         1 UNK         0.0600 
    174 H174        1.8291  -15.8136  -45.5541 H         1 UNK         0.3000 
    175 H175        3.5488  -14.4391  -48.4527 H         1 UNK         0.0600 
    176 H176        1.2912  -16.4232  -47.8733 H         1 UNK         0.0600 
    177 H177        1.6815  -15.6802  -49.4154 H         1 UNK         0.0600 
    178 H178        2.8005  -16.8163  -48.6804 H         1 UNK         0.0600 
    179 H179        0.9795  -14.1281  -46.9993 H         1 UNK         0.3000 
    180 H180        1.5139  -10.7573  -46.2843 H         1 UNK         0.0600 
    181 H181       -0.4723  -10.1816  -47.7017 H         1 UNK         0.0600 
    182 H182       -0.1475  -11.5834  -48.7215 H         1 UNK         0.0600 
    183 H183        1.0096  -10.2649  -48.6414 H         1 UNK         0.0600 
    184 H184       -0.8145  -12.5113  -46.4807 H         1 UNK         0.3000 
    185 H185       -0.2848  -14.1441  -43.4279 H         1 UNK         0.0600 
    186 H186       -1.0967  -11.9989  -42.4326 H         1 UNK         0.0600 
    187 H187       -2.2735  -11.8302  -43.7299 H         1 UNK         0.0600 
    188 H188       -2.3994  -13.1665  -42.5838 H         1 UNK         0.0600 
    189 H189       -2.6428  -13.9264  -44.9857 H         1 UNK         0.3000 
    190 H190       -0.7912  -23.4774  -43.0789 H         1 UNK         0.3000 
    191 H191       -0.3390  -26.3946  -43.0127 H         1 UNK         0.0600 
    192 H192        1.2389  -24.0489  -41.8128 H         1 UNK         0.0600 
    193 H193        1.5755  -25.7555  -41.5510 H         1 UNK         0.0600 
    194 H194        0.0776  -25.0568  -40.9538 H         1 UNK         0.0600 
    195 H195        1.0032  -23.3892  -44.3644 H         1 UNK         0.3000 
    196 H196        2.7876  -24.8650  -46.2466 H         1 UNK         0.0600 
    197 H197        3.7762  -22.9079  -45.0508 H         1 UNK         0.0600 
    198 H198        2.5228  -21.8598  -45.7097 H         1 UNK         0.0600 
    199 H199        3.6766  -22.6314  -46.7820 H         1 UNK         0.0600 
    200 H200        0.5486  -25.7617  -46.8938 H         1 UNK         0.3000 
    201 H201       -1.3175  -24.1896  -48.3384 H         1 UNK         0.0600 
    202 H202       -1.8587  -26.3990  -47.3574 H         1 UNK         0.0600 
    203 H203       -0.7353  -27.1961  -48.4590 H         1 UNK         0.0600 
    204 H204       -2.1828  -26.4129  -49.0825 H         1 UNK         0.0600 
    205 H205        1.7765  -25.4454  -49.3049 H         1 UNK         0.3000 
    206 H206        1.4230  -25.3284  -52.1674 H         1 UNK         0.0600 
    207 H207        3.9160  -25.4653  -52.1696 H         1 UNK         0.0600 
    208 H208        3.9487  -25.2132  -50.4286 H         1 UNK         0.0600 
    209 H209        3.2218  -26.6736  -51.1010 H         1 UNK         0.0600 
    210 H210        2.0034  -22.9245  -49.6717 H         1 UNK         0.3000 
    211 H211        2.7225  -20.7995  -51.6197 H         1 UNK         0.0600 
    212 H212        2.5698  -20.7900  -48.5558 H         1 UNK         0.0600 
    213 H213        2.9590  -19.4001  -49.5586 H         1 UNK         0.0600 
    214 H214        4.0264  -20.7952  -49.5396 H         1 UNK         0.0600 
    215 H215        0.4300  -21.2541  -48.9021 H         1 UNK         0.3000 
    216 H216       -1.6215  -20.4281  -48.4426 H         1 UNK         0.0600 
    217 H217       -3.3362  -21.2261  -50.1783 H         1 UNK         0.0600 
    218 H218       -2.1729  -22.4399  -49.7082 H         1 UNK         0.0600 
    219 H219       -2.0018  -21.6183  -51.2513 H         1 UNK         0.0600 
    220 H220       -3.0297  -19.6739  -51.3075 H         1 UNK         0.3000 
    221 H221       -1.5984  -17.2538  -51.9954 H         1 UNK         0.0600 
    222 H222       -4.6487  -17.1905  -51.5997 H         1 UNK         0.0600 
    223 H223       -3.4740  -16.2409  -50.6868 H         1 UNK         0.0600 
    224 H224       -3.7005  -15.9435  -52.3979 H         1 UNK         0.0600 
    225 H225       -1.1056  -19.5614  -53.0080 H         1 UNK         0.3000 
    226 H226       -2.9160  -20.9474  -54.5399 H         1 UNK         0.0600 
    227 H227       -0.7856  -21.8690  -53.7151 H         1 UNK         0.0600 
    228 H228       -0.8789  -22.1038  -55.4521 H         1 UNK         0.0600 
    229 H229        0.1329  -20.8220  -54.7947 H         1 UNK         0.0600 
    230 H230       -1.4262  -18.0124  -55.5677 H         1 UNK         0.3000 
    231 H231       -1.7367  -18.3681  -58.4334 H         1 UNK         0.0600 
    232 H232       -1.3247  -15.9072  -58.4668 H         1 UNK         0.0600 
    233 H233       -0.1287  -16.7292  -57.4778 H         1 UNK         0.0600 
    234 H234       -1.4504  -15.8451  -56.7129 H         1 UNK         0.0600 
    235 H235       -3.9314  -17.7231  -55.8092 H         1 UNK         0.3000 
    236 H236       -6.1210  -16.8843  -57.6564 H         1 UNK         0.0600 
    237 H237       -5.6916  -16.1821  -54.6971 H         1 UNK         0.0600 
    238 H238       -5.4771  -15.0838  -56.0528 H         1 UNK         0.0600 
    239 H239       -7.0742  -15.7041  -55.6889 H         1 UNK         0.0600 
    240 H240       -7.3733  -17.5317  -54.7040 H         1 UNK         0.3000 
    241 H241       -8.6751  -19.0630  -53.8321 H         1 UNK         0.0600 
    242 H242      -10.4868  -19.3222  -57.2235 H         1 UNK         0.3800 
    243 H243       -9.2385  -18.1917  -56.7718 H         1 UNK         0.3800 
    244 H244       -8.0665  -21.4975  -53.8104 H         1 UNK         0.0800 
    245 H245       -6.8380  -21.2016  -55.0031 H         1 UNK         0.0800 
    246 H246       -7.6621  -21.5780  -51.3834 H         1 UNK         0.0800 
    247 H247       -8.0792  -19.8780  -51.4087 H         1 UNK         0.0800 
@<TRIPOS>BOND
     1    1    2 1    
     2    1  127 1    
     3    1  128 1    
     4    1  129 1    
     5    2    3 2    
     6    2    4 am   BACKBONE|DICT|INTERRES
     7    4    5 1    
     8    4  130 1    
     9    5    6 1    
    10    5   65 1    
    11    5  131 1    
    12    6    7 1    
    13    6  132 1    
    14    6  133 1    
    15    7    8 1    
    16    8    9 1    
    17    8  134 1    
    18    8  135 1    
    19    9   10 ar   
    20    9   14 ar   
    21   10   11 ar   
    22   10  136 1    
    23   11   12 ar   
    24   11  126 1    
    25   12   13 ar   
    26   12  137 1    
    27   13   14 ar   
    28   13   15 1    
    29   14  138 1    
    30   15   16 1    
    31   15  139 1    
    32   15  140 1    
    33   16   17 1    
    34   17   18 1    
    35   17  141 1    
    36   17  142 1    
    37   18   19 1    
    38   18   67 1    
    39   18  143 1    
    40   19   20 am   BACKBONE|DICT|INTERRES
    41   19  144 1    
    42   20   21 2    
    43   20   22 1    
    44   22   23 1    
    45   22   24 1    
    46   22  145 1    
    47   23  146 1    
    48   23  147 1    
    49   23  148 1    
    50   24   25 am   BACKBONE|DICT|INTERRES
    51   24  149 1    
    52   25   26 2    
    53   25   27 1    
    54   27   28 1    
    55   27   29 1    
    56   27  150 1    
    57   28  151 1    
    58   28  152 1    
    59   28  153 1    
    60   29   30 am   BACKBONE|DICT|INTERRES
    61   29  154 1    
    62   30   31 2    
    63   30   32 1    
    64   32   33 1    
    65   32   34 1    
    66   32  155 1    
    67   33  156 1    
    68   33  157 1    
    69   33  158 1    
    70   34   35 am   BACKBONE|DICT|INTERRES
    71   34  159 1    
    72   35   36 2    
    73   35   37 1    
    74   37   38 1    
    75   37   39 1    
    76   37  160 1    
    77   38  161 1    
    78   38  162 1    
    79   38  163 1    
    80   39   40 am   BACKBONE|DICT|INTERRES
    81   39  164 1    
    82   40   41 2    
    83   40   42 1    
    84   42   43 1    
    85   42   44 1    
    86   42  165 1    
    87   43  166 1    
    88   43  167 1    
    89   43  168 1    
    90   44   45 am   BACKBONE|DICT|INTERRES
    91   44  169 1    
    92   45   46 2    
    93   45   47 1    
    94   47   48 1    
    95   47   49 1    
    96   47  170 1    
    97   48  171 1    
    98   48  172 1    
    99   48  173 1    
   100   49   50 am   BACKBONE|DICT|INTERRES
   101   49  174 1    
   102   50   51 2    
   103   50   52 1    
   104   52   53 1    
   105   52   54 1    
   106   52  175 1    
   107   53  176 1    
   108   53  177 1    
   109   53  178 1    
   110   54   55 am   BACKBONE|DICT|INTERRES
   111   54  179 1    
   112   55   56 2    
   113   55   57 1    
   114   57   58 1    
   115   57   59 1    
   116   57  180 1    
   117   58  181 1    
   118   58  182 1    
   119   58  183 1    
   120   59   60 am   BACKBONE|DICT|INTERRES
   121   59  184 1    
   122   60   61 2    
   123   60   62 1    
   124   62   63 1    
   125   62   64 1    
   126   62  185 1    
   127   63  186 1    
   128   63  187 1    
   129   63  188 1    
   130   64   65 am   BACKBONE|DICT|INTERRES
   131   64  189 1    
   132   65   66 2    
   133   67   68 2    
   134   67   69 am   BACKBONE|DICT|INTERRES
   135   69   70 1    
   136   69  190 1    
   137   70   71 1    
   138   70   72 1    
   139   70  191 1    
   140   71  192 1    
   141   71  193 1    
   142   71  194 1    
   143   72   73 2    
   144   72   74 am   BACKBONE|DICT|INTERRES
   145   74   75 1    
   146   74  195 1    
   147   75   76 1    
   148   75   77 1    
   149   75  196 1    
   150   76  197 1    
   151   76  198 1    
   152   76  199 1    
   153   77   78 2    
   154   77   79 am   BACKBONE|DICT|INTERRES
   155   79   80 1    
   156   79  200 1    
   157   80   81 1    
   158   80   82 1    
   159   80  201 1    
   160   81  202 1    
   161   81  203 1    
   162   81  204 1    
   163   82   83 2    
   164   82   84 am   BACKBONE|DICT|INTERRES
   165   84   85 1    
   166   84  205 1    
   167   85   86 1    
   168   85   87 1    
   169   85  206 1    
   170   86  207 1    
   171   86  208 1    
   172   86  209 1    
   173   87   88 2    
   174   87   89 am   BACKBONE|DICT|INTERRES
   175   89   90 1    
   176   89  210 1    
   177   90   91 1    
   178   90   92 1    
   179   90  211 1    
   180   91  212 1    
   181   91  213 1    
   182   91  214 1    
   183   92   93 2    
   184   92   94 am   BACKBONE|DICT|INTERRES
   185   94   95 1    
   186   94  215 1    
   187   95   96 1    
   188   95   97 1    
   189   95  216 1    
   190   96  217 1    
   191   96  218 1    
   192   96  219 1    
   193   97   98 2    
   194   97   99 am   BACKBONE|DICT|INTERRES
   195   99  100 1    
   196   99  220 1    
   197  100  101 1    
   198  100  102 1    
   199  100  221 1    
   200  101  222 1    
   201  101  223 1    
   202  101  224 1    
   203  102  103 2    
   204  102  104 am   BACKBONE|DICT|INTERRES
   205  104  105 1    
   206  104  225 1    
   207  105  106 1    
   208  105  107 1    
   209  105  226 1    
   210  106  227 1    
   211  106  228 1    
   212  106  229 1    
   213  107  108 2    
   214  107  109 am   BACKBONE|DICT|INTERRES
   215  109  110 1    
   216  109  230 1    
   217  110  111 1    
   218  110  112 1    
   219  110  231 1    
   220  111  232 1    
   221  111  233 1    
   222  111  234 1    
   223  112  113 2    
   224  112  114 am   BACKBONE|DICT|INTERRES
   225  114  115 1    
   226  114  235 1    
   227  115  116 1    
   228  115  117 1    
   229  115  236 1    
   230  116  237 1    
   231  116  238 1    
   232  116  239 1    
   233  117  118 2    
   234  117  119 am   BACKBONE|DICT|INTERRES
   235  119  120 1    
   236  119  240 1    
   237  120  121 1    
   238  120  124 1    
   239  120  241 1    
   240  121  122 am   BACKBONE|DICT|INTERRES
   241  121  123 2    
   242  122  242 1    
   243  122  243 1    
   244  124  125 1    
   245  124  244 1    
   246  124  245 1    
   247  125  126 1    
   248  126  246 1    
   249  126  247 1    
@<TRIPOS>SUBSTRUCTURE
     1 UNK         1 GROUP             0       ****    0 ROOT    
