@<TRIPOS>MOLECULE
3R540
247   249    1
SMALL
USER_CHARGES


@<TRIPOS>ATOM
      1 CA         -0.4643  -14.9909  -44.7000 C.3       0 UNK        -0.1800 
      2 C           0.6558  -14.2095  -45.3825 C.2       0 UNK         0.5000 
      3 O           1.5752  -13.7625  -44.7026 O.2       0 UNK        -0.5000 
      4 N           0.6255  -14.0146  -46.7081 N.am      1 UNK        -0.5000 
      5 CA         -0.5553  -14.1672  -47.5694 C.3       1 UNK         0.1400 
      6 C6         -0.1996  -14.2983  -49.0719 C.3       23 UNK        -0.0398 
      7 S7          0.9327  -15.6774  -49.4642 S.3       23 UNK        -0.2404 
      8 C8          0.0156  -17.1037  -48.8079 C.3       23 UNK        -0.0205 
      9 C9          0.4956  -18.4134  -49.4132 C.ar      23 UNK        -0.0193 
     10 C10        -0.2584  -19.0512  -50.4011 C.ar      23 UNK        -0.1150 
     11 C11         0.1713  -20.2599  -50.9582 C.ar      23 UNK        -0.0193 
     12 C12         1.3487  -20.8512  -50.4883 C.ar      23 UNK        -0.1150 
     13 C13         2.1001  -20.2334  -49.4839 C.ar      23 UNK        -0.0193 
     14 C14         1.6754  -19.0082  -48.9626 C.ar      23 UNK        -0.1150 
     15 C15         3.3849  -20.8660  -48.9725 C.3       23 UNK        -0.0205 
     16 S16         3.2436  -21.4064  -47.2385 S.3       23 UNK        -0.2404 
     17 C17         2.5125  -23.0690  -47.3752 C.3       23 UNK        -0.0398 
     18 CA          1.1573  -23.2782  -46.6524 C.3       11 UNK         0.1400 
     19 N           1.1100  -22.8023  -45.2631 N.am      11 UNK        -0.5000 
     20 C           0.2233  -23.2647  -44.3664 C.2       10 UNK         0.5000 
     21 O          -0.6082  -24.1365  -44.6230 O.2       10 UNK        -0.5000 
     22 CA          0.2283  -22.6336  -42.9627 C.3       10 UNK         0.1400 
     23 CB          1.4508  -23.0898  -42.1524 C.3       10 UNK        -0.1800 
     24 N           0.1632  -21.1741  -42.9948 N.am      10 UNK        -0.5000 
     25 C          -0.8577  -20.4680  -43.5026 C.2       9 UNK         0.5000 
     26 O          -1.8770  -20.9779  -43.9670 O.2       9 UNK        -0.5000 
     27 CA         -0.6990  -18.9356  -43.5386 C.3       9 UNK         0.1400 
     28 CB         -1.1730  -18.3046  -42.2218 C.3       9 UNK        -0.1800 
     29 N           0.6725  -18.5111  -43.8197 N.am      9 UNK        -0.5000 
     30 C           1.3402  -18.8078  -44.9430 C.2       8 UNK         0.5000 
     31 O           0.8453  -19.4338  -45.8778 O.2       8 UNK        -0.5000 
     32 CA          2.8133  -18.3744  -45.0113 C.3       8 UNK         0.1400 
     33 CB          2.9410  -16.9034  -45.4198 C.3       8 UNK        -0.1800 
     34 N           3.5007  -18.5900  -43.7400 N.am      8 UNK        -0.5000 
     35 C           3.8738  -19.7917  -43.2794 C.2       7 UNK         0.5000 
     36 O           3.7121  -20.8451  -43.8941 O.2       7 UNK        -0.5000 
     37 CA          4.5071  -19.8222  -41.8768 C.3       7 UNK         0.1400 
     38 CB          6.0068  -19.4977  -41.9503 C.3       7 UNK        -0.1800 
     39 N           3.8562  -18.9011  -40.9438 N.am      7 UNK        -0.5000 
     40 C           2.5977  -19.0384  -40.5046 C.2       6 UNK         0.5000 
     41 O           1.8556  -19.9642  -40.8317 O.2       6 UNK        -0.5000 
     42 CA          2.0678  -17.9349  -39.5711 C.3       6 UNK         0.1400 
     43 CB          2.4554  -18.2296  -38.1143 C.3       6 UNK        -0.1800 
     44 N           2.5126  -16.5838  -39.9285 N.am      6 UNK        -0.5000 
     45 C           2.2472  -15.9763  -41.0921 C.2       5 UNK         0.5000 
     46 O           1.6931  -16.5303  -42.0436 O.2       5 UNK        -0.5000 
     47 CA          2.6781  -14.5065  -41.2236 C.3       5 UNK         0.1400 
     48 CB          3.8886  -14.3731  -42.1597 C.3       5 UNK        -0.1800 
     49 N           1.5715  -13.7066  -41.7441 N.am      5 UNK        -0.5000 
     50 C           0.4945  -13.3556  -41.0260 C.2       4 UNK         0.5000 
     51 O           0.3826  -13.5884  -39.8205 O.2       4 UNK        -0.5000 
     52 CA         -0.6478  -12.6400  -41.7813 C.3       4 UNK         0.1400 
     53 CB         -1.6185  -11.8895  -40.8451 C.3       4 UNK        -0.1800 
     54 N          -0.1735  -11.7620  -42.8563 N.am      4 UNK        -0.5000 
     55 C           0.5964  -10.6695  -42.7402 C.2       3 UNK         0.5000 
     56 O           0.9948  -10.2173  -41.6662 O.2       3 UNK        -0.5000 
     57 CA          1.0075   -9.9656  -44.0489 C.3       3 UNK         0.1400 
     58 CB          2.5018  -10.1942  -44.3289 C.3       3 UNK        -0.1800 
     59 N           0.2414  -10.4109  -45.2175 N.am      3 UNK        -0.5000 
     60 C          -0.9798   -9.9660  -45.5545 C.2       2 UNK         0.5000 
     61 O          -1.6030   -9.1354  -44.8932 O.2       2 UNK        -0.5000 
     62 CA         -1.6189  -10.5416  -46.8352 C.3       2 UNK         0.1400 
     63 CB         -1.5522   -9.5144  -47.9769 C.3       2 UNK        -0.1800 
     64 N          -0.9497  -11.7722  -47.2648 N.am      2 UNK        -0.5000 
     65 C          -1.5173  -12.9847  -47.3297 C.2       1 UNK         0.5000 
     66 O          -2.7145  -13.1999  -47.1436 O.2       1 UNK        -0.5000 
     67 C          -0.0583  -22.8177  -47.4802 C.2       11 UNK         0.5000 
     68 O          -0.5212  -23.5915  -48.3184 O.2       11 UNK        -0.5000 
     69 N          -0.6088  -21.6280  -47.1898 N.am      12 UNK        -0.5000 
     70 CA         -1.8663  -21.1466  -47.7675 C.3       12 UNK         0.1400 
     71 CB         -2.1642  -19.7177  -47.2898 C.3       12 UNK        -0.1800 
     72 C          -3.0517  -22.0671  -47.4339 C.2       12 UNK         0.5000 
     73 O          -3.8022  -22.4383  -48.3367 O.2       12 UNK        -0.5000 
     74 N          -3.1767  -22.4391  -46.1522 N.am      13 UNK        -0.5000 
     75 CA         -4.1994  -23.3527  -45.6482 C.3       13 UNK         0.1400 
     76 CB         -4.1852  -23.3484  -44.1122 C.3       13 UNK        -0.1800 
     77 C          -4.0361  -24.7811  -46.1934 C.2       13 UNK         0.5000 
     78 O          -5.0262  -25.3798  -46.6139 O.2       13 UNK        -0.5000 
     79 N          -2.7948  -25.2890  -46.2052 N.am      14 UNK        -0.5000 
     80 CA         -2.4499  -26.6231  -46.7022 C.3       14 UNK         0.1400 
     81 CB         -0.9845  -26.9377  -46.3679 C.3       14 UNK        -0.1800 
     82 C          -2.7080  -26.7937  -48.2102 C.2       14 UNK         0.5000 
     83 O          -3.2095  -27.8394  -48.6247 O.2       14 UNK        -0.5000 
     84 N          -2.3831  -25.7607  -48.9992 N.am      15 UNK        -0.5000 
     85 CA         -2.6156  -25.7260  -50.4431 C.3       15 UNK         0.1400 
     86 CB         -1.6646  -24.6957  -51.0754 C.3       15 UNK        -0.1800 
     87 C          -4.0707  -25.3894  -50.8190 C.2       15 UNK         0.5000 
     88 O          -4.4282  -25.5434  -51.9862 O.2       15 UNK        -0.5000 
     89 N          -4.8593  -24.8727  -49.8632 N.am      16 UNK        -0.5000 
     90 CA         -6.1899  -24.2748  -50.0413 C.3       16 UNK         0.1400 
     91 CB         -7.2307  -25.3450  -50.4286 C.3       16 UNK        -0.1800 
     92 C          -6.1347  -23.0911  -51.0306 C.2       16 UNK         0.5000 
     93 O          -6.8739  -23.0541  -52.0170 O.2       16 UNK        -0.5000 
     94 N          -5.1634  -22.1965  -50.7908 N.am      17 UNK        -0.5000 
     95 CA         -4.7450  -21.0704  -51.6356 C.3       17 UNK         0.1400 
     96 CB         -5.8509  -19.9983  -51.6994 C.3       17 UNK        -0.1800 
     97 C          -4.2543  -21.4928  -53.0410 C.2       17 UNK         0.5000 
     98 O          -4.2338  -20.6644  -53.9519 O.2       17 UNK        -0.5000 
     99 N          -3.9005  -22.7780  -53.2011 N.am      18 UNK        -0.5000 
    100 CA        -3.5957  -23.4705  -54.4575 C.3       18 UNK         0.1400 
    101 CB        -2.2763  -22.9558  -55.0653 C.3       18 UNK        -0.1800 
    102 C         -4.7861  -23.4329  -55.4388 C.2       18 UNK         0.5000 
    103 O         -4.5910  -23.2279  -56.6357 O.2       18 UNK        -0.5000 
    104 N         -6.0067  -23.5793  -54.8969 N.am      19 UNK        -0.5000 
    105 CA        -7.2970  -23.3962  -55.5739 C.3       19 UNK         0.1400 
    106 CB        -7.5139  -24.4601  -56.6706 C.3       19 UNK        -0.1800 
    107 C         -7.4801  -21.9469  -56.0761 C.2       19 UNK         0.5000 
    108 O         -7.9632  -21.7235  -57.1871 O.2       19 UNK        -0.5000 
    109 N         -7.0608  -20.9948  -55.2298 N.am      20 UNK        -0.5000 
    110 CA        -7.0326  -19.5427  -55.4353 C.3       20 UNK         0.1400 
    111 CB        -8.4543  -18.9815  -55.6482 C.3       20 UNK        -0.1800 
    112 C         -6.0305  -19.0739  -56.5136 C.2       20 UNK         0.5000 
    113 O         -6.1760  -17.9657  -57.0330 O.2       20 UNK        -0.5000 
    114 N         -5.0196  -19.8992  -56.8226 N.am      21 UNK        -0.5000 
    115 CA        -3.9226  -19.5449  -57.7242 C.3       21 UNK         0.1400 
    116 CB        -3.3087  -20.8147  -58.3302 C.3       21 UNK        -0.1800 
    117 C         -2.8418  -18.6959  -57.0293 C.2       21 UNK         0.5000 
    118 O         -2.1887  -17.8990  -57.7052 O.2       21 UNK        -0.5000 
    119 N         -2.6688  -18.8612  -55.7095 N.am      22 UNK        -0.5000 
    120 CA        -1.7926  -18.0095  -54.8911 C.3       22 UNK         0.1400 
    121 C         -2.4212  -16.6059  -54.6703 C.2       22 UNK         0.5000 
    122 N         -1.6413  -15.5408  -54.7948 N.am      22 UNK        -0.7600 
    123 O         -3.5991  -16.4773  -54.3440 O.2       22 UNK        -0.5000 
    124 C124       -1.4399  -18.6540  -53.5278 C.3       23 UNK        -0.0398 
    125 S125       -0.4302  -20.1669  -53.6823 S.3       23 UNK        -0.2404 
    126 C126       -0.6497  -20.9407  -52.0448 C.3       23 UNK        -0.0205 
    127 H127       -0.1871  -15.2314  -43.6739 H         1 UNK         0.0600 
    128 H128       -0.6471  -15.9364  -45.2103 H         1 UNK         0.0600 
    129 H129       -1.3887  -14.4148  -44.6764 H         1 UNK         0.0600 
    130 H130        1.4340  -13.6013  -47.1495 H         1 UNK         0.3000 
    131 H131       -1.0929  -15.0717  -47.2842 H         1 UNK         0.0600 
    132 H132       -1.1065  -14.4331  -49.6644 H         1 UNK         0.0800 
    133 H133        0.2644  -13.3810  -49.4385 H         1 UNK         0.0800 
    134 H134       -1.0508  -16.9733  -48.9984 H         1 UNK         0.0800 
    135 H135        0.1376  -17.1395  -47.7241 H         1 UNK         0.0800 
    136 H136       -1.1835  -18.6043  -50.7331 H         1 UNK         0.1150 
    137 H137        1.6787  -21.7930  -50.9033 H         1 UNK         0.1150 
    138 H138        2.2552  -18.5257  -48.1889 H         1 UNK         0.1150 
    139 H139        3.6949  -21.7016  -49.6017 H         1 UNK         0.0800 
    140 H140        4.1843  -20.1269  -49.0385 H         1 UNK         0.0800 
    141 H141        2.4332  -23.3556  -48.4253 H         1 UNK         0.0800 
    142 H142        3.2416  -23.7587  -46.9482 H         1 UNK         0.0800 
    143 H143        1.0506  -24.3632  -46.5943 H         1 UNK         0.0600 
    144 H144        1.7537  -22.0635  -45.0092 H         1 UNK         0.3000 
    145 H145       -0.6646  -22.9872  -42.4430 H         1 UNK         0.0600 
    146 H146        1.4037  -22.7207  -41.1278 H         1 UNK         0.0600 
    147 H147        2.3838  -22.7376  -42.5913 H         1 UNK         0.0600 
    148 H148        1.5019  -24.1781  -42.1032 H         1 UNK         0.0600 
    149 H149        0.9389  -20.6733  -42.5761 H         1 UNK         0.3000 
    150 H150       -1.3311  -18.5551  -44.3429 H         1 UNK         0.0600 
    151 H151       -2.2121  -18.5650  -42.0168 H         1 UNK         0.0600 
    152 H152       -1.1103  -17.2170  -42.2587 H         1 UNK         0.0600 
    153 H153       -0.5761  -18.6463  -41.3765 H         1 UNK         0.0600 
    154 H154        1.1291  -17.9406  -43.1118 H         1 UNK         0.3000 
    155 H155        3.3064  -18.9714  -45.7784 H         1 UNK         0.0600 
    156 H156        2.3977  -16.7007  -46.3438 H         1 UNK         0.0600 
    157 H157        3.9824  -16.6283  -45.5859 H         1 UNK         0.0600 
    158 H158        2.5424  -16.2485  -44.6474 H         1 UNK         0.0600 
    159 H159        3.6153  -17.7844  -43.1431 H         1 UNK         0.3000 
    160 H160        4.3961  -20.8358  -41.4850 H         1 UNK         0.0600 
    161 H161        6.1837  -18.4833  -42.3101 H         1 UNK         0.0600 
    162 H162        6.5203  -20.1808  -42.6283 H         1 UNK         0.0600 
    163 H163        6.4796  -19.5952  -40.9729 H         1 UNK         0.0600 
    164 H164        4.3946  -18.1082  -40.6272 H         1 UNK         0.3000 
    165 H165        0.9783  -17.9473  -39.6381 H         1 UNK         0.0600 
    166 H166        1.9973  -17.5138  -37.4315 H         1 UNK         0.0600 
    167 H167        2.1193  -19.2230  -37.8141 H         1 UNK         0.0600 
    168 H168        3.5355  -18.1903  -37.9682 H         1 UNK         0.0600 
    169 H169        2.9764  -16.0599  -39.2003 H         1 UNK         0.3000 
    170 H170        2.9598  -14.1210  -40.2414 H         1 UNK         0.0600 
    171 H171        3.6663  -14.7344  -43.1638 H         1 UNK         0.0600 
    172 H172        4.2067  -13.3338  -42.2442 H         1 UNK         0.0600 
    173 H173        4.7381  -14.9451  -41.7848 H         1 UNK         0.0600 
    174 H174        1.5744  -13.5421  -42.7463 H         1 UNK         0.3000 
    175 H175       -1.2213  -13.4299  -42.2666 H         1 UNK         0.0600 
    176 H176       -1.1086  -11.1253  -40.2581 H         1 UNK         0.0600 
    177 H177       -2.4142  -11.4036  -41.4098 H         1 UNK         0.0600 
    178 H178       -2.0937  -12.5758  -40.1432 H         1 UNK         0.0600 
    179 H179       -0.4255  -12.0394  -43.7922 H         1 UNK         0.3000 
    180 H180        0.8483   -8.8944  -43.9081 H         1 UNK         0.0600 
    181 H181        2.7288  -11.2516  -44.4707 H         1 UNK         0.0600 
    182 H182        3.1148   -9.8371  -43.5003 H         1 UNK         0.0600 
    183 H183        2.8230   -9.6582  -45.2221 H         1 UNK         0.0600 
    184 H184        0.6897  -11.1025  -45.7968 H         1 UNK         0.3000 
    185 H185       -2.6695  -10.7345  -46.6085 H         1 UNK         0.0600 
    186 H186       -0.5224   -9.2663  -48.2371 H         1 UNK         0.0600 
    187 H187       -2.0428   -9.8924  -48.8740 H         1 UNK         0.0600 
    188 H188       -2.0543   -8.5866  -47.6993 H         1 UNK         0.0600 
    189 H189        0.0339  -11.6926  -47.4747 H         1 UNK         0.3000 
    190 H190       -0.1338  -21.0069  -46.5406 H         1 UNK         0.3000 
    191 H191       -1.7438  -21.1299  -48.8518 H         1 UNK         0.0600 
    192 H192       -1.3047  -19.0678  -47.4236 H         1 UNK         0.0600 
    193 H193       -2.4329  -19.6867  -46.2346 H         1 UNK         0.0600 
    194 H194       -2.9935  -19.2861  -47.8511 H         1 UNK         0.0600 
    195 H195       -2.5355  -22.0542  -45.4639 H         1 UNK         0.3000 
    196 H196       -5.1714  -22.9803  -45.9783 H         1 UNK         0.0600 
    197 H197       -4.3930  -22.3526  -43.7205 H         1 UNK         0.0600 
    198 H198       -3.2199  -23.6665  -43.7167 H         1 UNK         0.0600 
    199 H199       -4.9442  -24.0211  -43.7112 H         1 UNK         0.0600 
    200 H200       -2.0387  -24.7447  -45.7985 H         1 UNK         0.3000 
    201 H201       -3.0784  -27.3439  -46.1751 H         1 UNK         0.0600 
    202 H202       -0.7998  -26.8712  -45.2957 H         1 UNK         0.0600 
    203 H203       -0.3034  -26.2514  -46.8705 H         1 UNK         0.0600 
    204 H204       -0.7213  -27.9486  -46.6814 H         1 UNK         0.0600 
    205 H205       -1.9209  -24.9500  -48.5960 H         1 UNK         0.3000 
    206 H206       -2.3831  -26.7064  -50.8640 H         1 UNK         0.0600 
    207 H207       -0.6247  -24.9201  -50.8374 H         1 UNK         0.0600 
    208 H208       -1.8767  -23.6849  -50.7237 H         1 UNK         0.0600 
    209 H209       -1.7520  -24.6921  -52.1623 H         1 UNK         0.0600 
    210 H210       -4.4603  -24.7662  -48.9397 H         1 UNK         0.3000 
    211 H211       -6.4787  -23.8617  -49.0736 H         1 UNK         0.0600 
    212 H212       -7.0285  -25.7776  -51.4088 H         1 UNK         0.0600 
    213 H213       -8.2332  -24.9170  -50.4623 H         1 UNK         0.0600 
    214 H214       -7.2476  -26.1566  -49.7013 H         1 UNK         0.0600 
    215 H215       -4.6189  -22.3249  -49.9376 H         1 UNK         0.3000 
    216 H216       -3.8887  -20.6207  -51.1333 H         1 UNK         0.0600 
    217 H217       -5.5014  -19.1028  -52.2150 H         1 UNK         0.0600 
    218 H218       -6.1577  -19.6927  -50.6991 H         1 UNK         0.0600 
    219 H219       -6.7366  -20.3560  -52.2243 H         1 UNK         0.0600 
    220 H220       -4.0044  -23.3903  -52.4036 H         1 UNK         0.3000 
    221 H221       -3.4472  -24.5220  -54.2114 H         1 UNK         0.0600 
    222 H222       -2.3372  -21.9029  -55.3374 H         1 UNK         0.0600 
    223 H223       -1.4520  -23.0706  -54.3620 H         1 UNK         0.0600 
    224 H224       -2.0125  -23.5130  -55.9647 H         1 UNK         0.0600 
    225 H225       -6.0689  -23.7085  -53.8927 H         1 UNK         0.3000 
    226 H226       -8.0626  -23.5516  -54.8123 H         1 UNK         0.0600 
    227 H227       -7.3715  -25.4663  -56.2768 H         1 UNK         0.0600 
    228 H228       -8.5285  -24.4076  -57.0669 H         1 UNK         0.0600 
    229 H229       -6.8308  -24.3279  -57.5099 H         1 UNK         0.0600 
    230 H230       -6.6508  -21.3068  -54.3611 H         1 UNK         0.3000 
    231 H231       -6.6607  -19.1225  -54.5005 H         1 UNK         0.0600 
    232 H232       -8.4526  -17.8913  -55.6210 H         1 UNK         0.0600 
    233 H233       -9.1339  -19.3217  -54.8669 H         1 UNK         0.0600 
    234 H234       -8.8697  -19.2813  -56.6104 H         1 UNK         0.0600 
    235 H235       -4.9528  -20.7882  -56.3454 H         1 UNK         0.3000 
    236 H236       -4.3263  -18.9534  -58.5488 H         1 UNK         0.0600 
    237 H237       -2.8203  -21.4287  -57.5751 H         1 UNK         0.0600 
    238 H238       -4.0665  -21.4250  -58.8219 H         1 UNK         0.0600 
    239 H239       -2.5569  -20.5627  -59.0790 H         1 UNK         0.0600 
    240 H240       -3.2608  -19.5132  -55.2035 H         1 UNK         0.3000 
    241 H241       -0.8567  -17.8756  -55.4379 H         1 UNK         0.0600 
    242 H242       -2.0353  -14.6257  -54.6399 H         1 UNK         0.3800 
    243 H243       -0.6712  -15.6219  -55.0586 H         1 UNK         0.3800 
    244 H244       -2.3487  -18.8755  -52.9662 H         1 UNK         0.0800 
    245 H245       -0.8649  -17.9470  -52.9279 H         1 UNK         0.0800 
    246 H246       -0.3678  -21.9918  -52.1221 H         1 UNK         0.0800 
    247 H247       -1.7003  -20.9351  -51.7655 H         1 UNK         0.0800 
@<TRIPOS>BOND
     1    1    2 1    
     2    1  127 1    
     3    1  128 1    
     4    1  129 1    
     5    2    3 2    
     6    2    4 am   BACKBONE|DICT|INTERRES
     7    4    5 1    
     8    4  130 1    
     9    5    6 1    
    10    5   65 1    
    11    5  131 1    
    12    6    7 1    
    13    6  132 1    
    14    6  133 1    
    15    7    8 1    
    16    8    9 1    
    17    8  134 1    
    18    8  135 1    
    19    9   10 ar   
    20    9   14 ar   
    21   10   11 ar   
    22   10  136 1    
    23   11   12 ar   
    24   11  126 1    
    25   12   13 ar   
    26   12  137 1    
    27   13   14 ar   
    28   13   15 1    
    29   14  138 1    
    30   15   16 1    
    31   15  139 1    
    32   15  140 1    
    33   16   17 1    
    34   17   18 1    
    35   17  141 1    
    36   17  142 1    
    37   18   19 1    
    38   18   67 1    
    39   18  143 1    
    40   19   20 am   BACKBONE|DICT|INTERRES
    41   19  144 1    
    42   20   21 2    
    43   20   22 1    
    44   22   23 1    
    45   22   24 1    
    46   22  145 1    
    47   23  146 1    
    48   23  147 1    
    49   23  148 1    
    50   24   25 am   BACKBONE|DICT|INTERRES
    51   24  149 1    
    52   25   26 2    
    53   25   27 1    
    54   27   28 1    
    55   27   29 1    
    56   27  150 1    
    57   28  151 1    
    58   28  152 1    
    59   28  153 1    
    60   29   30 am   BACKBONE|DICT|INTERRES
    61   29  154 1    
    62   30   31 2    
    63   30   32 1    
    64   32   33 1    
    65   32   34 1    
    66   32  155 1    
    67   33  156 1    
    68   33  157 1    
    69   33  158 1    
    70   34   35 am   BACKBONE|DICT|INTERRES
    71   34  159 1    
    72   35   36 2    
    73   35   37 1    
    74   37   38 1    
    75   37   39 1    
    76   37  160 1    
    77   38  161 1    
    78   38  162 1    
    79   38  163 1    
    80   39   40 am   BACKBONE|DICT|INTERRES
    81   39  164 1    
    82   40   41 2    
    83   40   42 1    
    84   42   43 1    
    85   42   44 1    
    86   42  165 1    
    87   43  166 1    
    88   43  167 1    
    89   43  168 1    
    90   44   45 am   BACKBONE|DICT|INTERRES
    91   44  169 1    
    92   45   46 2    
    93   45   47 1    
    94   47   48 1    
    95   47   49 1    
    96   47  170 1    
    97   48  171 1    
    98   48  172 1    
    99   48  173 1    
   100   49   50 am   BACKBONE|DICT|INTERRES
   101   49  174 1    
   102   50   51 2    
   103   50   52 1    
   104   52   53 1    
   105   52   54 1    
   106   52  175 1    
   107   53  176 1    
   108   53  177 1    
   109   53  178 1    
   110   54   55 am   BACKBONE|DICT|INTERRES
   111   54  179 1    
   112   55   56 2    
   113   55   57 1    
   114   57   58 1    
   115   57   59 1    
   116   57  180 1    
   117   58  181 1    
   118   58  182 1    
   119   58  183 1    
   120   59   60 am   BACKBONE|DICT|INTERRES
   121   59  184 1    
   122   60   61 2    
   123   60   62 1    
   124   62   63 1    
   125   62   64 1    
   126   62  185 1    
   127   63  186 1    
   128   63  187 1    
   129   63  188 1    
   130   64   65 am   BACKBONE|DICT|INTERRES
   131   64  189 1    
   132   65   66 2    
   133   67   68 2    
   134   67   69 am   BACKBONE|DICT|INTERRES
   135   69   70 1    
   136   69  190 1    
   137   70   71 1    
   138   70   72 1    
   139   70  191 1    
   140   71  192 1    
   141   71  193 1    
   142   71  194 1    
   143   72   73 2    
   144   72   74 am   BACKBONE|DICT|INTERRES
   145   74   75 1    
   146   74  195 1    
   147   75   76 1    
   148   75   77 1    
   149   75  196 1    
   150   76  197 1    
   151   76  198 1    
   152   76  199 1    
   153   77   78 2    
   154   77   79 am   BACKBONE|DICT|INTERRES
   155   79   80 1    
   156   79  200 1    
   157   80   81 1    
   158   80   82 1    
   159   80  201 1    
   160   81  202 1    
   161   81  203 1    
   162   81  204 1    
   163   82   83 2    
   164   82   84 am   BACKBONE|DICT|INTERRES
   165   84   85 1    
   166   84  205 1    
   167   85   86 1    
   168   85   87 1    
   169   85  206 1    
   170   86  207 1    
   171   86  208 1    
   172   86  209 1    
   173   87   88 2    
   174   87   89 am   BACKBONE|DICT|INTERRES
   175   89   90 1    
   176   89  210 1    
   177   90   91 1    
   178   90   92 1    
   179   90  211 1    
   180   91  212 1    
   181   91  213 1    
   182   91  214 1    
   183   92   93 2    
   184   92   94 am   BACKBONE|DICT|INTERRES
   185   94   95 1    
   186   94  215 1    
   187   95   96 1    
   188   95   97 1    
   189   95  216 1    
   190   96  217 1    
   191   96  218 1    
   192   96  219 1    
   193   97   98 2    
   194   97   99 am   BACKBONE|DICT|INTERRES
   195   99  100 1    
   196   99  220 1    
   197  100  101 1    
   198  100  102 1    
   199  100  221 1    
   200  101  222 1    
   201  101  223 1    
   202  101  224 1    
   203  102  103 2    
   204  102  104 am   BACKBONE|DICT|INTERRES
   205  104  105 1    
   206  104  225 1    
   207  105  106 1    
   208  105  107 1    
   209  105  226 1    
   210  106  227 1    
   211  106  228 1    
   212  106  229 1    
   213  107  108 2    
   214  107  109 am   BACKBONE|DICT|INTERRES
   215  109  110 1    
   216  109  230 1    
   217  110  111 1    
   218  110  112 1    
   219  110  231 1    
   220  111  232 1    
   221  111  233 1    
   222  111  234 1    
   223  112  113 2    
   224  112  114 am   BACKBONE|DICT|INTERRES
   225  114  115 1    
   226  114  235 1    
   227  115  116 1    
   228  115  117 1    
   229  115  236 1    
   230  116  237 1    
   231  116  238 1    
   232  116  239 1    
   233  117  118 2    
   234  117  119 am   BACKBONE|DICT|INTERRES
   235  119  120 1    
   236  119  240 1    
   237  120  121 1    
   238  120  124 1    
   239  120  241 1    
   240  121  122 am   BACKBONE|DICT|INTERRES
   241  121  123 2    
   242  122  242 1    
   243  122  243 1    
   244  124  125 1    
   245  124  244 1    
   246  124  245 1    
   247  125  126 1    
   248  126  246 1    
   249  126  247 1    
@<TRIPOS>SUBSTRUCTURE
     1 UNK         1 GROUP             0       ****    0 ROOT    
