@<TRIPOS>MOLECULE
3R540
247   249    1
SMALL
USER_CHARGES


@<TRIPOS>ATOM
      1 CA          3.1265  -11.6166  -47.2998 C.3       0 UNK        -0.1800 
      2 C           1.8478  -12.1538  -46.6763 C.2       0 UNK         0.5000 
      3 O           1.7582  -12.2591  -45.4534 O.2       0 UNK        -0.5000 
      4 N           0.8474  -12.4848  -47.5015 N.am      1 UNK        -0.5000 
      5 CA         -0.4494  -13.0350  -47.0785 C.3       1 UNK         0.1400 
      6 C6         -1.3102  -13.4928  -48.2808 C.3       23 UNK        -0.0398 
      7 S7         -0.4380  -14.7270  -49.3047 S.3       23 UNK        -0.2404 
      8 C8         -1.7530  -15.9375  -49.6428 C.3       23 UNK        -0.0205 
      9 C9         -1.1972  -17.1416  -50.3868 C.ar      23 UNK        -0.0193 
     10 C10        -0.8542  -17.0374  -51.7372 C.ar      23 UNK        -0.1150 
     11 C11        -0.3388  -18.1384  -52.4264 C.ar      23 UNK        -0.0193 
     12 C12        -0.1352  -19.3422  -51.7444 C.ar      23 UNK        -0.1150 
     13 C13        -0.4662  -19.4578  -50.3907 C.ar      23 UNK        -0.0193 
     14 C14        -1.0189  -18.3597  -49.7271 C.ar      23 UNK        -0.1150 
     15 C15        -0.2531  -20.7725  -49.6536 C.3       23 UNK        -0.0205 
     16 S16         0.8416  -20.5957  -48.1984 S.3       23 UNK        -0.2404 
     17 C17         1.0275  -22.3486  -47.7050 C.3       23 UNK        -0.0398 
     18 CA          0.0982  -22.8719  -46.5756 C.3       11 UNK         0.1400 
     19 N           0.6315  -22.6589  -45.2273 N.am      11 UNK        -0.5000 
     20 C           0.1811  -23.2860  -44.1290 C.2       10 UNK         0.5000 
     21 O          -0.7443  -24.1005  -44.1587 O.2       10 UNK        -0.5000 
     22 CA          0.8015  -22.9131  -42.7686 C.3       10 UNK         0.1400 
     23 CB          1.1396  -24.1588  -41.9257 C.3       10 UNK        -0.1800 
     24 N           1.9399  -21.9927  -42.8465 N.am      10 UNK        -0.5000 
     25 C           3.1729  -22.2115  -43.3249 C.2       9 UNK         0.5000 
     26 O           3.5484  -23.2828  -43.8006 O.2       9 UNK        -0.5000 
     27 CA          4.1462  -21.0146  -43.2965 C.3       9 UNK         0.1400 
     28 CB          4.3402  -20.4634  -44.7182 C.3       9 UNK        -0.1800 
     29 N           3.6957  -19.9235  -42.4268 N.am      9 UNK        -0.5000 
     30 C           3.7295  -19.9393  -41.0866 C.2       8 UNK         0.5000 
     31 O           4.2283  -20.8506  -40.4257 O.2       8 UNK        -0.5000 
     32 CA          3.0440  -18.7607  -40.3669 C.3       8 UNK         0.1400 
     33 CB          3.9652  -17.5323  -40.3207 C.3       8 UNK        -0.1800 
     34 N           1.7665  -18.3935  -40.9847 N.am      8 UNK        -0.5000 
     35 C           0.6779  -19.1775  -41.0098 C.2       7 UNK         0.5000 
     36 O           0.6161  -20.2791  -40.4659 O.2       7 UNK        -0.5000 
     37 CA         -0.5253  -18.6760  -41.8246 C.3       7 UNK         0.1400 
     38 CB         -1.4144  -17.7462  -40.9862 C.3       7 UNK        -0.1800 
     39 N          -0.0883  -17.9879  -43.0384 N.am      7 UNK        -0.5000 
     40 C           0.2747  -18.6157  -44.1655 C.2       6 UNK         0.5000 
     41 O           0.1913  -19.8337  -44.3226 O.2       6 UNK        -0.5000 
     42 CA          0.8213  -17.7455  -45.3123 C.3       6 UNK         0.1400 
     43 CB         -0.3191  -17.3546  -46.2587 C.3       6 UNK        -0.1800 
     44 N           1.4936  -16.5302  -44.8541 N.am      6 UNK        -0.5000 
     45 C           2.6358  -16.4996  -44.1543 C.2       5 UNK         0.5000 
     46 O           3.2836  -17.5024  -43.8619 O.2       5 UNK        -0.5000 
     47 CA          3.0865  -15.1216  -43.6341 C.3       5 UNK         0.1400 
     48 CB          4.0211  -14.4445  -44.6457 C.3       5 UNK        -0.1800 
     49 N           1.9539  -14.2406  -43.3250 N.am      5 UNK        -0.5000 
     50 C           1.0542  -14.4935  -42.3608 C.2       4 UNK         0.5000 
     51 O           1.1129  -15.4947  -41.6439 O.2       4 UNK        -0.5000 
     52 CA         -0.1366  -13.5234  -42.2153 C.3       4 UNK         0.1400 
     53 CB         -0.7070  -13.4831  -40.7823 C.3       4 UNK        -0.1800 
     54 N           0.1306  -12.1751  -42.7209 N.am      4 UNK        -0.5000 
     55 C           0.9851  -11.2625  -42.2315 C.2       3 UNK         0.5000 
     56 O           1.6788  -11.4425  -41.2300 O.2       3 UNK        -0.5000 
     57 CA          1.0933   -9.9228  -42.9915 C.3       3 UNK         0.1400 
     58 CB          2.5535   -9.6144  -43.3664 C.3       3 UNK        -0.1800 
     59 N           0.2854   -9.9145  -44.2133 N.am      3 UNK        -0.5000 
     60 C          -0.9713   -9.4599  -44.3131 C.2       2 UNK         0.5000 
     61 O          -1.5779   -8.9217  -43.3869 O.2       2 UNK        -0.5000 
     62 CA         -1.6809   -9.6568  -45.6695 C.3       2 UNK         0.1400 
     63 CB         -1.6295   -8.3615  -46.4939 C.3       2 UNK        -0.1800 
     64 N          -1.1189  -10.7497  -46.4690 N.am      2 UNK        -0.5000 
     65 C          -1.2319  -12.0543  -46.1782 C.2       1 UNK         0.5000 
     66 O          -1.8579  -12.4844  -45.2094 O.2       1 UNK        -0.5000 
     67 C          -1.3691  -22.4144  -46.7028 C.2       11 UNK         0.5000 
     68 O          -2.1085  -23.0068  -47.4856 O.2       11 UNK        -0.5000 
     69 N          -1.7893  -21.4355  -45.8868 N.am      12 UNK        -0.5000 
     70 CA         -3.1785  -20.9831  -45.7706 C.3       12 UNK         0.1400 
     71 CB         -3.2476  -19.8160  -44.7738 C.3       12 UNK        -0.1800 
     72 C          -4.1646  -22.0972  -45.3577 C.2       12 UNK         0.5000 
     73 O          -5.3405  -22.0188  -45.7134 O.2       12 UNK        -0.5000 
     74 N          -3.6670  -23.1137  -44.6400 N.am      13 UNK        -0.5000 
     75 CA         -4.4111  -24.3148  -44.2744 C.3       13 UNK         0.1400 
     76 CB         -4.1126  -24.6639  -42.8072 C.3       13 UNK        -0.1800 
     77 C          -4.0494  -25.4926  -45.1953 C.2       13 UNK         0.5000 
     78 O          -4.9498  -26.1813  -45.6758 O.2       13 UNK        -0.5000 
     79 N          -2.7444  -25.7224  -45.4033 N.am      14 UNK        -0.5000 
     80 CA         -2.2175  -26.9079  -46.0821 C.3       14 UNK         0.1400 
     81 CB         -0.7290  -27.0669  -45.7355 C.3       14 UNK        -0.1800 
     82 C          -2.4179  -26.9107  -47.6086 C.2       14 UNK         0.5000 
     83 O          -2.6448  -27.9791  -48.1782 O.2       14 UNK        -0.5000 
     84 N          -2.3151  -25.7363  -48.2422 N.am      15 UNK        -0.5000 
     85 CA         -2.4474  -25.5546  -49.6895 C.3       15 UNK         0.1400 
     86 CB         -1.2254  -24.7827  -50.2143 C.3       15 UNK        -0.1800 
     87 C          -3.7488  -24.8163  -50.0424 C.2       15 UNK         0.5000 
     88 O          -4.3475  -25.1192  -51.0758 O.2       15 UNK        -0.5000 
     89 N          -4.1621  -23.8768  -49.1779 N.am      16 UNK        -0.5000 
     90 CA         -5.3676  -23.0480  -49.2419 C.3       16 UNK         0.1400 
     91 CB         -6.6303  -23.9065  -49.0143 C.3       16 UNK        -0.1800 
     92 C          -5.4155  -22.2003  -50.5268 C.2       16 UNK         0.5000 
     93 O          -4.8353  -21.1141  -50.5562 O.2       16 UNK        -0.5000 
     94 N          -6.0816  -22.7195  -51.5672 N.am      17 UNK        -0.5000 
     95 CA         -6.1156  -22.1454  -52.9118 C.3       17 UNK         0.1400 
     96 CB         -7.1819  -22.8740  -53.7432 C.3       17 UNK        -0.1800 
     97 C          -4.7501  -22.2072  -53.6216 C.2       17 UNK         0.5000 
     98 O          -4.4586  -21.3277  -54.4323 O.2       17 UNK        -0.5000 
     99 N          -3.9396  -23.2263  -53.2966 N.am      18 UNK        -0.5000 
    100 CA        -2.5753  -23.4545  -53.7870 C.3       18 UNK         0.1400 
    101 CB        -1.6236  -22.3669  -53.2455 C.3       18 UNK        -0.1800 
    102 C         -2.4897  -23.6253  -55.3195 C.2       18 UNK         0.5000 
    103 O         -1.5130  -23.1976  -55.9366 O.2       18 UNK        -0.5000 
    104 N         -3.5324  -24.2359  -55.9047 N.am      19 UNK        -0.5000 
    105 CA        -3.7604  -24.5484  -57.3251 C.3       19 UNK         0.1400 
    106 CB        -2.6669  -25.4831  -57.8761 C.3       19 UNK        -0.1800 
    107 C         -3.9544  -23.3230  -58.2431 C.2       19 UNK         0.5000 
    108 O         -4.8114  -23.3614  -59.1263 O.2       19 UNK        -0.5000 
    109 N         -3.1820  -22.2558  -58.0145 N.am      20 UNK        -0.5000 
    110 CA        -3.2285  -20.9886  -58.7467 C.3       20 UNK         0.1400 
    111 CB        -1.8832  -20.2711  -58.5555 C.3       20 UNK        -0.1800 
    112 C         -4.4006  -20.0740  -58.3318 C.2       20 UNK         0.5000 
    113 O         -4.6145  -19.0480  -58.9782 O.2       20 UNK        -0.5000 
    114 N         -5.1193  -20.4482  -57.2625 N.am      21 UNK        -0.5000 
    115 CA        -6.2351  -19.7368  -56.6258 C.3       21 UNK         0.1400 
    116 CB        -7.3904  -19.4720  -57.6142 C.3       21 UNK        -0.1800 
    117 C         -5.7988  -18.4769  -55.8487 C.2       21 UNK         0.5000 
    118 O         -6.6389  -17.6326  -55.5325 O.2       21 UNK        -0.5000 
    119 N         -4.5029  -18.3852  -55.5276 N.am      22 UNK        -0.5000 
    120 CA        -3.9242  -17.3685  -54.6390 C.3       22 UNK         0.1400 
    121 C         -4.1269  -17.6739  -53.1269 C.2       22 UNK         0.5000 
    122 N         -4.3258  -18.9266  -52.7357 N.am      22 UNK        -0.7600 
    123 O         -4.1365  -16.7572  -52.3106 O.2       22 UNK        -0.5000 
    124 C124       -2.4411  -17.0819  -54.9889 C.3       23 UNK        -0.0398 
    125 S125       -1.3572  -18.5577  -54.9759 S.3       23 UNK        -0.2404 
    126 C126        0.0148  -18.0273  -53.9014 C.3       23 UNK        -0.0205 
    127 H127        3.0585  -11.5697  -48.3868 H         1 UNK         0.0600 
    128 H128        3.3307  -10.6134  -46.9261 H         1 UNK         0.0600 
    129 H129        3.9689  -12.2564  -47.0377 H         1 UNK         0.0600 
    130 H130        0.9795  -12.4021  -48.4997 H         1 UNK         0.3000 
    131 H131       -0.2373  -13.9166  -46.4695 H         1 UNK         0.0600 
    132 H132       -1.5740  -12.6451  -48.9156 H         1 UNK         0.0800 
    133 H133       -2.2517  -13.9190  -47.9295 H         1 UNK         0.0800 
    134 H134       -2.5386  -15.4697  -50.2383 H         1 UNK         0.0800 
    135 H135       -2.2138  -16.2496  -48.7043 H         1 UNK         0.0800 
    136 H136       -0.9958  -16.0961  -52.2482 H         1 UNK         0.1150 
    137 H137        0.2738  -20.1910  -52.2740 H         1 UNK         0.1150 
    138 H138       -1.3005  -18.4566  -48.6913 H         1 UNK         0.1150 
    139 H139       -1.2257  -21.1547  -49.3425 H         1 UNK         0.0800 
    140 H140        0.1707  -21.5163  -50.3300 H         1 UNK         0.0800 
    141 H141        2.0698  -22.5084  -47.4258 H         1 UNK         0.0800 
    142 H142        0.8838  -22.9662  -48.5925 H         1 UNK         0.0800 
    143 H143        0.0714  -23.9556  -46.7034 H         1 UNK         0.0600 
    144 H144        1.3244  -21.9333  -45.1147 H         1 UNK         0.3000 
    145 H145        0.0221  -22.3654  -42.2375 H         1 UNK         0.0600 
    146 H146        1.5559  -23.8779  -40.9582 H         1 UNK         0.0600 
    147 H147        0.2463  -24.7540  -41.7325 H         1 UNK         0.0600 
    148 H148        1.8580  -24.8076  -42.4270 H         1 UNK         0.0600 
    149 H149        1.7500  -21.0637  -42.4983 H         1 UNK         0.3000 
    150 H150        5.1090  -21.3778  -42.9314 H         1 UNK         0.0600 
    151 H151        4.7146  -21.2350  -45.3921 H         1 UNK         0.0600 
    152 H152        5.0613  -19.6458  -44.7288 H         1 UNK         0.0600 
    153 H153        3.4043  -20.0886  -45.1350 H         1 UNK         0.0600 
    154 H154        3.3484  -19.0897  -42.8961 H         1 UNK         0.3000 
    155 H155        2.8403  -19.0695  -39.3395 H         1 UNK         0.0600 
    156 H156        4.2369  -17.1926  -41.3198 H         1 UNK         0.0600 
    157 H157        4.8907  -17.7612  -39.7912 H         1 UNK         0.0600 
    158 H158        3.4892  -16.7001  -39.8015 H         1 UNK         0.0600 
    159 H159        1.7117  -17.4757  -41.4117 H         1 UNK         0.3000 
    160 H160       -1.1251  -19.5444  -42.1054 H         1 UNK         0.0600 
    161 H161       -2.2588  -17.3762  -41.5679 H         1 UNK         0.0600 
    162 H162       -0.8626  -16.8863  -40.6082 H         1 UNK         0.0600 
    163 H163       -1.8205  -18.2752  -40.1233 H         1 UNK         0.0600 
    164 H164        0.0508  -16.9902  -42.9651 H         1 UNK         0.3000 
    165 H165        1.5414  -18.3494  -45.8684 H         1 UNK         0.0600 
    166 H166        0.0663  -16.8845  -47.1633 H         1 UNK         0.0600 
    167 H167       -0.8808  -18.2378  -46.5609 H         1 UNK         0.0600 
    168 H168       -1.0216  -16.6649  -45.7894 H         1 UNK         0.0600 
    169 H169        1.0347  -15.6535  -45.0490 H         1 UNK         0.3000 
    170 H170        3.6452  -15.2774  -42.7095 H         1 UNK         0.0600 
    171 H171        4.9378  -15.0218  -44.7713 H         1 UNK         0.0600 
    172 H172        4.3065  -13.4447  -44.3177 H         1 UNK         0.0600 
    173 H173        3.5556  -14.3588  -45.6274 H         1 UNK         0.0600 
    174 H174        1.8425  -13.4167  -43.9108 H         1 UNK         0.3000 
    175 H175       -0.9192  -13.9255  -42.8601 H         1 UNK         0.0600 
    176 H176       -1.5388  -12.7826  -40.7080 H         1 UNK         0.0600 
    177 H177       -1.0832  -14.4613  -40.4825 H         1 UNK         0.0600 
    178 H178        0.0473  -13.1889  -40.0522 H         1 UNK         0.0600 
    179 H179       -0.3792  -11.9287  -43.5592 H         1 UNK         0.3000 
    180 H180        0.7473   -9.1389  -42.3149 H         1 UNK         0.0600 
    181 H181        2.9846  -10.3939  -43.9949 H         1 UNK         0.0600 
    182 H182        3.1776   -9.5314  -42.4758 H         1 UNK         0.0600 
    183 H183        2.6313   -8.6691  -43.9036 H         1 UNK         0.0600 
    184 H184        0.6937  -10.3936  -45.0053 H         1 UNK         0.3000 
    185 H185       -2.7276   -9.8891  -45.4617 H         1 UNK         0.0600 
    186 H186       -0.6049   -8.0850  -46.7459 H         1 UNK         0.0600 
    187 H187       -2.1893   -8.4628  -47.4239 H         1 UNK         0.0600 
    188 H188       -2.0678   -7.5289  -45.9419 H         1 UNK         0.0600 
    189 H189       -0.5666  -10.4839  -47.2717 H         1 UNK         0.3000 
    190 H190       -1.1070  -20.9852  -45.2835 H         1 UNK         0.3000 
    191 H191       -3.4900  -20.6185  -46.7518 H         1 UNK         0.0600 
    192 H192       -2.6531  -18.9688  -45.1123 H         1 UNK         0.0600 
    193 H193       -2.8851  -20.1091  -43.7880 H         1 UNK         0.0600 
    194 H194       -4.2723  -19.4615  -44.6552 H         1 UNK         0.0600 
    195 H195       -2.6801  -23.1120  -44.4178 H         1 UNK         0.3000 
    196 H196       -5.4854  -24.1395  -44.3625 H         1 UNK         0.0600 
    197 H197       -4.6484  -25.5640  -42.5032 H         1 UNK         0.0600 
    198 H198       -4.4257  -23.8592  -42.1419 H         1 UNK         0.0600 
    199 H199       -3.0495  -24.8410  -42.6385 H         1 UNK         0.0600 
    200 H200       -2.0578  -25.1240  -44.9506 H         1 UNK         0.3000 
    201 H201       -2.7425  -27.7796  -45.6852 H         1 UNK         0.0600 
    202 H202       -0.5805  -27.1388  -44.6578 H         1 UNK         0.0600 
    203 H203       -0.1368  -26.2270  -46.0979 H         1 UNK         0.0600 
    204 H204       -0.3185  -27.9738  -46.1813 H         1 UNK         0.0600 
    205 H205       -2.1771  -24.8911  -47.6987 H         1 UNK         0.3000 
    206 H206       -2.4710  -26.5219  -50.1953 H         1 UNK         0.0600 
    207 H207       -0.2950  -25.2599  -49.9063 H         1 UNK         0.0600 
    208 H208       -1.2245  -24.7512  -51.3027 H         1 UNK         0.0600 
    209 H209       -1.2079  -23.7530  -49.8585 H         1 UNK         0.0600 
    210 H210       -3.5215  -23.6321  -48.4270 H         1 UNK         0.3000 
    211 H211       -5.2992  -22.3415  -48.4142 H         1 UNK         0.0600 
    212 H212       -6.7298  -24.7081  -49.7463 H         1 UNK         0.0600 
    213 H213       -7.5327  -23.2960  -49.0646 H         1 UNK         0.0600 
    214 H214       -6.6079  -24.3668  -48.0262 H         1 UNK         0.0600 
    215 H215       -6.4929  -23.6351  -51.4548 H         1 UNK         0.3000 
    216 H216       -6.4014  -21.0947  -52.8295 H         1 UNK         0.0600 
    217 H217       -7.2367  -22.4719  -54.7552 H         1 UNK         0.0600 
    218 H218       -8.1708  -22.7638  -53.2978 H         1 UNK         0.0600 
    219 H219       -6.9686  -23.9404  -53.8265 H         1 UNK         0.0600 
    220 H220       -4.2680  -23.8916  -52.6017 H         1 UNK         0.3000 
    221 H221       -2.2608  -24.4102  -53.3681 H         1 UNK         0.0600 
    222 H222       -1.8346  -21.3905  -53.6829 H         1 UNK         0.0600 
    223 H223       -1.7101  -22.2703  -52.1632 H         1 UNK         0.0600 
    224 H224       -0.5836  -22.6070  -53.4686 H         1 UNK         0.0600 
    225 H225       -4.2855  -24.5117  -55.2903 H         1 UNK         0.3000 
    226 H226       -4.7007  -25.1015  -57.3515 H         1 UNK         0.0600 
    227 H227       -2.5752  -26.3836  -57.2688 H         1 UNK         0.0600 
    228 H228       -2.9033  -25.7996  -58.8927 H         1 UNK         0.0600 
    229 H229       -1.6911  -24.9978  -57.9070 H         1 UNK         0.0600 
    230 H230       -2.4871  -22.3380  -57.2762 H         1 UNK         0.3000 
    231 H231       -3.3503  -21.2048  -59.8100 H         1 UNK         0.0600 
    232 H232       -1.0590  -20.8724  -58.9396 H         1 UNK         0.0600 
    233 H233       -1.6853  -20.0688  -57.5032 H         1 UNK         0.0600 
    234 H234       -1.8628  -19.3176  -59.0848 H         1 UNK         0.0600 
    235 H235       -4.8113  -21.2761  -56.7699 H         1 UNK         0.3000 
    236 H236       -6.6204  -20.4201  -55.8693 H         1 UNK         0.0600 
    237 H237       -8.2821  -19.1303  -57.0875 H         1 UNK         0.0600 
    238 H238       -7.1348  -18.7053  -58.3455 H         1 UNK         0.0600 
    239 H239       -7.6625  -20.3780  -58.1555 H         1 UNK         0.0600 
    240 H240       -3.8907  -19.1460  -55.7848 H         1 UNK         0.3000 
    241 H241       -4.4622  -16.4357  -54.8197 H         1 UNK         0.0600 
    242 H242       -4.4494  -19.1458  -51.7580 H         1 UNK         0.3800 
    243 H243       -4.2937  -19.6787  -53.4141 H         1 UNK         0.3800 
    244 H244       -2.3903  -16.6555  -55.9914 H         1 UNK         0.0800 
    245 H245       -2.0401  -16.3109  -54.3309 H         1 UNK         0.0800 
    246 H246        0.3117  -17.0077  -54.1516 H         1 UNK         0.0800 
    247 H247        0.8828  -18.6531  -54.1139 H         1 UNK         0.0800 
@<TRIPOS>BOND
     1    1    2 1    
     2    1  127 1    
     3    1  128 1    
     4    1  129 1    
     5    2    3 2    
     6    2    4 am   BACKBONE|DICT|INTERRES
     7    4    5 1    
     8    4  130 1    
     9    5    6 1    
    10    5   65 1    
    11    5  131 1    
    12    6    7 1    
    13    6  132 1    
    14    6  133 1    
    15    7    8 1    
    16    8    9 1    
    17    8  134 1    
    18    8  135 1    
    19    9   10 ar   
    20    9   14 ar   
    21   10   11 ar   
    22   10  136 1    
    23   11   12 ar   
    24   11  126 1    
    25   12   13 ar   
    26   12  137 1    
    27   13   14 ar   
    28   13   15 1    
    29   14  138 1    
    30   15   16 1    
    31   15  139 1    
    32   15  140 1    
    33   16   17 1    
    34   17   18 1    
    35   17  141 1    
    36   17  142 1    
    37   18   19 1    
    38   18   67 1    
    39   18  143 1    
    40   19   20 am   BACKBONE|DICT|INTERRES
    41   19  144 1    
    42   20   21 2    
    43   20   22 1    
    44   22   23 1    
    45   22   24 1    
    46   22  145 1    
    47   23  146 1    
    48   23  147 1    
    49   23  148 1    
    50   24   25 am   BACKBONE|DICT|INTERRES
    51   24  149 1    
    52   25   26 2    
    53   25   27 1    
    54   27   28 1    
    55   27   29 1    
    56   27  150 1    
    57   28  151 1    
    58   28  152 1    
    59   28  153 1    
    60   29   30 am   BACKBONE|DICT|INTERRES
    61   29  154 1    
    62   30   31 2    
    63   30   32 1    
    64   32   33 1    
    65   32   34 1    
    66   32  155 1    
    67   33  156 1    
    68   33  157 1    
    69   33  158 1    
    70   34   35 am   BACKBONE|DICT|INTERRES
    71   34  159 1    
    72   35   36 2    
    73   35   37 1    
    74   37   38 1    
    75   37   39 1    
    76   37  160 1    
    77   38  161 1    
    78   38  162 1    
    79   38  163 1    
    80   39   40 am   BACKBONE|DICT|INTERRES
    81   39  164 1    
    82   40   41 2    
    83   40   42 1    
    84   42   43 1    
    85   42   44 1    
    86   42  165 1    
    87   43  166 1    
    88   43  167 1    
    89   43  168 1    
    90   44   45 am   BACKBONE|DICT|INTERRES
    91   44  169 1    
    92   45   46 2    
    93   45   47 1    
    94   47   48 1    
    95   47   49 1    
    96   47  170 1    
    97   48  171 1    
    98   48  172 1    
    99   48  173 1    
   100   49   50 am   BACKBONE|DICT|INTERRES
   101   49  174 1    
   102   50   51 2    
   103   50   52 1    
   104   52   53 1    
   105   52   54 1    
   106   52  175 1    
   107   53  176 1    
   108   53  177 1    
   109   53  178 1    
   110   54   55 am   BACKBONE|DICT|INTERRES
   111   54  179 1    
   112   55   56 2    
   113   55   57 1    
   114   57   58 1    
   115   57   59 1    
   116   57  180 1    
   117   58  181 1    
   118   58  182 1    
   119   58  183 1    
   120   59   60 am   BACKBONE|DICT|INTERRES
   121   59  184 1    
   122   60   61 2    
   123   60   62 1    
   124   62   63 1    
   125   62   64 1    
   126   62  185 1    
   127   63  186 1    
   128   63  187 1    
   129   63  188 1    
   130   64   65 am   BACKBONE|DICT|INTERRES
   131   64  189 1    
   132   65   66 2    
   133   67   68 2    
   134   67   69 am   BACKBONE|DICT|INTERRES
   135   69   70 1    
   136   69  190 1    
   137   70   71 1    
   138   70   72 1    
   139   70  191 1    
   140   71  192 1    
   141   71  193 1    
   142   71  194 1    
   143   72   73 2    
   144   72   74 am   BACKBONE|DICT|INTERRES
   145   74   75 1    
   146   74  195 1    
   147   75   76 1    
   148   75   77 1    
   149   75  196 1    
   150   76  197 1    
   151   76  198 1    
   152   76  199 1    
   153   77   78 2    
   154   77   79 am   BACKBONE|DICT|INTERRES
   155   79   80 1    
   156   79  200 1    
   157   80   81 1    
   158   80   82 1    
   159   80  201 1    
   160   81  202 1    
   161   81  203 1    
   162   81  204 1    
   163   82   83 2    
   164   82   84 am   BACKBONE|DICT|INTERRES
   165   84   85 1    
   166   84  205 1    
   167   85   86 1    
   168   85   87 1    
   169   85  206 1    
   170   86  207 1    
   171   86  208 1    
   172   86  209 1    
   173   87   88 2    
   174   87   89 am   BACKBONE|DICT|INTERRES
   175   89   90 1    
   176   89  210 1    
   177   90   91 1    
   178   90   92 1    
   179   90  211 1    
   180   91  212 1    
   181   91  213 1    
   182   91  214 1    
   183   92   93 2    
   184   92   94 am   BACKBONE|DICT|INTERRES
   185   94   95 1    
   186   94  215 1    
   187   95   96 1    
   188   95   97 1    
   189   95  216 1    
   190   96  217 1    
   191   96  218 1    
   192   96  219 1    
   193   97   98 2    
   194   97   99 am   BACKBONE|DICT|INTERRES
   195   99  100 1    
   196   99  220 1    
   197  100  101 1    
   198  100  102 1    
   199  100  221 1    
   200  101  222 1    
   201  101  223 1    
   202  101  224 1    
   203  102  103 2    
   204  102  104 am   BACKBONE|DICT|INTERRES
   205  104  105 1    
   206  104  225 1    
   207  105  106 1    
   208  105  107 1    
   209  105  226 1    
   210  106  227 1    
   211  106  228 1    
   212  106  229 1    
   213  107  108 2    
   214  107  109 am   BACKBONE|DICT|INTERRES
   215  109  110 1    
   216  109  230 1    
   217  110  111 1    
   218  110  112 1    
   219  110  231 1    
   220  111  232 1    
   221  111  233 1    
   222  111  234 1    
   223  112  113 2    
   224  112  114 am   BACKBONE|DICT|INTERRES
   225  114  115 1    
   226  114  235 1    
   227  115  116 1    
   228  115  117 1    
   229  115  236 1    
   230  116  237 1    
   231  116  238 1    
   232  116  239 1    
   233  117  118 2    
   234  117  119 am   BACKBONE|DICT|INTERRES
   235  119  120 1    
   236  119  240 1    
   237  120  121 1    
   238  120  124 1    
   239  120  241 1    
   240  121  122 am   BACKBONE|DICT|INTERRES
   241  121  123 2    
   242  122  242 1    
   243  122  243 1    
   244  124  125 1    
   245  124  244 1    
   246  124  245 1    
   247  125  126 1    
   248  126  246 1    
   249  126  247 1    
@<TRIPOS>SUBSTRUCTURE
     1 UNK         1 GROUP             0       ****    0 ROOT    
