@<TRIPOS>MOLECULE
3R540
247   249    1
SMALL
USER_CHARGES


@<TRIPOS>ATOM
      1 CA         -2.5831  -13.3827  -44.4120 C.3       0 UNK        -0.1800 
      2 C          -1.6650  -13.0441  -45.5760 C.2       0 UNK         0.5000 
      3 O          -1.9838  -12.1522  -46.3622 O.2       0 UNK        -0.5000 
      4 N          -0.5336  -13.7505  -45.6934 N.am      1 UNK        -0.5000 
      5 CA          0.4508  -13.5494  -46.7666 C.3       1 UNK         0.1400 
      6 C6          1.2428  -14.8400  -47.0948 C.3       23 UNK        -0.0398 
      7 S7          0.1899  -16.2317  -47.6281 S.3       23 UNK        -0.2404 
      8 C8         -0.3194  -15.6542  -49.2777 C.3       23 UNK        -0.0205 
      9 C9         -0.9776  -16.7585  -50.0895 C.ar      23 UNK        -0.0193 
     10 C10        -0.3091  -17.3250  -51.1782 C.ar      23 UNK        -0.1150 
     11 C11        -0.9159  -18.3259  -51.9414 C.ar      23 UNK        -0.0193 
     12 C12        -2.2016  -18.7612  -51.6099 C.ar      23 UNK        -0.1150 
     13 C13        -2.8824  -18.1992  -50.5263 C.ar      23 UNK        -0.0193 
     14 C14        -2.2655  -17.1970  -49.7707 C.ar      23 UNK        -0.1150 
     15 C15        -4.2900  -18.6621  -50.1803 C.3       23 UNK        -0.0205 
     16 S16        -4.3432  -20.4051  -49.6560 S.3       23 UNK        -0.2404 
     17 C17        -3.2812  -20.3820  -48.1759 C.3       23 UNK        -0.0398 
     18 CA         -2.0676  -21.3414  -48.3268 C.3       11 UNK         0.1400 
     19 N          -0.7916  -20.6665  -48.1056 N.am      11 UNK        -0.5000 
     20 C           0.3867  -21.0876  -48.5829 C.2       10 UNK         0.5000 
     21 O           0.5130  -22.0347  -49.3590 O.2       10 UNK        -0.5000 
     22 CA          1.6426  -20.3470  -48.0836 C.3       10 UNK         0.1400 
     23 CB          2.0622  -19.2578  -49.0805 C.3       10 UNK        -0.1800 
     24 N           1.4717  -19.7519  -46.7546 N.am      10 UNK        -0.5000 
     25 C           1.3489  -20.4646  -45.6258 C.2       9 UNK         0.5000 
     26 O           1.3719  -21.6948  -45.5888 O.2       9 UNK        -0.5000 
     27 CA          1.1153  -19.6769  -44.3235 C.3       9 UNK         0.1400 
     28 CB          2.4513  -19.1816  -43.7499 C.3       9 UNK        -0.1800 
     29 N           0.1910  -18.5446  -44.4372 N.am      9 UNK        -0.5000 
     30 C          -1.0518  -18.5789  -44.9401 C.2       8 UNK         0.5000 
     31 O          -1.5450  -19.5568  -45.5025 O.2       8 UNK        -0.5000 
     32 CA         -1.8801  -17.3038  -44.7163 C.3       8 UNK         0.1400 
     33 CB         -3.2478  -17.3143  -45.4291 C.3       8 UNK        -0.1800 
     34 N          -2.0057  -17.0321  -43.2824 N.am      8 UNK        -0.5000 
     35 C          -2.6515  -17.7601  -42.3559 C.2       7 UNK         0.5000 
     36 O          -3.3480  -18.7415  -42.6152 O.2       7 UNK        -0.5000 
     37 CA         -2.4688  -17.3494  -40.8769 C.3       7 UNK         0.1400 
     38 CB         -1.7986  -18.4834  -40.0830 C.3       7 UNK        -0.1800 
     39 N          -1.6692  -16.1348  -40.7041 N.am      7 UNK        -0.5000 
     40 C          -2.1002  -14.8846  -40.9151 C.2       6 UNK         0.5000 
     41 O          -3.2689  -14.6017  -41.1773 O.2       6 UNK        -0.5000 
     42 CA         -1.0397  -13.7666  -40.8660 C.3       6 UNK         0.1400 
     43 CB         -1.1410  -12.9791  -39.5514 C.3       6 UNK        -0.1800 
     44 N           0.3416  -14.2310  -41.0308 N.am      6 UNK        -0.5000 
     45 C           0.8617  -14.7963  -42.1300 C.2       5 UNK         0.5000 
     46 O           0.2006  -15.0961  -43.1286 O.2       5 UNK        -0.5000 
     47 CA          2.3791  -15.0419  -42.1001 C.3       5 UNK         0.1400 
     48 CB          2.9723  -15.2860  -43.4990 C.3       5 UNK        -0.1800 
     49 N           3.0535  -13.9001  -41.4823 N.am      5 UNK        -0.5000 
     50 C           4.0239  -13.9694  -40.5615 C.2       4 UNK         0.5000 
     51 O           4.4362  -15.0310  -40.0927 O.2       4 UNK        -0.5000 
     52 CA          4.6615  -12.6443  -40.0891 C.3       4 UNK         0.1400 
     53 CB          6.1549  -12.6066  -40.4539 C.3       4 UNK        -0.1800 
     54 N           4.0207  -11.4587  -40.6620 N.am      4 UNK        -0.5000 
     55 C           2.9535  -10.8287  -40.1524 C.2       3 UNK         0.5000 
     56 O           2.4014  -11.1550  -39.1018 O.2       3 UNK        -0.5000 
     57 CA          2.3870   -9.6600  -40.9881 C.3       3 UNK         0.1400 
     58 CB          3.0344   -8.3320  -40.5676 C.3       3 UNK        -0.1800 
     59 N           2.5615   -9.8481  -42.4349 N.am      3 UNK        -0.5000 
     60 C           1.9938  -10.8424  -43.1288 C.2       2 UNK         0.5000 
     61 O           1.2278  -11.6646  -42.6207 O.2       2 UNK        -0.5000 
     62 CA          2.3907  -10.9934  -44.6044 C.3       2 UNK         0.1400 
     63 CB          3.8824  -11.3671  -44.7308 C.3       2 UNK        -0.1800 
     64 N           1.5527  -12.0464  -45.1672 N.am      2 UNK        -0.5000 
     65 C           1.4160  -12.3860  -46.4525 C.2       1 UNK         0.5000 
     66 O           2.0079  -11.8234  -47.3743 O.2       1 UNK        -0.5000 
     67 C          -2.1865  -22.5453  -47.3772 C.2       11 UNK         0.5000 
     68 O          -2.4808  -23.6521  -47.8278 O.2       11 UNK        -0.5000 
     69 N          -1.9387  -22.3082  -46.0808 N.am      12 UNK        -0.5000 
     70 CA         -2.0512  -23.2841  -44.9945 C.3       12 UNK         0.1400 
     71 CB         -1.7420  -22.5953  -43.6576 C.3       12 UNK        -0.1800 
     72 C          -1.1629  -24.5258  -45.1874 C.2       12 UNK         0.5000 
     73 O          -1.6196  -25.6407  -44.9333 O.2       12 UNK        -0.5000 
     74 N           0.0577  -24.3214  -45.7027 N.am      13 UNK        -0.5000 
     75 CA          1.0077  -25.3759  -46.0712 C.3       13 UNK         0.1400 
     76 CB          2.3355  -24.7240  -46.4866 C.3       13 UNK        -0.1800 
     77 C           0.5052  -26.3188  -47.1858 C.2       13 UNK         0.5000 
     78 O           0.9785  -27.4521  -47.2750 O.2       13 UNK        -0.5000 
     79 N          -0.4457  -25.8438  -47.9993 N.am      14 UNK        -0.5000 
     80 CA         -1.1012  -26.5846  -49.0750 C.3       14 UNK         0.1400 
     81 CB         -1.0705  -25.7117  -50.3400 C.3       14 UNK        -0.1800 
     82 C          -2.5499  -26.9661  -48.7100 C.2       14 UNK         0.5000 
     83 O          -3.3022  -27.3665  -49.5978 O.2       14 UNK        -0.5000 
     84 N          -2.9436  -26.7987  -47.4365 N.am      15 UNK        -0.5000 
     85 CA         -4.2934  -27.0170  -46.8975 C.3       15 UNK         0.1400 
     86 CB         -4.6346  -28.5215  -46.8843 C.3       15 UNK        -0.1800 
     87 C          -5.3732  -26.1598  -47.5986 C.2       15 UNK         0.5000 
     88 O          -6.5016  -26.6150  -47.7899 O.2       15 UNK        -0.5000 
     89 N          -4.9828  -24.9374  -47.9873 N.am      16 UNK        -0.5000 
     90 CA         -5.7415  -23.9187  -48.7186 C.3       16 UNK         0.1400 
     91 CB         -7.0261  -23.5148  -47.9676 C.3       16 UNK        -0.1800 
     92 C          -6.0030  -24.2464  -50.2040 C.2       16 UNK         0.5000 
     93 O          -6.6840  -23.4689  -50.8737 O.2       16 UNK        -0.5000 
     94 N          -5.4389  -25.3474  -50.7255 N.am      17 UNK        -0.5000 
     95 CA         -5.5929  -25.7615  -52.1249 C.3       17 UNK         0.1400 
     96 CB         -5.1574  -27.2261  -52.2769 C.3       17 UNK        -0.1800 
     97 C          -4.8195  -24.8678  -53.1142 C.2       17 UNK         0.5000 
     98 O          -5.1776  -24.8156  -54.2916 O.2       17 UNK        -0.5000 
     99 N          -3.7841  -24.1707  -52.6227 N.am      18 UNK        -0.5000 
    100 CA        -2.9377  -23.2649  -53.4019 C.3       18 UNK         0.1400 
    101 CB        -1.7077  -22.8721  -52.5718 C.3       18 UNK        -0.1800 
    102 C         -3.6617  -22.0030  -53.9046 C.2       18 UNK         0.5000 
    103 O         -3.1986  -21.4046  -54.8741 O.2       18 UNK        -0.5000 
    104 N         -4.7862  -21.6338  -53.2722 N.am      19 UNK        -0.5000 
    105 CA        -5.5941  -20.4417  -53.5597 C.3       19 UNK         0.1400 
    106 CB        -6.8148  -20.4401  -52.6255 C.3       19 UNK        -0.1800 
    107 C         -6.0669  -20.2965  -55.0214 C.2       19 UNK         0.5000 
    108 O         -6.3857  -19.1846  -55.4443 O.2       19 UNK        -0.5000 
    109 N         -6.1137  -21.4131  -55.7595 N.am      20 UNK        -0.5000 
    110 CA        -6.5132  -21.4787  -57.1613 C.3       20 UNK         0.1400 
    111 CB        -6.6724  -22.9535  -57.5618 C.3       20 UNK        -0.1800 
    112 C         -5.5516  -20.7615  -58.1299 C.2       20 UNK         0.5000 
    113 O         -6.0255  -20.2221  -59.1315 O.2       20 UNK        -0.5000 
    114 N         -4.2382  -20.7755  -57.8472 N.am      21 UNK        -0.5000 
    115 CA        -3.2153  -20.2530  -58.7660 C.3       21 UNK         0.1400 
    116 CB        -3.0881  -21.1834  -59.9935 C.3       21 UNK        -0.1800 
    117 C         -1.8213  -20.0362  -58.1451 C.2       21 UNK         0.5000 
    118 O         -0.9848  -19.4103  -58.7981 O.2       21 UNK        -0.5000 
    119 N         -1.5599  -20.5700  -56.9440 N.am      22 UNK        -0.5000 
    120 CA        -0.2430  -20.5985  -56.2759 C.3       22 UNK         0.1400 
    121 C          0.8415  -21.4559  -57.0024 C.2       22 UNK         0.5000 
    122 N          0.4746  -22.3658  -57.8970 N.am      22 UNK        -0.7600 
    123 O          2.0323  -21.3253  -56.7317 O.2       22 UNK        -0.5000 
    124 C124        0.2781  -19.1920  -55.8636 C.3       23 UNK        -0.0398 
    125 S125       -0.8422  -18.3380  -54.7052 S.3       23 UNK        -0.2404 
    126 C126       -0.1814  -18.9400  -53.1201 C.3       23 UNK        -0.0205 
    127 H127       -2.2459  -14.2682  -43.8775 H         1 UNK         0.0600 
    128 H128       -2.6234  -12.5508  -43.7093 H         1 UNK         0.0600 
    129 H129       -3.5932  -13.5753  -44.7731 H         1 UNK         0.0600 
    130 H130       -0.2929  -14.4310  -44.9807 H         1 UNK         0.3000 
    131 H131       -0.0823  -13.2565  -47.6728 H         1 UNK         0.0600 
    132 H132        1.8114  -15.1688  -46.2249 H         1 UNK         0.0800 
    133 H133        1.9779  -14.6529  -47.8799 H         1 UNK         0.0800 
    134 H134        0.5485  -15.2606  -49.8092 H         1 UNK         0.0800 
    135 H135       -1.0206  -14.8254  -49.1719 H         1 UNK         0.0800 
    136 H136        0.6850  -16.9855  -51.4329 H         1 UNK         0.1150 
    137 H137       -2.6739  -19.5349  -52.1988 H         1 UNK         0.1150 
    138 H138       -2.7852  -16.7533  -48.9333 H         1 UNK         0.1150 
    139 H139       -4.7213  -18.0428  -49.3922 H         1 UNK         0.0800 
    140 H140       -4.9303  -18.5327  -51.0530 H         1 UNK         0.0800 
    141 H141       -3.9078  -20.6213  -47.3142 H         1 UNK         0.0800 
    142 H142       -2.9455  -19.3618  -47.9911 H         1 UNK         0.0800 
    143 H143       -2.0515  -21.7428  -49.3418 H         1 UNK         0.0600 
    144 H144       -0.7968  -19.9262  -47.4153 H         1 UNK         0.3000 
    145 H145        2.4504  -21.0796  -48.0239 H         1 UNK         0.0600 
    146 H146        2.9889  -18.7735  -48.7727 H         1 UNK         0.0600 
    147 H147        2.2269  -19.6780  -50.0735 H         1 UNK         0.0600 
    148 H148        1.2968  -18.4896  -49.1748 H         1 UNK         0.0600 
    149 H149        1.4147  -18.7447  -46.7060 H         1 UNK         0.3000 
    150 H150        0.6784  -20.3669  -43.6004 H         1 UNK         0.0600 
    151 H151        2.9418  -18.4773  -44.4227 H         1 UNK         0.0600 
    152 H152        3.1389  -20.0135  -43.5913 H         1 UNK         0.0600 
    153 H153        2.3130  -18.6891  -42.7872 H         1 UNK         0.0600 
    154 H154        0.4901  -17.6872  -43.9968 H         1 UNK         0.3000 
    155 H155       -1.3065  -16.4769  -45.1324 H         1 UNK         0.0600 
    156 H156       -3.8648  -18.1611  -45.1281 H         1 UNK         0.0600 
    157 H157       -3.1158  -17.3769  -46.5093 H         1 UNK         0.0600 
    158 H158       -3.8054  -16.4010  -45.2227 H         1 UNK         0.0600 
    159 H159       -1.4308  -16.2663  -42.9500 H         1 UNK         0.3000 
    160 H160       -3.4634  -17.1786  -40.4599 H         1 UNK         0.0600 
    161 H161       -0.8038  -18.7107  -40.4684 H         1 UNK         0.0600 
    162 H162       -2.3871  -19.4004  -40.1342 H         1 UNK         0.0600 
    163 H163       -1.7002  -18.2230  -39.0289 H         1 UNK         0.0600 
    164 H164       -0.6942  -16.2654  -40.4787 H         1 UNK         0.3000 
    165 H165       -1.2528  -13.0809  -41.6881 H         1 UNK         0.0600 
    166 H166       -0.4557  -12.1307  -39.5479 H         1 UNK         0.0600 
    167 H167       -2.1471  -12.5827  -39.4080 H         1 UNK         0.0600 
    168 H168       -0.9071  -13.6045  -38.6890 H         1 UNK         0.0600 
    169 H169        0.9721  -14.0141  -40.2726 H         1 UNK         0.3000 
    170 H170        2.5288  -15.9430  -41.5024 H         1 UNK         0.0600 
    171 H171        2.8515  -14.4142  -44.1410 H         1 UNK         0.0600 
    172 H172        2.4903  -16.1296  -43.9924 H         1 UNK         0.0600 
    173 H173        4.0371  -15.5113  -43.4396 H         1 UNK         0.0600 
    174 H174        2.7106  -12.9898  -41.7649 H         1 UNK         0.3000 
    175 H175        4.5764  -12.6114  -39.0010 H         1 UNK         0.0600 
    176 H176        6.3070  -12.6558  -41.5329 H         1 UNK         0.0600 
    177 H177        6.6268  -11.6940  -40.0892 H         1 UNK         0.0600 
    178 H178        6.6904  -13.4459  -40.0083 H         1 UNK         0.0600 
    179 H179        4.4086  -11.1142  -41.5277 H         1 UNK         0.3000 
    180 H180        1.3160   -9.5985  -40.7827 H         1 UNK         0.0600 
    181 H181        2.5852   -7.4898  -41.0943 H         1 UNK         0.0600 
    182 H182        4.1060   -8.3235  -40.7707 H         1 UNK         0.0600 
    183 H183        2.9012   -8.1538  -39.4996 H         1 UNK         0.0600 
    184 H184        3.1789   -9.2022  -42.9060 H         1 UNK         0.3000 
    185 H185        2.1881  -10.0547  -45.1231 H         1 UNK         0.0600 
    186 H186        4.1757  -11.5044  -45.7713 H         1 UNK         0.0600 
    187 H187        4.5228  -10.5836  -44.3248 H         1 UNK         0.0600 
    188 H188        4.1137  -12.2893  -44.1965 H         1 UNK         0.0600 
    189 H189        0.9853  -12.5145  -44.4697 H         1 UNK         0.3000 
    190 H190       -1.7162  -21.3535  -45.8058 H         1 UNK         0.3000 
    191 H191       -3.0892  -23.6219  -44.9716 H         1 UNK         0.0600 
    192 H192       -1.9045  -23.2764  -42.8214 H         1 UNK         0.0600 
    193 H193       -2.3820  -21.7263  -43.5004 H         1 UNK         0.0600 
    194 H194       -0.7059  -22.2614  -43.6108 H         1 UNK         0.0600 
    195 H195        0.3733  -23.3646  -45.8386 H         1 UNK         0.3000 
    196 H196        1.1870  -25.9868  -45.1843 H         1 UNK         0.0600 
    197 H197        2.2038  -24.0572  -47.3400 H         1 UNK         0.0600 
    198 H198        2.7607  -24.1413  -45.6693 H         1 UNK         0.0600 
    199 H199        3.0739  -25.4767  -46.7659 H         1 UNK         0.0600 
    200 H200       -0.8069  -24.9112  -47.8342 H         1 UNK         0.3000 
    201 H201       -0.5665  -27.5126  -49.2853 H         1 UNK         0.0600 
    202 H202       -0.0487  -25.4403  -50.6058 H         1 UNK         0.0600 
    203 H203       -1.6340  -24.7891  -50.1977 H         1 UNK         0.0600 
    204 H204       -1.4997  -26.2339  -51.1961 H         1 UNK         0.0600 
    205 H205       -2.2658  -26.4482  -46.7692 H         1 UNK         0.3000 
    206 H206       -4.2647  -26.6765  -45.8615 H         1 UNK         0.0600 
    207 H207       -3.8626  -29.0956  -46.3721 H         1 UNK         0.0600 
    208 H208       -5.5740  -28.7054  -46.3618 H         1 UNK         0.0600 
    209 H209       -4.7377  -28.9228  -47.8929 H         1 UNK         0.0600 
    210 H210       -4.0138  -24.6781  -47.8127 H         1 UNK         0.3000 
    211 H211       -5.0934  -23.0439  -48.7281 H         1 UNK         0.0600 
    212 H212       -7.4807  -22.6332  -48.4211 H         1 UNK         0.0600 
    213 H213       -6.8142  -23.2689  -46.9271 H         1 UNK         0.0600 
    214 H214       -7.7737  -24.3080  -47.9824 H         1 UNK         0.0600 
    215 H215       -4.8816  -25.9513  -50.1320 H         1 UNK         0.3000 
    216 H216       -6.6522  -25.6970  -52.3824 H         1 UNK         0.0600 
    217 H217       -4.0856  -27.3461  -52.1170 H         1 UNK         0.0600 
    218 H218       -5.3793  -27.5952  -53.2790 H         1 UNK         0.0600 
    219 H219       -5.6782  -27.8714  -51.5691 H         1 UNK         0.0600 
    220 H220       -3.5646  -24.2744  -51.6438 H         1 UNK         0.3000 
    221 H221       -2.5907  -23.8072  -54.2840 H         1 UNK         0.0600 
    222 H222       -1.1050  -23.7437  -52.3227 H         1 UNK         0.0600 
    223 H223       -1.9862  -22.3703  -51.6449 H         1 UNK         0.0600 
    224 H224       -1.0614  -22.1963  -53.1306 H         1 UNK         0.0600 
    225 H225       -5.1066  -22.2066  -52.5037 H         1 UNK         0.3000 
    226 H226       -4.9780  -19.5701  -53.3320 H         1 UNK         0.0600 
    227 H227       -7.4643  -21.2953  -52.8169 H         1 UNK         0.0600 
    228 H228       -6.5218  -20.4794  -51.5779 H         1 UNK         0.0600 
    229 H229       -7.4115  -19.5370  -52.7598 H         1 UNK         0.0600 
    230 H230       -5.8333  -22.2813  -55.3253 H         1 UNK         0.3000 
    231 H231       -7.4889  -20.9964  -57.2512 H         1 UNK         0.0600 
    232 H232       -5.7352  -23.5020  -57.4567 H         1 UNK         0.0600 
    233 H233       -6.9924  -23.0451  -58.6007 H         1 UNK         0.0600 
    234 H234       -7.4223  -23.4512  -56.9466 H         1 UNK         0.0600 
    235 H235       -3.9292  -21.1815  -56.9739 H         1 UNK         0.3000 
    236 H236       -3.5417  -19.2693  -59.1103 H         1 UNK         0.0600 
    237 H237       -4.0100  -21.2209  -60.5731 H         1 UNK         0.0600 
    238 H238       -2.3065  -20.8415  -60.6734 H         1 UNK         0.0600 
    239 H239       -2.8400  -22.2026  -59.6958 H         1 UNK         0.0600 
    240 H240       -2.3001  -20.9950  -56.3946 H         1 UNK         0.3000 
    241 H241       -0.4159  -21.1482  -55.3507 H         1 UNK         0.0600 
    242 H242        1.1790  -22.9232  -58.3544 H         1 UNK         0.3800 
    243 H243       -0.4973  -22.5015  -58.1227 H         1 UNK         0.3800 
    244 H244        0.4169  -18.5602  -56.7413 H         1 UNK         0.0800 
    245 H245        1.2605  -19.2602  -55.3940 H         1 UNK         0.0800 
    246 H246       -0.2692  -20.0249  -53.0749 H         1 UNK         0.0800 
    247 H247        0.8844  -18.7140  -53.0608 H         1 UNK         0.0800 
@<TRIPOS>BOND
     1    1    2 1    
     2    1  127 1    
     3    1  128 1    
     4    1  129 1    
     5    2    3 2    
     6    2    4 am   BACKBONE|DICT|INTERRES
     7    4    5 1    
     8    4  130 1    
     9    5    6 1    
    10    5   65 1    
    11    5  131 1    
    12    6    7 1    
    13    6  132 1    
    14    6  133 1    
    15    7    8 1    
    16    8    9 1    
    17    8  134 1    
    18    8  135 1    
    19    9   10 ar   
    20    9   14 ar   
    21   10   11 ar   
    22   10  136 1    
    23   11   12 ar   
    24   11  126 1    
    25   12   13 ar   
    26   12  137 1    
    27   13   14 ar   
    28   13   15 1    
    29   14  138 1    
    30   15   16 1    
    31   15  139 1    
    32   15  140 1    
    33   16   17 1    
    34   17   18 1    
    35   17  141 1    
    36   17  142 1    
    37   18   19 1    
    38   18   67 1    
    39   18  143 1    
    40   19   20 am   BACKBONE|DICT|INTERRES
    41   19  144 1    
    42   20   21 2    
    43   20   22 1    
    44   22   23 1    
    45   22   24 1    
    46   22  145 1    
    47   23  146 1    
    48   23  147 1    
    49   23  148 1    
    50   24   25 am   BACKBONE|DICT|INTERRES
    51   24  149 1    
    52   25   26 2    
    53   25   27 1    
    54   27   28 1    
    55   27   29 1    
    56   27  150 1    
    57   28  151 1    
    58   28  152 1    
    59   28  153 1    
    60   29   30 am   BACKBONE|DICT|INTERRES
    61   29  154 1    
    62   30   31 2    
    63   30   32 1    
    64   32   33 1    
    65   32   34 1    
    66   32  155 1    
    67   33  156 1    
    68   33  157 1    
    69   33  158 1    
    70   34   35 am   BACKBONE|DICT|INTERRES
    71   34  159 1    
    72   35   36 2    
    73   35   37 1    
    74   37   38 1    
    75   37   39 1    
    76   37  160 1    
    77   38  161 1    
    78   38  162 1    
    79   38  163 1    
    80   39   40 am   BACKBONE|DICT|INTERRES
    81   39  164 1    
    82   40   41 2    
    83   40   42 1    
    84   42   43 1    
    85   42   44 1    
    86   42  165 1    
    87   43  166 1    
    88   43  167 1    
    89   43  168 1    
    90   44   45 am   BACKBONE|DICT|INTERRES
    91   44  169 1    
    92   45   46 2    
    93   45   47 1    
    94   47   48 1    
    95   47   49 1    
    96   47  170 1    
    97   48  171 1    
    98   48  172 1    
    99   48  173 1    
   100   49   50 am   BACKBONE|DICT|INTERRES
   101   49  174 1    
   102   50   51 2    
   103   50   52 1    
   104   52   53 1    
   105   52   54 1    
   106   52  175 1    
   107   53  176 1    
   108   53  177 1    
   109   53  178 1    
   110   54   55 am   BACKBONE|DICT|INTERRES
   111   54  179 1    
   112   55   56 2    
   113   55   57 1    
   114   57   58 1    
   115   57   59 1    
   116   57  180 1    
   117   58  181 1    
   118   58  182 1    
   119   58  183 1    
   120   59   60 am   BACKBONE|DICT|INTERRES
   121   59  184 1    
   122   60   61 2    
   123   60   62 1    
   124   62   63 1    
   125   62   64 1    
   126   62  185 1    
   127   63  186 1    
   128   63  187 1    
   129   63  188 1    
   130   64   65 am   BACKBONE|DICT|INTERRES
   131   64  189 1    
   132   65   66 2    
   133   67   68 2    
   134   67   69 am   BACKBONE|DICT|INTERRES
   135   69   70 1    
   136   69  190 1    
   137   70   71 1    
   138   70   72 1    
   139   70  191 1    
   140   71  192 1    
   141   71  193 1    
   142   71  194 1    
   143   72   73 2    
   144   72   74 am   BACKBONE|DICT|INTERRES
   145   74   75 1    
   146   74  195 1    
   147   75   76 1    
   148   75   77 1    
   149   75  196 1    
   150   76  197 1    
   151   76  198 1    
   152   76  199 1    
   153   77   78 2    
   154   77   79 am   BACKBONE|DICT|INTERRES
   155   79   80 1    
   156   79  200 1    
   157   80   81 1    
   158   80   82 1    
   159   80  201 1    
   160   81  202 1    
   161   81  203 1    
   162   81  204 1    
   163   82   83 2    
   164   82   84 am   BACKBONE|DICT|INTERRES
   165   84   85 1    
   166   84  205 1    
   167   85   86 1    
   168   85   87 1    
   169   85  206 1    
   170   86  207 1    
   171   86  208 1    
   172   86  209 1    
   173   87   88 2    
   174   87   89 am   BACKBONE|DICT|INTERRES
   175   89   90 1    
   176   89  210 1    
   177   90   91 1    
   178   90   92 1    
   179   90  211 1    
   180   91  212 1    
   181   91  213 1    
   182   91  214 1    
   183   92   93 2    
   184   92   94 am   BACKBONE|DICT|INTERRES
   185   94   95 1    
   186   94  215 1    
   187   95   96 1    
   188   95   97 1    
   189   95  216 1    
   190   96  217 1    
   191   96  218 1    
   192   96  219 1    
   193   97   98 2    
   194   97   99 am   BACKBONE|DICT|INTERRES
   195   99  100 1    
   196   99  220 1    
   197  100  101 1    
   198  100  102 1    
   199  100  221 1    
   200  101  222 1    
   201  101  223 1    
   202  101  224 1    
   203  102  103 2    
   204  102  104 am   BACKBONE|DICT|INTERRES
   205  104  105 1    
   206  104  225 1    
   207  105  106 1    
   208  105  107 1    
   209  105  226 1    
   210  106  227 1    
   211  106  228 1    
   212  106  229 1    
   213  107  108 2    
   214  107  109 am   BACKBONE|DICT|INTERRES
   215  109  110 1    
   216  109  230 1    
   217  110  111 1    
   218  110  112 1    
   219  110  231 1    
   220  111  232 1    
   221  111  233 1    
   222  111  234 1    
   223  112  113 2    
   224  112  114 am   BACKBONE|DICT|INTERRES
   225  114  115 1    
   226  114  235 1    
   227  115  116 1    
   228  115  117 1    
   229  115  236 1    
   230  116  237 1    
   231  116  238 1    
   232  116  239 1    
   233  117  118 2    
   234  117  119 am   BACKBONE|DICT|INTERRES
   235  119  120 1    
   236  119  240 1    
   237  120  121 1    
   238  120  124 1    
   239  120  241 1    
   240  121  122 am   BACKBONE|DICT|INTERRES
   241  121  123 2    
   242  122  242 1    
   243  122  243 1    
   244  124  125 1    
   245  124  244 1    
   246  124  245 1    
   247  125  126 1    
   248  126  246 1    
   249  126  247 1    
@<TRIPOS>SUBSTRUCTURE
     1 UNK         1 GROUP             0       ****    0 ROOT    
