@<TRIPOS>MOLECULE
3R540
247   249    1
SMALL
USER_CHARGES


@<TRIPOS>ATOM
      1 CA          0.8283  -11.1568  -48.1443 C.3       0 UNK        -0.1800 
      2 C           0.8012  -11.4141  -46.6454 C.2       0 UNK         0.5000 
      3 O           1.7324  -11.0188  -45.9417 O.2       0 UNK        -0.5000 
      4 N          -0.2688  -12.0564  -46.1565 N.am      1 UNK        -0.5000 
      5 CA         -0.4895  -12.5067  -44.7709 C.3       1 UNK         0.1400 
      6 C6         -1.6159  -13.5753  -44.6808 C.3       23 UNK        -0.0398 
      7 S7         -1.4592  -14.9603  -45.8625 S.3       23 UNK        -0.2404 
      8 C8         -3.0477  -14.8298  -46.7460 C.3       23 UNK        -0.0205 
      9 C9         -3.2429  -15.9832  -47.7172 C.ar      23 UNK        -0.0193 
     10 C10        -2.6899  -15.9221  -48.9973 C.ar      23 UNK        -0.1150 
     11 C11        -2.8366  -16.9902  -49.8851 C.ar      23 UNK        -0.0193 
     12 C12        -3.5586  -18.1198  -49.4910 C.ar      23 UNK        -0.1150 
     13 C13        -4.1364  -18.1907  -48.2194 C.ar      23 UNK        -0.0193 
     14 C14        -3.9769  -17.1113  -47.3391 C.ar      23 UNK        -0.1150 
     15 C15        -4.9413  -19.4366  -47.8466 C.3       23 UNK        -0.0205 
     16 S16        -4.9843  -19.8410  -46.0651 S.3       23 UNK        -0.2404 
     17 C17        -3.2289  -20.1990  -45.7231 C.3       23 UNK        -0.0398 
     18 CA         -2.8536  -21.6719  -46.0054 C.3       11 UNK         0.1400 
     19 N          -1.4478  -21.8060  -46.4072 N.am      11 UNK        -0.5000 
     20 C          -0.8608  -22.9203  -46.8670 C.2       10 UNK         0.5000 
     21 O          -1.4513  -23.9919  -47.0032 O.2       10 UNK        -0.5000 
     22 CA          0.6395  -22.8314  -47.1873 C.3       10 UNK         0.1400 
     23 CB          0.8667  -22.2347  -48.5858 C.3       10 UNK        -0.1800 
     24 N           1.3343  -22.0244  -46.1842 N.am      10 UNK        -0.5000 
     25 C           1.7577  -22.4926  -45.0009 C.2       9 UNK         0.5000 
     26 O           1.7014  -23.6790  -44.6783 O.2       9 UNK        -0.5000 
     27 CA          2.3130  -21.4635  -43.9950 C.3       9 UNK         0.1400 
     28 CB          3.8277  -21.2899  -44.1800 C.3       9 UNK        -0.1800 
     29 N           1.6689  -20.1537  -44.0962 N.am      9 UNK        -0.5000 
     30 C           0.3807  -19.9068  -43.8160 C.2       8 UNK         0.5000 
     31 O          -0.3969  -20.7518  -43.3733 O.2       8 UNK        -0.5000 
     32 CA         -0.1410  -18.4935  -44.1460 C.3       8 UNK         0.1400 
     33 CB         -0.0808  -17.5984  -42.9009 C.3       8 UNK        -0.1800 
     34 N           0.5613  -17.8571  -45.2680 N.am      8 UNK        -0.5000 
     35 C           0.6068  -18.3632  -46.5120 C.2       7 UNK         0.5000 
     36 O           0.0410  -19.4116  -46.8223 O.2       7 UNK        -0.5000 
     37 CA          1.4432  -17.6413  -47.5864 C.3       7 UNK         0.1400 
     38 CB          0.5499  -17.1013  -48.7088 C.3       7 UNK        -0.1800 
     39 N           2.2683  -16.5486  -47.0812 N.am      7 UNK        -0.5000 
     40 C           3.3793  -16.6865  -46.3495 C.2       6 UNK         0.5000 
     41 O           3.8338  -17.7762  -45.9957 O.2       6 UNK        -0.5000 
     42 CA          4.0898  -15.3868  -45.9140 C.3       6 UNK         0.1400 
     43 CB          3.5530  -14.1116  -46.6054 C.3       6 UNK        -0.1800 
     44 N           4.0600  -15.2024  -44.4621 N.am      6 UNK        -0.5000 
     45 C           2.9776  -15.2131  -43.6680 C.2       5 UNK         0.5000 
     46 O           1.8342  -15.4458  -44.0576 O.2       5 UNK        -0.5000 
     47 CA          3.2205  -14.8239  -42.1975 C.3       5 UNK         0.1400 
     48 CB          3.8760  -15.9764  -41.4209 C.3       5 UNK        -0.1800 
     49 N           4.0531  -13.6201  -42.1066 N.am      5 UNK        -0.5000 
     50 C           3.6462  -12.4196  -42.5409 C.2       4 UNK         0.5000 
     51 O           2.4783  -12.1804  -42.8632 O.2       4 UNK        -0.5000 
     52 CA          4.7116  -11.3170  -42.6730 C.3       4 UNK         0.1400 
     53 CB          5.9454  -11.7886  -43.4697 C.3       4 UNK        -0.1800 
     54 N           4.0765  -10.2022  -43.3598 N.am      4 UNK        -0.5000 
     55 C           4.4575   -8.9232  -43.3854 C.2       3 UNK         0.5000 
     56 O           5.4884   -8.4986  -42.8623 O.2       3 UNK        -0.5000 
     57 CA          3.5020   -7.9533  -44.1094 C.3       3 UNK         0.1400 
     58 CB          3.9279   -7.7739  -45.5746 C.3       3 UNK        -0.1800 
     59 N           2.1098   -8.4141  -44.0731 N.am      3 UNK        -0.5000 
     60 C           1.3316   -8.3804  -42.9796 C.2       2 UNK         0.5000 
     61 O           1.6787   -7.8713  -41.9133 O.2       2 UNK        -0.5000 
     62 CA         -0.0472   -9.0498  -43.0779 C.3       2 UNK         0.1400 
     63 CB         -1.0990   -8.0788  -43.6406 C.3       2 UNK        -0.1800 
     64 N           0.0165  -10.2547  -43.9007 N.am      2 UNK        -0.5000 
     65 C          -0.7492  -11.3408  -43.7762 C.2       1 UNK         0.5000 
     66 O          -1.6459  -11.4314  -42.9345 O.2       1 UNK        -0.5000 
     67 C          -3.2605  -22.6088  -44.8436 C.2       11 UNK         0.5000 
     68 O          -4.4299  -22.9808  -44.7489 O.2       11 UNK        -0.5000 
     69 N          -2.2866  -23.0547  -44.0374 N.am      12 UNK        -0.5000 
     70 CA         -2.4289  -24.1277  -43.0478 C.3       12 UNK         0.1400 
     71 CB         -1.1018  -24.2795  -42.2901 C.3       12 UNK        -0.1800 
     72 C          -2.8652  -25.4834  -43.6526 C.2       12 UNK         0.5000 
     73 O          -3.4830  -26.2850  -42.9515 O.2       12 UNK        -0.5000 
     74 N          -2.5706  -25.6965  -44.9426 N.am      13 UNK        -0.5000 
     75 CA         -3.0266  -26.8184  -45.7641 C.3       13 UNK         0.1400 
     76 CB         -1.7925  -27.5504  -46.3208 C.3       13 UNK        -0.1800 
     77 C          -3.9582  -26.3202  -46.8914 C.2       13 UNK         0.5000 
     78 O          -4.0116  -26.9302  -47.9617 O.2       13 UNK        -0.5000 
     79 N          -4.6415  -25.1872  -46.6555 N.am      14 UNK        -0.5000 
     80 CA         -5.5623  -24.4766  -47.5540 C.3       14 UNK         0.1400 
     81 CB         -6.8345  -25.3173  -47.7892 C.3       14 UNK        -0.1800 
     82 C          -4.9220  -24.0125  -48.8799 C.2       14 UNK         0.5000 
     83 O          -5.6414  -23.7850  -49.8527 O.2       14 UNK        -0.5000 
     84 N          -3.5832  -23.9285  -48.9195 N.am      15 UNK        -0.5000 
     85 CA         -2.7457  -23.7154  -50.1026 C.3       15 UNK         0.1400 
     86 CB         -2.8566  -22.2598  -50.5977 C.3       15 UNK        -0.1800 
     87 C          -3.0121  -24.7694  -51.1972 C.2       15 UNK         0.5000 
     88 O          -3.0996  -24.4270  -52.3774 O.2       15 UNK        -0.5000 
     89 N          -3.1828  -26.0311  -50.7697 N.am      16 UNK        -0.5000 
     90 CA         -3.5605  -27.1931  -51.5826 C.3       16 UNK         0.1400 
     91 CB         -2.4447  -27.5451  -52.5897 C.3       16 UNK        -0.1800 
     92 C          -4.9480  -27.0226  -52.2398 C.2       16 UNK         0.5000 
     93 O          -5.1399  -27.4135  -53.3910 O.2       16 UNK        -0.5000 
     94 N          -5.8781  -26.4179  -51.4847 N.am      17 UNK        -0.5000 
     95 CA         -7.2100  -25.9639  -51.8984 C.3       17 UNK         0.1400 
     96 CB         -8.1073  -27.1478  -52.3169 C.3       17 UNK        -0.1800 
     97 C          -7.1213  -24.8454  -52.9579 C.2       17 UNK         0.5000 
     98 O          -7.7556  -24.9319  -54.0111 O.2       17 UNK        -0.5000 
     99 N          -6.3179  -23.8188  -52.6390 N.am      18 UNK        -0.5000 
    100 CA        -6.0112  -22.6312  -53.4437 C.3       18 UNK         0.1400 
    101 CB        -7.2435  -21.7078  -53.5233 C.3       18 UNK        -0.1800 
    102 C         -5.4171  -22.9758  -54.8264 C.2       18 UNK         0.5000 
    103 O         -5.8663  -22.4480  -55.8465 O.2       18 UNK        -0.5000 
    104 N         -4.4283  -23.8774  -54.8296 N.am      19 UNK        -0.5000 
    105 CA        -3.7331  -24.3568  -56.0245 C.3       19 UNK         0.1400 
    106 CB        -4.0025  -25.8582  -56.2014 C.3       19 UNK        -0.1800 
    107 C         -2.2217  -24.0877  -55.9538 C.2       19 UNK         0.5000 
    108 O         -1.6091  -23.8486  -56.9952 O.2       19 UNK        -0.5000 
    109 N         -1.6398  -24.1158  -54.7457 N.am      20 UNK        -0.5000 
    110 CA        -0.2270  -23.8127  -54.5068 C.3       20 UNK         0.1400 
    111 CB         0.1954  -24.3846  -53.1440 C.3       20 UNK        -0.1800 
    112 C          0.0531  -22.3007  -54.5645 C.2       20 UNK         0.5000 
    113 O          1.1337  -21.8958  -54.9948 O.2       20 UNK        -0.5000 
    114 N         -0.9326  -21.5006  -54.1451 N.am      21 UNK        -0.5000 
    115 CA        -0.9317  -20.0452  -54.1578 C.3       21 UNK         0.1400 
    116 CB        -0.0508  -19.5019  -53.0170 C.3       21 UNK        -0.1800 
    117 C         -2.3846  -19.5759  -54.0062 C.2       21 UNK         0.5000 
    118 O         -3.1872  -20.2815  -53.3898 O.2       21 UNK        -0.5000 
    119 N         -2.6884  -18.3934  -54.5560 N.am      22 UNK        -0.5000 
    120 CA        -4.0006  -17.7164  -54.4875 C.3       22 UNK         0.1400 
    121 C         -5.1794  -18.4846  -55.1650 C.2       22 UNK         0.5000 
    122 N         -4.9180  -19.4367  -56.0513 N.am      22 UNK        -0.7600 
    123 O         -6.3461  -18.1961  -54.9129 O.2       22 UNK        -0.5000 
    124 C124       -4.3467  -17.2244  -53.0517 C.3       23 UNK        -0.0398 
    125 S125       -3.1528  -15.9795  -52.4507 S.3       23 UNK        -0.2404 
    126 C126       -2.1750  -16.9342  -51.2515 C.3       23 UNK        -0.0205 
    127 H127        1.7077  -11.6251  -48.5865 H         1 UNK         0.0600 
    128 H128        0.8760  -10.0857  -48.3401 H         1 UNK         0.0600 
    129 H129       -0.0561  -11.5561  -48.6413 H         1 UNK         0.0600 
    130 H130       -0.9980  -12.3265  -46.7998 H         1 UNK         0.3000 
    131 H131        0.4345  -12.9875  -44.4440 H         1 UNK         0.0600 
    132 H132       -1.6335  -14.0110  -43.6803 H         1 UNK         0.0800 
    133 H133       -2.5904  -13.1031  -44.8177 H         1 UNK         0.0800 
    134 H134       -3.8647  -14.8127  -46.0230 H         1 UNK         0.0800 
    135 H135       -3.0898  -13.8812  -47.2833 H         1 UNK         0.0800 
    136 H136       -2.1234  -15.0511  -49.2957 H         1 UNK         0.1150 
    137 H137       -3.6689  -18.9483  -50.1771 H         1 UNK         0.1150 
    138 H138       -4.4171  -17.1444  -46.3532 H         1 UNK         0.1150 
    139 H139       -5.9664  -19.2932  -48.1901 H         1 UNK         0.0800 
    140 H140       -4.5567  -20.3043  -48.3854 H         1 UNK         0.0800 
    141 H141       -3.0176  -19.9338  -44.6863 H         1 UNK         0.0800 
    142 H142       -2.6228  -19.5261  -46.3303 H         1 UNK         0.0800 
    143 H143       -3.4273  -21.9985  -46.8738 H         1 UNK         0.0600 
    144 H144       -0.8939  -20.9531  -46.3912 H         1 UNK         0.3000 
    145 H145        1.0479  -23.8444  -47.1832 H         1 UNK         0.0600 
    146 H146        1.9303  -22.1430  -48.8060 H         1 UNK         0.0600 
    147 H147        0.4325  -22.8718  -49.3564 H         1 UNK         0.0600 
    148 H148        0.4180  -21.2465  -48.6899 H         1 UNK         0.0600 
    149 H149        1.3595  -21.0272  -46.3516 H         1 UNK         0.3000 
    150 H150        2.1313  -21.8520  -42.9906 H         1 UNK         0.0600 
    151 H151        4.3445  -22.2467  -44.0954 H         1 UNK         0.0600 
    152 H152        4.2443  -20.6278  -43.4206 H         1 UNK         0.0600 
    153 H153        4.0681  -20.8706  -45.1581 H         1 UNK         0.0600 
    154 H154        2.2298  -19.3993  -44.4679 H         1 UNK         0.3000 
    155 H155       -1.1874  -18.5827  -44.4357 H         1 UNK         0.0600 
    156 H156       -0.6686  -18.0240  -42.0867 H         1 UNK         0.0600 
    157 H157       -0.4840  -16.6067  -43.1077 H         1 UNK         0.0600 
    158 H158        0.9409  -17.4810  -42.5392 H         1 UNK         0.0600 
    159 H159        1.0330  -16.9798  -45.0674 H         1 UNK         0.3000 
    160 H160        2.1053  -18.3933  -48.0205 H         1 UNK         0.0600 
    161 H161       -0.0694  -16.2791  -48.3534 H         1 UNK         0.0600 
    162 H162       -0.1128  -17.8771  -49.0949 H         1 UNK         0.0600 
    163 H163        1.1440  -16.7359  -49.5465 H         1 UNK         0.0600 
    164 H164        1.9412  -15.6143  -47.2782 H         1 UNK         0.3000 
    165 H165        5.1373  -15.5018  -46.1959 H         1 UNK         0.0600 
    166 H166        4.1364  -13.2373  -46.3163 H         1 UNK         0.0600 
    167 H167        3.6148  -14.1909  -47.6915 H         1 UNK         0.0600 
    168 H168        2.5149  -13.9076  -46.3401 H         1 UNK         0.0600 
    169 H169        4.9550  -15.0233  -44.0318 H         1 UNK         0.3000 
    170 H170        2.2511  -14.6130  -41.7404 H         1 UNK         0.0600 
    171 H171        3.2675  -16.8800  -41.4783 H         1 UNK         0.0600 
    172 H172        4.8642  -16.2213  -41.8118 H         1 UNK         0.0600 
    173 H173        3.9856  -15.7264  -40.3656 H         1 UNK         0.0600 
    174 H174        5.0149  -13.7473  -41.8275 H         1 UNK         0.3000 
    175 H175        5.0088  -11.0030  -41.6708 H         1 UNK         0.0600 
    176 H176        5.6648  -12.1662  -44.4538 H         1 UNK         0.0600 
    177 H177        6.6576  -10.9766  -43.6169 H         1 UNK         0.0600 
    178 H178        6.4776  -12.5843  -42.9483 H         1 UNK         0.0600 
    179 H179        3.1875  -10.4540  -43.7771 H         1 UNK         0.3000 
    180 H180        3.5656   -6.9838  -43.6108 H         1 UNK         0.0600 
    181 H181        3.8686   -8.7122  -46.1283 H         1 UNK         0.0600 
    182 H182        4.9565   -7.4170  -45.6414 H         1 UNK         0.0600 
    183 H183        3.2974   -7.0438  -46.0823 H         1 UNK         0.0600 
    184 H184        1.7598   -8.8312  -44.9234 H         1 UNK         0.3000 
    185 H185       -0.3379   -9.3298  -42.0630 H         1 UNK         0.0600 
    186 H186       -1.1459   -7.1659  -43.0456 H         1 UNK         0.0600 
    187 H187       -0.8719   -7.7924  -44.6681 H         1 UNK         0.0600 
    188 H188       -2.0936   -8.5248  -43.6294 H         1 UNK         0.0600 
    189 H189        0.7663  -10.3179  -44.5841 H         1 UNK         0.3000 
    190 H190       -1.3666  -22.6427  -44.1290 H         1 UNK         0.3000 
    191 H191       -3.1990  -23.8217  -42.3370 H         1 UNK         0.0600 
    192 H192       -0.2931  -24.5829  -42.9560 H         1 UNK         0.0600 
    193 H193       -0.8096  -23.3438  -41.8129 H         1 UNK         0.0600 
    194 H194       -1.1826  -25.0337  -41.5063 H         1 UNK         0.0600 
    195 H195       -2.0651  -24.9776  -45.4523 H         1 UNK         0.3000 
    196 H196       -3.6044  -27.5245  -45.1650 H         1 UNK         0.0600 
    197 H197       -1.1401  -27.8886  -45.5157 H         1 UNK         0.0600 
    198 H198       -1.2070  -26.9053  -46.9774 H         1 UNK         0.0600 
    199 H199       -2.0812  -28.4320  -46.8943 H         1 UNK         0.0600 
    200 H200       -4.5098  -24.7353  -45.7567 H         1 UNK         0.3000 
    201 H201       -5.8597  -23.5661  -47.0323 H         1 UNK         0.0600 
    202 H202       -7.5867  -24.7497  -48.3384 H         1 UNK         0.0600 
    203 H203       -7.2868  -25.6175  -46.8441 H         1 UNK         0.0600 
    204 H204       -6.6246  -26.2215  -48.3613 H         1 UNK         0.0600 
    205 H205       -3.0643  -24.1402  -48.0728 H         1 UNK         0.3000 
    206 H206       -1.7156  -23.8767  -49.7858 H         1 UNK         0.0600 
    207 H207       -2.6024  -21.5560  -49.8051 H         1 UNK         0.0600 
    208 H208       -3.8618  -22.0221  -50.9446 H         1 UNK         0.0600 
    209 H209       -2.1714  -22.0733  -51.4249 H         1 UNK         0.0600 
    210 H210       -3.1553  -26.2041  -49.7704 H         1 UNK         0.3000 
    211 H211       -3.6553  -28.0313  -50.8908 H         1 UNK         0.0600 
    212 H212       -1.4881  -27.6790  -52.0850 H         1 UNK         0.0600 
    213 H213       -2.6685  -28.4763  -53.1112 H         1 UNK         0.0600 
    214 H214       -2.3166  -26.7715  -53.3462 H         1 UNK         0.0600 
    215 H215       -5.5916  -26.1109  -50.5662 H         1 UNK         0.3000 
    216 H216       -7.6644  -25.5109  -51.0159 H         1 UNK         0.0600 
    217 H217       -9.1302  -26.8137  -52.4941 H         1 UNK         0.0600 
    218 H218       -7.7589  -27.6233  -53.2339 H         1 UNK         0.0600 
    219 H219       -8.1448  -27.9084  -51.5372 H         1 UNK         0.0600 
    220 H220       -5.8821  -23.8410  -51.7200 H         1 UNK         0.3000 
    221 H221       -5.2316  -22.0895  -52.9075 H         1 UNK         0.0600 
    222 H222       -8.0634  -22.1718  -54.0722 H         1 UNK         0.0600 
    223 H223       -7.6071  -21.4505  -52.5286 H         1 UNK         0.0600 
    224 H224       -6.9981  -20.7738  -54.0288 H         1 UNK         0.0600 
    225 H225       -4.1066  -24.2366  -53.9347 H         1 UNK         0.3000 
    226 H226       -4.1057  -23.8433  -56.9131 H         1 UNK         0.0600 
    227 H227       -5.0720  -26.0633  -56.2541 H         1 UNK         0.0600 
    228 H228       -3.5516  -26.2303  -57.1220 H         1 UNK         0.0600 
    229 H229       -3.5919  -26.4405  -55.3769 H         1 UNK         0.0600 
    230 H230       -2.2036  -24.3042  -53.9202 H         1 UNK         0.3000 
    231 H231        0.3715  -24.2992  -55.2800 H         1 UNK         0.0600 
    232 H232        1.2657  -24.2508  -52.9827 H         1 UNK         0.0600 
    233 H233       -0.0126  -25.4527  -53.0802 H         1 UNK         0.0600 
    234 H234       -0.3213  -23.8906  -52.3210 H         1 UNK         0.0600 
    235 H235       -1.8050  -21.9066  -53.8297 H         1 UNK         0.3000 
    236 H236       -0.5464  -19.6992  -55.1191 H         1 UNK         0.0600 
    237 H237        0.9839  -19.8280  -53.1209 H         1 UNK         0.0600 
    238 H238       -0.0427  -18.4115  -53.0147 H         1 UNK         0.0600 
    239 H239       -0.4079  -19.8349  -52.0414 H         1 UNK         0.0600 
    240 H240       -1.9684  -17.8857  -55.0497 H         1 UNK         0.3000 
    241 H241       -3.8919  -16.8251  -55.1064 H         1 UNK         0.0600 
    242 H242       -5.6768  -19.9589  -56.4619 H         1 UNK         0.3800 
    243 H243       -3.9677  -19.6789  -56.2766 H         1 UNK         0.3800 
    244 H244       -5.3268  -16.7457  -53.0330 H         1 UNK         0.0800 
    245 H245       -4.4111  -18.0626  -52.3575 H         1 UNK         0.0800 
    246 H246       -1.1904  -16.4740  -51.1587 H         1 UNK         0.0800 
    247 H247       -2.0041  -17.9416  -51.6267 H         1 UNK         0.0800 
@<TRIPOS>BOND
     1    1    2 1    
     2    1  127 1    
     3    1  128 1    
     4    1  129 1    
     5    2    3 2    
     6    2    4 am   BACKBONE|DICT|INTERRES
     7    4    5 1    
     8    4  130 1    
     9    5    6 1    
    10    5   65 1    
    11    5  131 1    
    12    6    7 1    
    13    6  132 1    
    14    6  133 1    
    15    7    8 1    
    16    8    9 1    
    17    8  134 1    
    18    8  135 1    
    19    9   10 ar   
    20    9   14 ar   
    21   10   11 ar   
    22   10  136 1    
    23   11   12 ar   
    24   11  126 1    
    25   12   13 ar   
    26   12  137 1    
    27   13   14 ar   
    28   13   15 1    
    29   14  138 1    
    30   15   16 1    
    31   15  139 1    
    32   15  140 1    
    33   16   17 1    
    34   17   18 1    
    35   17  141 1    
    36   17  142 1    
    37   18   19 1    
    38   18   67 1    
    39   18  143 1    
    40   19   20 am   BACKBONE|DICT|INTERRES
    41   19  144 1    
    42   20   21 2    
    43   20   22 1    
    44   22   23 1    
    45   22   24 1    
    46   22  145 1    
    47   23  146 1    
    48   23  147 1    
    49   23  148 1    
    50   24   25 am   BACKBONE|DICT|INTERRES
    51   24  149 1    
    52   25   26 2    
    53   25   27 1    
    54   27   28 1    
    55   27   29 1    
    56   27  150 1    
    57   28  151 1    
    58   28  152 1    
    59   28  153 1    
    60   29   30 am   BACKBONE|DICT|INTERRES
    61   29  154 1    
    62   30   31 2    
    63   30   32 1    
    64   32   33 1    
    65   32   34 1    
    66   32  155 1    
    67   33  156 1    
    68   33  157 1    
    69   33  158 1    
    70   34   35 am   BACKBONE|DICT|INTERRES
    71   34  159 1    
    72   35   36 2    
    73   35   37 1    
    74   37   38 1    
    75   37   39 1    
    76   37  160 1    
    77   38  161 1    
    78   38  162 1    
    79   38  163 1    
    80   39   40 am   BACKBONE|DICT|INTERRES
    81   39  164 1    
    82   40   41 2    
    83   40   42 1    
    84   42   43 1    
    85   42   44 1    
    86   42  165 1    
    87   43  166 1    
    88   43  167 1    
    89   43  168 1    
    90   44   45 am   BACKBONE|DICT|INTERRES
    91   44  169 1    
    92   45   46 2    
    93   45   47 1    
    94   47   48 1    
    95   47   49 1    
    96   47  170 1    
    97   48  171 1    
    98   48  172 1    
    99   48  173 1    
   100   49   50 am   BACKBONE|DICT|INTERRES
   101   49  174 1    
   102   50   51 2    
   103   50   52 1    
   104   52   53 1    
   105   52   54 1    
   106   52  175 1    
   107   53  176 1    
   108   53  177 1    
   109   53  178 1    
   110   54   55 am   BACKBONE|DICT|INTERRES
   111   54  179 1    
   112   55   56 2    
   113   55   57 1    
   114   57   58 1    
   115   57   59 1    
   116   57  180 1    
   117   58  181 1    
   118   58  182 1    
   119   58  183 1    
   120   59   60 am   BACKBONE|DICT|INTERRES
   121   59  184 1    
   122   60   61 2    
   123   60   62 1    
   124   62   63 1    
   125   62   64 1    
   126   62  185 1    
   127   63  186 1    
   128   63  187 1    
   129   63  188 1    
   130   64   65 am   BACKBONE|DICT|INTERRES
   131   64  189 1    
   132   65   66 2    
   133   67   68 2    
   134   67   69 am   BACKBONE|DICT|INTERRES
   135   69   70 1    
   136   69  190 1    
   137   70   71 1    
   138   70   72 1    
   139   70  191 1    
   140   71  192 1    
   141   71  193 1    
   142   71  194 1    
   143   72   73 2    
   144   72   74 am   BACKBONE|DICT|INTERRES
   145   74   75 1    
   146   74  195 1    
   147   75   76 1    
   148   75   77 1    
   149   75  196 1    
   150   76  197 1    
   151   76  198 1    
   152   76  199 1    
   153   77   78 2    
   154   77   79 am   BACKBONE|DICT|INTERRES
   155   79   80 1    
   156   79  200 1    
   157   80   81 1    
   158   80   82 1    
   159   80  201 1    
   160   81  202 1    
   161   81  203 1    
   162   81  204 1    
   163   82   83 2    
   164   82   84 am   BACKBONE|DICT|INTERRES
   165   84   85 1    
   166   84  205 1    
   167   85   86 1    
   168   85   87 1    
   169   85  206 1    
   170   86  207 1    
   171   86  208 1    
   172   86  209 1    
   173   87   88 2    
   174   87   89 am   BACKBONE|DICT|INTERRES
   175   89   90 1    
   176   89  210 1    
   177   90   91 1    
   178   90   92 1    
   179   90  211 1    
   180   91  212 1    
   181   91  213 1    
   182   91  214 1    
   183   92   93 2    
   184   92   94 am   BACKBONE|DICT|INTERRES
   185   94   95 1    
   186   94  215 1    
   187   95   96 1    
   188   95   97 1    
   189   95  216 1    
   190   96  217 1    
   191   96  218 1    
   192   96  219 1    
   193   97   98 2    
   194   97   99 am   BACKBONE|DICT|INTERRES
   195   99  100 1    
   196   99  220 1    
   197  100  101 1    
   198  100  102 1    
   199  100  221 1    
   200  101  222 1    
   201  101  223 1    
   202  101  224 1    
   203  102  103 2    
   204  102  104 am   BACKBONE|DICT|INTERRES
   205  104  105 1    
   206  104  225 1    
   207  105  106 1    
   208  105  107 1    
   209  105  226 1    
   210  106  227 1    
   211  106  228 1    
   212  106  229 1    
   213  107  108 2    
   214  107  109 am   BACKBONE|DICT|INTERRES
   215  109  110 1    
   216  109  230 1    
   217  110  111 1    
   218  110  112 1    
   219  110  231 1    
   220  111  232 1    
   221  111  233 1    
   222  111  234 1    
   223  112  113 2    
   224  112  114 am   BACKBONE|DICT|INTERRES
   225  114  115 1    
   226  114  235 1    
   227  115  116 1    
   228  115  117 1    
   229  115  236 1    
   230  116  237 1    
   231  116  238 1    
   232  116  239 1    
   233  117  118 2    
   234  117  119 am   BACKBONE|DICT|INTERRES
   235  119  120 1    
   236  119  240 1    
   237  120  121 1    
   238  120  124 1    
   239  120  241 1    
   240  121  122 am   BACKBONE|DICT|INTERRES
   241  121  123 2    
   242  122  242 1    
   243  122  243 1    
   244  124  125 1    
   245  124  244 1    
   246  124  245 1    
   247  125  126 1    
   248  126  246 1    
   249  126  247 1    
@<TRIPOS>SUBSTRUCTURE
     1 UNK         1 GROUP             0       ****    0 ROOT    
