@<TRIPOS>MOLECULE
3R540
247   249    1
SMALL
USER_CHARGES


@<TRIPOS>ATOM
      1 CA         -5.4533  -18.0613  -48.2803 C.3       0 UNK        -0.1800 
      2 C          -4.4589  -17.0270  -47.7702 C.2       0 UNK         0.5000 
      3 O          -3.9146  -17.1902  -46.6787 O.2       0 UNK        -0.5000 
      4 N          -4.2113  -15.9756  -48.5630 N.am      1 UNK        -0.5000 
      5 CA         -3.2941  -14.8678  -48.2650 C.3       1 UNK         0.1400 
      6 C6         -1.8307  -15.3482  -48.0467 C.3       23 UNK        -0.0398 
      7 S7         -0.5875  -14.1639  -48.6702 S.3       23 UNK        -0.2404 
      8 C8          0.8549  -15.2380  -48.9705 C.3       23 UNK        -0.0205 
      9 C9          0.5834  -16.2788  -50.0472 C.ar      23 UNK        -0.0193 
     10 C10         0.5944  -15.9260  -51.3993 C.ar      23 UNK        -0.1150 
     11 C11         0.3054  -16.8780  -52.3826 C.ar      23 UNK        -0.0193 
     12 C12        -0.0025  -18.1887  -52.0045 C.ar      23 UNK        -0.1150 
     13 C13        -0.0156  -18.5517  -50.6544 C.ar      23 UNK        -0.0193 
     14 C14         0.2975  -17.5967  -49.6862 C.ar      23 UNK        -0.1150 
     15 C15        -0.3743  -19.9696  -50.2408 C.3       23 UNK        -0.0205 
     16 S16        -2.0928  -20.0837  -49.6392 S.3       23 UNK        -0.2404 
     17 C17        -1.8409  -20.0344  -47.8373 C.3       23 UNK        -0.0398 
     18 CA         -1.6348  -21.4553  -47.2451 C.3       11 UNK         0.1400 
     19 N          -0.3778  -21.5774  -46.5015 N.am      11 UNK        -0.5000 
     20 C           0.1323  -22.7293  -46.0439 C.2       10 UNK         0.5000 
     21 O          -0.3799  -23.8289  -46.2477 O.2       10 UNK        -0.5000 
     22 CA          1.3955  -22.6348  -45.1678 C.3       10 UNK         0.1400 
     23 CB          2.6613  -22.5444  -46.0326 C.3       10 UNK        -0.1800 
     24 N           1.3464  -21.5070  -44.2355 N.am      10 UNK        -0.5000 
     25 C           0.4562  -21.3931  -43.2386 C.2       9 UNK         0.5000 
     26 O          -0.3681  -22.2639  -42.9591 O.2       9 UNK        -0.5000 
     27 CA          0.4425  -20.0622  -42.4633 C.3       9 UNK         0.1400 
     28 CB          1.5501  -20.0303  -41.4002 C.3       9 UNK        -0.1800 
     29 N           0.5714  -18.8995  -43.3421 N.am      9 UNK        -0.5000 
     30 C          -0.3064  -18.5620  -44.2970 C.2       8 UNK         0.5000 
     31 O          -1.3556  -19.1683  -44.5066 O.2       8 UNK        -0.5000 
     32 CA          0.0869  -17.3949  -45.2175 C.3       8 UNK         0.1400 
     33 CB         -0.2335  -16.0402  -44.5694 C.3       8 UNK        -0.1800 
     34 N           1.5001  -17.4420  -45.5949 N.am      8 UNK        -0.5000 
     35 C           2.0469  -18.3926  -46.3661 C.2       7 UNK         0.5000 
     36 O           1.4096  -19.3211  -46.8585 O.2       7 UNK        -0.5000 
     37 CA          3.5651  -18.3118  -46.5952 C.3       7 UNK         0.1400 
     38 CB          3.8930  -17.2813  -47.6863 C.3       7 UNK        -0.1800 
     39 N           4.2910  -17.9782  -45.3702 N.am      7 UNK        -0.5000 
     40 C           4.3567  -18.7711  -44.2907 C.2       6 UNK         0.5000 
     41 O           3.8618  -19.8969  -44.2364 O.2       6 UNK        -0.5000 
     42 CA          5.0410  -18.1776  -43.0444 C.3       6 UNK         0.1400 
     43 CB          6.5591  -18.4026  -43.1009 C.3       6 UNK        -0.1800 
     44 N           4.7645  -16.7481  -42.8608 N.am      6 UNK        -0.5000 
     45 C           3.5425  -16.2346  -42.6667 C.2       5 UNK         0.5000 
     46 O           2.5154  -16.9158  -42.6449 O.2       5 UNK        -0.5000 
     47 CA          3.4484  -14.7025  -42.5407 C.3       5 UNK         0.1400 
     48 CB          3.3578  -14.0617  -43.9351 C.3       5 UNK        -0.1800 
     49 N           2.2846  -14.2808  -41.7613 N.am      5 UNK        -0.5000 
     50 C           2.0936  -14.5279  -40.4583 C.2       4 UNK         0.5000 
     51 O           2.9306  -15.0871  -39.7469 O.2       4 UNK        -0.5000 
     52 CA          0.7604  -14.0502  -39.8437 C.3       4 UNK         0.1400 
     53 CB          0.9188  -13.6480  -38.3659 C.3       4 UNK        -0.1800 
     54 N           0.1899  -12.9149  -40.5749 N.am      4 UNK        -0.5000 
     55 C          -0.7765  -12.9866  -41.4979 C.2       3 UNK         0.5000 
     56 O          -1.3026  -14.0449  -41.8484 O.2       3 UNK        -0.5000 
     57 CA         -1.2437  -11.6383  -42.0905 C.3       3 UNK         0.1400 
     58 CB         -0.0641  -10.7352  -42.5181 C.3       3 UNK        -0.1800 
     59 N          -2.2157  -11.7889  -43.1808 N.am      3 UNK        -0.5000 
     60 C          -2.0020  -12.2928  -44.4040 C.2       2 UNK         0.5000 
     61 O          -0.9042  -12.6663  -44.8269 O.2       2 UNK        -0.5000 
     62 CA         -3.2336  -12.3627  -45.3193 C.3       2 UNK         0.1400 
     63 CB         -3.6161  -10.9687  -45.8494 C.3       2 UNK        -0.1800 
     64 N          -2.9415  -13.2484  -46.4397 N.am      2 UNK        -0.5000 
     65 C          -3.8366  -13.9587  -47.1333 C.2       1 UNK         0.5000 
     66 O          -5.0521  -13.8935  -46.9285 O.2       1 UNK        -0.5000 
     67 C          -2.8478  -21.9020  -46.4055 C.2       11 UNK         0.5000 
     68 O          -3.6903  -22.6453  -46.9072 O.2       11 UNK        -0.5000 
     69 N          -2.8945  -21.4780  -45.1353 N.am      12 UNK        -0.5000 
     70 CA         -3.9114  -21.8731  -44.1612 C.3       12 UNK         0.1400 
     71 CB         -3.7550  -21.0394  -42.8810 C.3       12 UNK        -0.1800 
     72 C          -3.8767  -23.3803  -43.8500 C.2       12 UNK         0.5000 
     73 O          -4.9329  -24.0115  -43.8109 O.2       12 UNK        -0.5000 
     74 N          -2.6695  -23.9447  -43.6966 N.am      13 UNK        -0.5000 
     75 CA         -2.4388  -25.3832  -43.5261 C.3       13 UNK         0.1400 
     76 CB         -0.9616  -25.6303  -43.1860 C.3       13 UNK        -0.1800 
     77 C          -2.8663  -26.2125  -44.7549 C.2       13 UNK         0.5000 
     78 O          -3.3646  -27.3267  -44.5942 O.2       13 UNK        -0.5000 
     79 N          -2.7122  -25.6330  -45.9526 N.am      14 UNK        -0.5000 
     80 CA         -3.1858  -26.1694  -47.2301 C.3       14 UNK         0.1400 
     81 CB         -2.3275  -25.5783  -48.3628 C.3       14 UNK        -0.1800 
     82 C          -4.6871  -25.9115  -47.4893 C.2       14 UNK         0.5000 
     83 O          -5.1637  -26.2278  -48.5794 O.2       14 UNK        -0.5000 
     84 N          -5.4048  -25.3178  -46.5219 N.am      15 UNK        -0.5000 
     85 CA         -6.8287  -24.9606  -46.5630 C.3       15 UNK         0.1400 
     86 CB         -7.7049  -26.2304  -46.5683 C.3       15 UNK        -0.1800 
     87 C          -7.1780  -23.9830  -47.7066 C.2       15 UNK         0.5000 
     88 O          -8.2632  -24.0660  -48.2837 O.2       15 UNK        -0.5000 
     89 N          -6.2294  -23.0893  -48.0220 N.am      16 UNK        -0.5000 
     90 CA         -6.2406  -22.0895  -49.0921 C.3       16 UNK         0.1400 
     91 CB         -7.3896  -21.0779  -48.9057 C.3       16 UNK        -0.1800 
     92 C          -6.1968  -22.6753  -50.5190 C.2       16 UNK         0.5000 
     93 O          -6.3346  -21.9151  -51.4765 O.2       16 UNK        -0.5000 
     94 N          -5.9525  -23.9871  -50.6712 N.am      17 UNK        -0.5000 
     95 CA         -5.8103  -24.6425  -51.9776 C.3       17 UNK         0.1400 
     96 CB         -5.8227  -26.1667  -51.7938 C.3       17 UNK        -0.1800 
     97 C          -4.5380  -24.2000  -52.7265 C.2       17 UNK         0.5000 
     98 O          -4.5259  -24.1703  -53.9574 O.2       17 UNK        -0.5000 
     99 N          -3.5025  -23.8283  -51.9624 N.am      18 UNK        -0.5000 
    100 CA        -2.2304  -23.3072  -52.4580 C.3       18 UNK         0.1400 
    101 CB        -1.1741  -23.4647  -51.3529 C.3       18 UNK        -0.1800 
    102 C         -2.3069  -21.8465  -52.9501 C.2       18 UNK         0.5000 
    103 O         -1.3551  -21.3803  -53.5747 O.2       18 UNK        -0.5000 
    104 N         -3.4214  -21.1420  -52.6930 N.am      19 UNK        -0.5000 
    105 CA        -3.6232  -19.7356  -53.0673 C.3       19 UNK         0.1400 
    106 CB        -4.8563  -19.1819  -52.3372 C.3       19 UNK        -0.1800 
    107 C         -3.7331  -19.5021  -54.5893 C.2       19 UNK         0.5000 
    108 O         -3.6583  -18.3564  -55.0323 O.2       19 UNK        -0.5000 
    109 N         -3.8816  -20.5875  -55.3622 N.am      20 UNK        -0.5000 
    110 CA        -3.8198  -20.6129  -56.8241 C.3       20 UNK         0.1400 
    111 CB        -4.3839  -21.9580  -57.3090 C.3       20 UNK        -0.1800 
    112 C         -2.4001  -20.3820  -57.3912 C.2       20 UNK         0.5000 
    113 O         -2.2673  -20.1643  -58.5969 O.2       20 UNK        -0.5000 
    114 N         -1.3690  -20.4429  -56.5348 N.am      21 UNK        -0.5000 
    115 CA         0.0239  -20.1264  -56.8551 C.3       21 UNK         0.1400 
    116 CB         0.9186  -20.6989  -55.7394 C.3       21 UNK        -0.1800 
    117 C          0.2655  -18.6111  -57.0532 C.2       21 UNK         0.5000 
    118 O         -0.6764  -17.8156  -57.0579 O.2       21 UNK        -0.5000 
    119 N          1.5437  -18.2411  -57.2030 N.am      22 UNK        -0.5000 
    120 CA         2.0468  -16.8636  -57.3783 C.3       22 UNK         0.1400 
    121 C          1.7986  -16.2556  -58.7935 C.2       22 UNK         0.5000 
    122 N          1.3805  -17.0304  -59.7870 N.am      22 UNK        -0.7600 
    123 O          2.0194  -15.0667  -59.0088 O.2       22 UNK        -0.5000 
    124 C124        1.6339  -15.8802  -56.2422 C.3       23 UNK        -0.0398 
    125 S125        1.9758  -16.4984  -54.5562 S.3       23 UNK        -0.2404 
    126 C126        0.2985  -16.4806  -53.8491 C.3       23 UNK        -0.0205 
    127 H127       -4.9674  -19.0317  -48.3797 H         1 UNK         0.0600 
    128 H128       -5.8629  -17.7872  -49.2528 H         1 UNK         0.0600 
    129 H129       -6.2812  -18.1643  -47.5789 H         1 UNK         0.0600 
    130 H130       -4.7203  -15.8868  -49.4308 H         1 UNK         0.3000 
    131 H131       -3.3158  -14.2522  -49.1655 H         1 UNK         0.0600 
    132 H132       -1.6936  -16.2888  -48.5754 H         1 UNK         0.0800 
    133 H133       -1.6345  -15.5771  -47.0000 H         1 UNK         0.0800 
    134 H134        1.1432  -15.7165  -48.0336 H         1 UNK         0.0800 
    135 H135        1.7018  -14.6194  -49.2705 H         1 UNK         0.0800 
    136 H136        0.8162  -14.9074  -51.6855 H         1 UNK         0.1150 
    137 H137       -0.2386  -18.9246  -52.7607 H         1 UNK         0.1150 
    138 H138        0.2840  -17.8689  -48.6436 H         1 UNK         0.1150 
    139 H139       -0.2535  -20.6412  -51.0903 H         1 UNK         0.0800 
    140 H140        0.3213  -20.3243  -49.4783 H         1 UNK         0.0800 
    141 H141       -2.6950  -19.5220  -47.3926 H         1 UNK         0.0800 
    142 H142       -0.9974  -19.3857  -47.6192 H         1 UNK         0.0800 
    143 H143       -1.5558  -22.1737  -48.0634 H         1 UNK         0.0600 
    144 H144        0.1457  -20.7217  -46.3446 H         1 UNK         0.3000 
    145 H145        1.4573  -23.5511  -44.5773 H         1 UNK         0.0600 
    146 H146        3.5599  -22.5422  -45.4155 H         1 UNK         0.0600 
    147 H147        2.7323  -23.3972  -46.7089 H         1 UNK         0.0600 
    148 H148        2.6735  -21.6413  -46.6421 H         1 UNK         0.0600 
    149 H149        2.0298  -20.7694  -44.3728 H         1 UNK         0.3000 
    150 H150       -0.5198  -19.9851  -41.9533 H         1 UNK         0.0600 
    151 H151        1.4450  -20.8624  -40.7031 H         1 UNK         0.0600 
    152 H152        1.5112  -19.1092  -40.8181 H         1 UNK         0.0600 
    153 H153        2.5413  -20.1001  -41.8478 H         1 UNK         0.0600 
    154 H154        1.3850  -18.3054  -43.2009 H         1 UNK         0.3000 
    155 H155       -0.5050  -17.4816  -46.1303 H         1 UNK         0.0600 
    156 H156        0.2821  -15.9069  -43.6186 H         1 UNK         0.0600 
    157 H157       -1.3023  -15.9461  -44.3728 H         1 UNK         0.0600 
    158 H158        0.0502  -15.2136  -45.2206 H         1 UNK         0.0600 
    159 H159        2.1039  -16.7545  -45.1714 H         1 UNK         0.3000 
    160 H160        3.9037  -19.2923  -46.9368 H         1 UNK         0.0600 
    161 H161        3.6159  -16.2700  -47.3861 H         1 UNK         0.0600 
    162 H162        3.3587  -17.5078  -48.6103 H         1 UNK         0.0600 
    163 H163        4.9577  -17.2814  -47.9201 H         1 UNK         0.0600 
    164 H164        4.7314  -17.0713  -45.3292 H         1 UNK         0.3000 
    165 H165        4.6506  -18.7061  -42.1723 H         1 UNK         0.0600 
    166 H166        7.0422  -18.0660  -42.1834 H         1 UNK         0.0600 
    167 H167        6.7922  -19.4617  -43.2192 H         1 UNK         0.0600 
    168 H168        7.0158  -17.8705  -43.9364 H         1 UNK         0.0600 
    169 H169        5.5624  -16.1291  -42.8767 H         1 UNK         0.3000 
    170 H170        4.3464  -14.3369  -42.0386 H         1 UNK         0.0600 
    171 H171        4.2178  -14.3295  -44.5501 H         1 UNK         0.0600 
    172 H172        2.4604  -14.3788  -44.4680 H         1 UNK         0.0600 
    173 H173        3.3369  -12.9738  -43.8673 H         1 UNK         0.0600 
    174 H174        1.5323  -13.8452  -42.2731 H         1 UNK         0.3000 
    175 H175        0.0759  -14.9000  -39.8833 H         1 UNK         0.0600 
    176 H176        1.6379  -12.8370  -38.2446 H         1 UNK         0.0600 
    177 H177       -0.0311  -13.3202  -37.9432 H         1 UNK         0.0600 
    178 H178        1.2645  -14.4883  -37.7624 H         1 UNK         0.0600 
    179 H179        0.5820  -12.0103  -40.3547 H         1 UNK         0.3000 
    180 H180       -1.7785  -11.1247  -41.2904 H         1 UNK         0.0600 
    181 H181       -0.4198   -9.8324  -43.0148 H         1 UNK         0.0600 
    182 H182        0.6149  -11.2460  -43.2016 H         1 UNK         0.0600 
    183 H183        0.5226  -10.4121  -41.6580 H         1 UNK         0.0600 
    184 H184       -3.1626  -11.5340  -42.9379 H         1 UNK         0.3000 
    185 H185       -4.0616  -12.7749  -44.7386 H         1 UNK         0.0600 
    186 H186       -4.5011  -11.0155  -46.4842 H         1 UNK         0.0600 
    187 H187       -3.8421  -10.2830  -45.0321 H         1 UNK         0.0600 
    188 H188       -2.8078  -10.5282  -46.4345 H         1 UNK         0.0600 
    189 H189       -1.9514  -13.3552  -46.6301 H         1 UNK         0.3000 
    190 H190       -2.1947  -20.8106  -44.8183 H         1 UNK         0.3000 
    191 H191       -4.8880  -21.6471  -44.5943 H         1 UNK         0.0600 
    192 H192       -4.5294  -21.2902  -42.1551 H         1 UNK         0.0600 
    193 H193       -3.8397  -19.9734  -43.0934 H         1 UNK         0.0600 
    194 H194       -2.7901  -21.2081  -42.4033 H         1 UNK         0.0600 
    195 H195       -1.8481  -23.3467  -43.6897 H         1 UNK         0.3000 
    196 H196       -3.0413  -25.7165  -42.6787 H         1 UNK         0.0600 
    197 H197       -0.3029  -25.3119  -43.9936 H         1 UNK         0.0600 
    198 H198       -0.6691  -25.0921  -42.2842 H         1 UNK         0.0600 
    199 H199       -0.7742  -26.6900  -43.0084 H         1 UNK         0.0600 
    200 H200       -2.2313  -24.7408  -45.9950 H         1 UNK         0.3000 
    201 H201       -3.0427  -27.2516  -47.2294 H         1 UNK         0.0600 
    202 H202       -2.4545  -24.4989  -48.4429 H         1 UNK         0.0600 
    203 H203       -2.5921  -26.0122  -49.3278 H         1 UNK         0.0600 
    204 H204       -1.2682  -25.7774  -48.2000 H         1 UNK         0.0600 
    205 H205       -4.9244  -25.0508  -45.6710 H         1 UNK         0.3000 
    206 H206       -7.0340  -24.4234  -45.6363 H         1 UNK         0.0600 
    207 H207       -7.4418  -26.8933  -45.7440 H         1 UNK         0.0600 
    208 H208       -8.7601  -25.9788  -46.4561 H         1 UNK         0.0600 
    209 H209       -7.5996  -26.7917  -47.4972 H         1 UNK         0.0600 
    210 H210       -5.3585  -23.1171  -47.4933 H         1 UNK         0.3000 
    211 H211       -5.3062  -21.5376  -48.9797 H         1 UNK         0.0600 
    212 H212       -7.2922  -20.2436  -49.6013 H         1 UNK         0.0600 
    213 H213       -7.3874  -20.6602  -47.8990 H         1 UNK         0.0600 
    214 H214       -8.3649  -21.5324  -49.0803 H         1 UNK         0.0600 
    215 H215       -5.8461  -24.5738  -49.8515 H         1 UNK         0.3000 
    216 H216       -6.6709  -24.3668  -52.5907 H         1 UNK         0.0600 
    217 H217       -4.9518  -26.5122  -51.2357 H         1 UNK         0.0600 
    218 H218       -5.8144  -26.6748  -52.7588 H         1 UNK         0.0600 
    219 H219       -6.7152  -26.4944  -51.2601 H         1 UNK         0.0600 
    220 H220       -3.6107  -23.8825  -50.9608 H         1 UNK         0.3000 
    221 H221       -1.9178  -23.9135  -53.3108 H         1 UNK         0.0600 
    222 H222       -1.0424  -24.5122  -51.0817 H         1 UNK         0.0600 
    223 H223       -1.4495  -22.9195  -50.4505 H         1 UNK         0.0600 
    224 H224       -0.2024  -23.0931  -51.6806 H         1 UNK         0.0600 
    225 H225       -4.1868  -21.5895  -52.2066 H         1 UNK         0.3000 
    226 H226       -2.7532  -19.1754  -52.7195 H         1 UNK         0.0600 
    227 H227       -5.7762  -19.6428  -52.6976 H         1 UNK         0.0600 
    228 H228       -4.7912  -19.3505  -51.2620 H         1 UNK         0.0600 
    229 H229       -4.9490  -18.1064  -52.4915 H         1 UNK         0.0600 
    230 H230       -3.9502  -21.4841  -54.9020 H         1 UNK         0.3000 
    231 H231       -4.4571  -19.8137  -57.2075 H         1 UNK         0.0600 
    232 H232       -3.7918  -22.7973  -56.9417 H         1 UNK         0.0600 
    233 H233       -4.3906  -22.0115  -58.3984 H         1 UNK         0.0600 
    234 H234       -5.4110  -22.0999  -56.9720 H         1 UNK         0.0600 
    235 H235       -1.5618  -20.6340  -55.5587 H         1 UNK         0.3000 
    236 H236        0.2790  -20.6266  -57.7913 H         1 UNK         0.0600 
    237 H237        0.6936  -21.7491  -55.5519 H         1 UNK         0.0600 
    238 H238        1.9752  -20.6443  -56.0020 H         1 UNK         0.0600 
    239 H239        0.7846  -20.1570  -54.8021 H         1 UNK         0.0600 
    240 H240        2.2561  -18.9565  -57.1897 H         1 UNK         0.3000 
    241 H241        3.1313  -16.9611  -57.3202 H         1 UNK         0.0600 
    242 H242        1.2339  -16.6304  -60.7008 H         1 UNK         0.3800 
    243 H243        1.1994  -18.0093  -59.6333 H         1 UNK         0.3800 
    244 H244        0.5787  -15.6193  -56.3333 H         1 UNK         0.0800 
    245 H245        2.1763  -14.9395  -56.3493 H         1 UNK         0.0800 
    246 H246       -0.1298  -15.4825  -53.9534 H         1 UNK         0.0800 
    247 H247       -0.3459  -17.1528  -54.4176 H         1 UNK         0.0800 
@<TRIPOS>BOND
     1    1    2 1    
     2    1  127 1    
     3    1  128 1    
     4    1  129 1    
     5    2    3 2    
     6    2    4 am   BACKBONE|DICT|INTERRES
     7    4    5 1    
     8    4  130 1    
     9    5    6 1    
    10    5   65 1    
    11    5  131 1    
    12    6    7 1    
    13    6  132 1    
    14    6  133 1    
    15    7    8 1    
    16    8    9 1    
    17    8  134 1    
    18    8  135 1    
    19    9   10 ar   
    20    9   14 ar   
    21   10   11 ar   
    22   10  136 1    
    23   11   12 ar   
    24   11  126 1    
    25   12   13 ar   
    26   12  137 1    
    27   13   14 ar   
    28   13   15 1    
    29   14  138 1    
    30   15   16 1    
    31   15  139 1    
    32   15  140 1    
    33   16   17 1    
    34   17   18 1    
    35   17  141 1    
    36   17  142 1    
    37   18   19 1    
    38   18   67 1    
    39   18  143 1    
    40   19   20 am   BACKBONE|DICT|INTERRES
    41   19  144 1    
    42   20   21 2    
    43   20   22 1    
    44   22   23 1    
    45   22   24 1    
    46   22  145 1    
    47   23  146 1    
    48   23  147 1    
    49   23  148 1    
    50   24   25 am   BACKBONE|DICT|INTERRES
    51   24  149 1    
    52   25   26 2    
    53   25   27 1    
    54   27   28 1    
    55   27   29 1    
    56   27  150 1    
    57   28  151 1    
    58   28  152 1    
    59   28  153 1    
    60   29   30 am   BACKBONE|DICT|INTERRES
    61   29  154 1    
    62   30   31 2    
    63   30   32 1    
    64   32   33 1    
    65   32   34 1    
    66   32  155 1    
    67   33  156 1    
    68   33  157 1    
    69   33  158 1    
    70   34   35 am   BACKBONE|DICT|INTERRES
    71   34  159 1    
    72   35   36 2    
    73   35   37 1    
    74   37   38 1    
    75   37   39 1    
    76   37  160 1    
    77   38  161 1    
    78   38  162 1    
    79   38  163 1    
    80   39   40 am   BACKBONE|DICT|INTERRES
    81   39  164 1    
    82   40   41 2    
    83   40   42 1    
    84   42   43 1    
    85   42   44 1    
    86   42  165 1    
    87   43  166 1    
    88   43  167 1    
    89   43  168 1    
    90   44   45 am   BACKBONE|DICT|INTERRES
    91   44  169 1    
    92   45   46 2    
    93   45   47 1    
    94   47   48 1    
    95   47   49 1    
    96   47  170 1    
    97   48  171 1    
    98   48  172 1    
    99   48  173 1    
   100   49   50 am   BACKBONE|DICT|INTERRES
   101   49  174 1    
   102   50   51 2    
   103   50   52 1    
   104   52   53 1    
   105   52   54 1    
   106   52  175 1    
   107   53  176 1    
   108   53  177 1    
   109   53  178 1    
   110   54   55 am   BACKBONE|DICT|INTERRES
   111   54  179 1    
   112   55   56 2    
   113   55   57 1    
   114   57   58 1    
   115   57   59 1    
   116   57  180 1    
   117   58  181 1    
   118   58  182 1    
   119   58  183 1    
   120   59   60 am   BACKBONE|DICT|INTERRES
   121   59  184 1    
   122   60   61 2    
   123   60   62 1    
   124   62   63 1    
   125   62   64 1    
   126   62  185 1    
   127   63  186 1    
   128   63  187 1    
   129   63  188 1    
   130   64   65 am   BACKBONE|DICT|INTERRES
   131   64  189 1    
   132   65   66 2    
   133   67   68 2    
   134   67   69 am   BACKBONE|DICT|INTERRES
   135   69   70 1    
   136   69  190 1    
   137   70   71 1    
   138   70   72 1    
   139   70  191 1    
   140   71  192 1    
   141   71  193 1    
   142   71  194 1    
   143   72   73 2    
   144   72   74 am   BACKBONE|DICT|INTERRES
   145   74   75 1    
   146   74  195 1    
   147   75   76 1    
   148   75   77 1    
   149   75  196 1    
   150   76  197 1    
   151   76  198 1    
   152   76  199 1    
   153   77   78 2    
   154   77   79 am   BACKBONE|DICT|INTERRES
   155   79   80 1    
   156   79  200 1    
   157   80   81 1    
   158   80   82 1    
   159   80  201 1    
   160   81  202 1    
   161   81  203 1    
   162   81  204 1    
   163   82   83 2    
   164   82   84 am   BACKBONE|DICT|INTERRES
   165   84   85 1    
   166   84  205 1    
   167   85   86 1    
   168   85   87 1    
   169   85  206 1    
   170   86  207 1    
   171   86  208 1    
   172   86  209 1    
   173   87   88 2    
   174   87   89 am   BACKBONE|DICT|INTERRES
   175   89   90 1    
   176   89  210 1    
   177   90   91 1    
   178   90   92 1    
   179   90  211 1    
   180   91  212 1    
   181   91  213 1    
   182   91  214 1    
   183   92   93 2    
   184   92   94 am   BACKBONE|DICT|INTERRES
   185   94   95 1    
   186   94  215 1    
   187   95   96 1    
   188   95   97 1    
   189   95  216 1    
   190   96  217 1    
   191   96  218 1    
   192   96  219 1    
   193   97   98 2    
   194   97   99 am   BACKBONE|DICT|INTERRES
   195   99  100 1    
   196   99  220 1    
   197  100  101 1    
   198  100  102 1    
   199  100  221 1    
   200  101  222 1    
   201  101  223 1    
   202  101  224 1    
   203  102  103 2    
   204  102  104 am   BACKBONE|DICT|INTERRES
   205  104  105 1    
   206  104  225 1    
   207  105  106 1    
   208  105  107 1    
   209  105  226 1    
   210  106  227 1    
   211  106  228 1    
   212  106  229 1    
   213  107  108 2    
   214  107  109 am   BACKBONE|DICT|INTERRES
   215  109  110 1    
   216  109  230 1    
   217  110  111 1    
   218  110  112 1    
   219  110  231 1    
   220  111  232 1    
   221  111  233 1    
   222  111  234 1    
   223  112  113 2    
   224  112  114 am   BACKBONE|DICT|INTERRES
   225  114  115 1    
   226  114  235 1    
   227  115  116 1    
   228  115  117 1    
   229  115  236 1    
   230  116  237 1    
   231  116  238 1    
   232  116  239 1    
   233  117  118 2    
   234  117  119 am   BACKBONE|DICT|INTERRES
   235  119  120 1    
   236  119  240 1    
   237  120  121 1    
   238  120  124 1    
   239  120  241 1    
   240  121  122 am   BACKBONE|DICT|INTERRES
   241  121  123 2    
   242  122  242 1    
   243  122  243 1    
   244  124  125 1    
   245  124  244 1    
   246  124  245 1    
   247  125  126 1    
   248  126  246 1    
   249  126  247 1    
@<TRIPOS>SUBSTRUCTURE
     1 UNK         1 GROUP             0       ****    0 ROOT    
