@<TRIPOS>MOLECULE
3R540
247   249    1
SMALL
USER_CHARGES


@<TRIPOS>ATOM
      1 CA         -3.6420  -15.9721  -46.1588 C.3       0 UNK        -0.1800 
      2 C          -2.7421  -14.7513  -46.2810 C.2       0 UNK         0.5000 
      3 O          -1.5937  -14.7953  -45.8457 O.2       0 UNK        -0.5000 
      4 N          -3.2543  -13.6608  -46.8669 N.am      1 UNK        -0.5000 
      5 CA         -2.5880  -12.3684  -47.1132 C.3       1 UNK         0.1400 
      6 C6         -1.2854  -12.4528  -47.9630 C.3       23 UNK        -0.0398 
      7 S7         -1.4868  -13.3958  -49.5143 S.3       23 UNK        -0.2404 
      8 C8         -0.3818  -14.8126  -49.2091 C.3       23 UNK        -0.0205 
      9 C9         -0.7814  -16.0111  -50.0523 C.ar      23 UNK        -0.0193 
     10 C10        -0.1460  -16.2681  -51.2710 C.ar      23 UNK        -0.1150 
     11 C11        -0.5314  -17.3612  -52.0530 C.ar      23 UNK        -0.0193 
     12 C12        -1.5580  -18.1955  -51.6048 C.ar      23 UNK        -0.1150 
     13 C13        -2.1890  -17.9612  -50.3800 C.ar      23 UNK        -0.0193 
     14 C14        -1.7947  -16.8661  -49.6082 C.ar      23 UNK        -0.1150 
     15 C15        -3.3177  -18.8700  -49.9131 C.3       23 UNK        -0.0205 
     16 S16        -2.8213  -20.6199  -49.8736 S.3       23 UNK        -0.2404 
     17 C17        -1.8931  -20.7432  -48.3104 C.3       23 UNK        -0.0398 
     18 CA         -2.4666  -21.8521  -47.3940 C.3       11 UNK         0.1400 
     19 N          -1.5274  -22.2537  -46.3453 N.am      11 UNK        -0.5000 
     20 C          -1.6524  -23.3583  -45.5945 C.2       10 UNK         0.5000 
     21 O          -2.5514  -24.1865  -45.7387 O.2       10 UNK        -0.5000 
     22 CA         -0.6231  -23.5474  -44.4645 C.3       10 UNK         0.1400 
     23 CB          0.6538  -24.2098  -45.0023 C.3       10 UNK        -0.1800 
     24 N          -0.2781  -22.2866  -43.8046 N.am      10 UNK        -0.5000 
     25 C          -1.1383  -21.5567  -43.0798 C.2       9 UNK         0.5000 
     26 O          -2.2921  -21.9059  -42.8399 O.2       9 UNK        -0.5000 
     27 CA         -0.6560  -20.1757  -42.6001 C.3       9 UNK         0.1400 
     28 CB          0.0191  -20.2737  -41.2250 C.3       9 UNK        -0.1800 
     29 N           0.2536  -19.5156  -43.5401 N.am      9 UNK        -0.5000 
     30 C          -0.0478  -19.1908  -44.8056 C.2       8 UNK         0.5000 
     31 O          -1.1530  -19.3984  -45.3089 O.2       8 UNK        -0.5000 
     32 CA          1.0752  -18.5697  -45.6545 C.3       8 UNK         0.1400 
     33 CB          0.5508  -17.4686  -46.5890 C.3       8 UNK        -0.1800 
     34 N           2.1378  -18.0114  -44.8185 N.am      8 UNK        -0.5000 
     35 C           3.4190  -18.3978  -44.8136 C.2       7 UNK         0.5000 
     36 O           3.8521  -19.3594  -45.4506 O.2       7 UNK        -0.5000 
     37 CA          4.3632  -17.5262  -43.9587 C.3       7 UNK         0.1400 
     38 CB          5.8590  -17.8147  -44.2022 C.3       7 UNK        -0.1800 
     39 N           4.0615  -16.0984  -44.1180 N.am      7 UNK        -0.5000 
     40 C           4.1261  -15.3719  -45.2460 C.2       6 UNK         0.5000 
     41 O           4.5749  -15.7898  -46.3138 O.2       6 UNK        -0.5000 
     42 CA          3.5648  -13.9382  -45.1840 C.3       6 UNK         0.1400 
     43 CB          2.1686  -13.8862  -45.8294 C.3       6 UNK        -0.1800 
     44 N           3.4684  -13.4089  -43.8239 N.am      6 UNK        -0.5000 
     45 C           4.5012  -13.0333  -43.0581 C.2       5 UNK         0.5000 
     46 O           5.6773  -13.0799  -43.4195 O.2       5 UNK        -0.5000 
     47 CA          4.1552  -12.5384  -41.6444 C.3       5 UNK         0.1400 
     48 CB          3.7476  -11.0569  -41.6776 C.3       5 UNK        -0.1800 
     49 N           3.0658  -13.3226  -41.0613 N.am      5 UNK        -0.5000 
     50 C           3.2308  -14.4161  -40.3067 C.2       4 UNK         0.5000 
     51 O           4.3317  -14.8693  -39.9922 O.2       4 UNK        -0.5000 
     52 CA          1.9547  -15.1287  -39.8159 C.3       4 UNK         0.1400 
     53 CB          1.5346  -14.5883  -38.4406 C.3       4 UNK        -0.1800 
     54 N           0.8241  -15.0119  -40.7390 N.am      4 UNK        -0.5000 
     55 C           0.7438  -15.6428  -41.9167 C.2       3 UNK         0.5000 
     56 O           1.6203  -16.3839  -42.3644 O.2       3 UNK        -0.5000 
     57 CA         -0.5215  -15.3973  -42.7561 C.3       3 UNK         0.1400 
     58 CB         -1.6594  -16.3178  -42.2940 C.3       3 UNK        -0.1800 
     59 N          -1.0259  -14.0203  -42.8352 N.am      3 UNK        -0.5000 
     60 C          -0.3155  -12.8995  -43.0269 C.2       2 UNK         0.5000 
     61 O           0.9033  -12.8173  -42.8827 O.2       2 UNK        -0.5000 
     62 CA         -1.0989  -11.7152  -43.6098 C.3       2 UNK         0.1400 
     63 CB         -0.2463  -10.4332  -43.7190 C.3       2 UNK        -0.1800 
     64 N          -1.5346  -12.1720  -44.9235 N.am      2 UNK        -0.5000 
     65 C          -2.3405  -11.5801  -45.8068 C.2       1 UNK         0.5000 
     66 O          -2.8844  -10.4897  -45.6284 O.2       1 UNK        -0.5000 
     67 C          -3.8289  -21.4613  -46.7907 C.2       11 UNK         0.5000 
     68 O          -4.8634  -21.9328  -47.2641 O.2       11 UNK        -0.5000 
     69 N          -3.7960  -20.6537  -45.7216 N.am      12 UNK        -0.5000 
     70 CA         -4.9753  -20.2407  -44.9612 C.3       12 UNK         0.1400 
     71 CB         -4.5547  -19.2235  -43.8890 C.3       12 UNK        -0.1800 
     72 C          -5.7304  -21.4270  -44.3276 C.2       12 UNK         0.5000 
     73 O          -6.9621  -21.4331  -44.3310 O.2       12 UNK        -0.5000 
     74 N          -4.9808  -22.4075  -43.8071 N.am      13 UNK        -0.5000 
     75 CA         -5.5159  -23.6031  -43.1645 C.3       13 UNK         0.1400 
     76 CB         -4.4414  -24.2206  -42.2555 C.3       13 UNK        -0.1800 
     77 C          -6.0408  -24.6559  -44.1557 C.2       13 UNK         0.5000 
     78 O          -7.1299  -25.1872  -43.9324 O.2       13 UNK        -0.5000 
     79 N          -5.2511  -24.9874  -45.1884 N.am      14 UNK        -0.5000 
     80 CA         -5.4376  -26.2140  -45.9691 C.3       14 UNK         0.1400 
     81 CB         -4.6791  -27.3641  -45.2752 C.3       14 UNK        -0.1800 
     82 C          -5.0536  -26.0802  -47.4541 C.2       14 UNK         0.5000 
     83 O          -4.7615  -27.0974  -48.0860 O.2       14 UNK        -0.5000 
     84 N          -5.0635  -24.8567  -48.0042 N.am      15 UNK        -0.5000 
     85 CA         -4.8286  -24.4884  -49.4132 C.3       15 UNK         0.1400 
     86 CB         -5.8427  -25.1741  -50.3499 C.3       15 UNK        -0.1800 
     87 C          -3.3842  -24.6875  -49.9196 C.2       15 UNK         0.5000 
     88 O          -2.8896  -23.8362  -50.6586 O.2       15 UNK        -0.5000 
     89 N          -2.7361  -25.7878  -49.5112 N.am      16 UNK        -0.5000 
     90 CA         -1.3111  -26.1186  -49.6496 C.3       16 UNK         0.1400 
     91 CB         -0.4990  -25.2824  -48.6401 C.3       16 UNK        -0.1800 
     92 C          -0.7472  -26.0115  -51.0842 C.2       16 UNK         0.5000 
     93 O           0.4257  -25.6772  -51.2563 O.2       16 UNK        -0.5000 
     94 N          -1.6051  -26.2389  -52.0902 N.am      17 UNK        -0.5000 
     95 CA         -1.4071  -26.0517  -53.5372 C.3       17 UNK         0.1400 
     96 CB         -0.2727  -26.9447  -54.0739 C.3       17 UNK        -0.1800 
     97 C          -1.2180  -24.5839  -53.9841 C.2       17 UNK         0.5000 
     98 O          -1.6083  -24.2451  -55.1014 O.2       17 UNK        -0.5000 
     99 N          -0.6683  -23.7292  -53.1118 N.am      18 UNK        -0.5000 
    100 CA        -0.4391  -22.2973  -53.3093 C.3       18 UNK         0.1400 
    101 CB         0.2332  -21.7216  -52.0543 C.3       18 UNK        -0.1800 
    102 C         -1.7131  -21.5055  -53.6507 C.2       18 UNK         0.5000 
    103 O         -1.6423  -20.5556  -54.4316 O.2       18 UNK        -0.5000 
    104 N         -2.8635  -21.9326  -53.1122 N.am      19 UNK        -0.5000 
    105 CA        -4.1772  -21.3576  -53.4082 C.3       19 UNK         0.1400 
    106 CB        -5.2414  -22.0481  -52.5458 C.3       19 UNK        -0.1800 
    107 C         -4.5650  -21.4470  -54.8976 C.2       19 UNK         0.5000 
    108 O         -5.2336  -20.5451  -55.4006 O.2       19 UNK        -0.5000 
    109 N         -4.1157  -22.5051  -55.5881 N.am      20 UNK        -0.5000 
    110 CA        -4.3263  -22.6897  -57.0246 C.3       20 UNK         0.1400 
    111 CB        -4.1756  -24.1781  -57.3755 C.3       20 UNK        -0.1800 
    112 C         -3.3740  -21.8292  -57.8772 C.2       20 UNK         0.5000 
    113 O         -3.7069  -21.5240  -59.0229 O.2       20 UNK        -0.5000 
    114 N         -2.2168  -21.4525  -57.3148 N.am      21 UNK        -0.5000 
    115 CA        -1.2322  -20.5846  -57.9569 C.3       21 UNK         0.1400 
    116 CB         0.1581  -20.8305  -57.3475 C.3       21 UNK        -0.1800 
    117 C         -1.6368  -19.1049  -57.8498 C.2       21 UNK         0.5000 
    118 O         -1.6444  -18.4067  -58.8649 O.2       21 UNK        -0.5000 
    119 N         -1.9732  -18.6578  -56.6324 N.am      22 UNK        -0.5000 
    120 CA        -2.4195  -17.2805  -56.3604 C.3       22 UNK         0.1400 
    121 C         -3.9118  -17.0089  -56.7057 C.2       22 UNK         0.5000 
    122 N         -4.7815  -18.0071  -56.7861 N.am      22 UNK        -0.7600 
    123 O         -4.2882  -15.8601  -56.9212 O.2       22 UNK        -0.5000 
    124 C124       -2.0952  -16.8401  -54.9110 C.3       23 UNK        -0.0398 
    125 S125       -0.3172  -16.4865  -54.6855 S.3       23 UNK        -0.2404 
    126 C126        0.1665  -17.6510  -53.3744 C.3       23 UNK        -0.0205 
    127 H127       -4.4469  -15.9525  -46.8937 H         1 UNK         0.0600 
    128 H128       -4.0829  -16.0113  -45.1631 H         1 UNK         0.0600 
    129 H129       -3.0644  -16.8844  -46.3118 H         1 UNK         0.0600 
    130 H130       -4.2138  -13.6964  -47.1812 H         1 UNK         0.3000 
    131 H131       -3.3063  -11.7856  -47.6922 H         1 UNK         0.0600 
    132 H132       -0.9559  -11.4481  -48.2327 H         1 UNK         0.0800 
    133 H133       -0.4659  -12.8829  -47.3855 H         1 UNK         0.0800 
    134 H134        0.6478  -14.5194  -49.4194 H         1 UNK         0.0800 
    135 H135       -0.4077  -15.0963  -48.1576 H         1 UNK         0.0800 
    136 H136        0.6409  -15.6130  -51.6177 H         1 UNK         0.1150 
    137 H137       -1.8682  -19.0356  -52.2074 H         1 UNK         0.1150 
    138 H138       -2.2844  -16.6669  -48.6666 H         1 UNK         0.1150 
    139 H139       -3.6910  -18.5727  -48.9317 H         1 UNK         0.0800 
    140 H140       -4.1537  -18.7637  -50.6055 H         1 UNK         0.0800 
    141 H141       -0.8595  -20.9735  -48.5712 H         1 UNK         0.0800 
    142 H142       -1.8694  -19.7762  -47.8065 H         1 UNK         0.0800 
    143 H143       -2.6282  -22.7371  -48.0098 H         1 UNK         0.0600 
    144 H144       -0.8069  -21.5878  -46.1096 H         1 UNK         0.3000 
    145 H145       -1.0651  -24.2117  -43.7187 H         1 UNK         0.0600 
    146 H146        1.3688  -24.3964  -44.2008 H         1 UNK         0.0600 
    147 H147        0.4285  -25.1719  -45.4641 H         1 UNK         0.0600 
    148 H148        1.1453  -23.5915  -45.7545 H         1 UNK         0.0600 
    149 H149        0.6551  -21.9310  -43.9503 H         1 UNK         0.3000 
    150 H150       -1.5446  -19.5515  -42.5007 H         1 UNK         0.0600 
    151 H151       -0.6455  -20.7397  -40.4962 H         1 UNK         0.0600 
    152 H152        0.2783  -19.2860  -40.8425 H         1 UNK         0.0600 
    153 H153        0.9321  -20.8690  -41.2657 H         1 UNK         0.0600 
    154 H154        1.1820  -19.3058  -43.2039 H         1 UNK         0.3000 
    155 H155        1.4656  -19.3765  -46.2772 H         1 UNK         0.0600 
    156 H156        1.3469  -17.0782  -47.2233 H         1 UNK         0.0600 
    157 H157        0.1395  -16.6357  -46.0229 H         1 UNK         0.0600 
    158 H158       -0.2337  -17.8417  -47.2480 H         1 UNK         0.0600 
    159 H159        1.8760  -17.2520  -44.1984 H         1 UNK         0.3000 
    160 H160        4.1464  -17.7701  -42.9177 H         1 UNK         0.0600 
    161 H161        6.1410  -17.6606  -45.2440 H         1 UNK         0.0600 
    162 H162        6.1016  -18.8473  -43.9492 H         1 UNK         0.0600 
    163 H163        6.4886  -17.1730  -43.5857 H         1 UNK         0.0600 
    164 H164        3.6303  -15.6611  -43.3145 H         1 UNK         0.3000 
    165 H165        4.2349  -13.2943  -45.7571 H         1 UNK         0.0600 
    166 H166        1.4537  -14.5105  -45.2923 H         1 UNK         0.0600 
    167 H167        1.7772  -12.8688  -45.8436 H         1 UNK         0.0600 
    168 H168        2.1980  -14.2379  -46.8615 H         1 UNK         0.0600 
    169 H169        2.5278  -13.2823  -43.4552 H         1 UNK         0.3000 
    170 H170        5.0503  -12.6281  -41.0251 H         1 UNK         0.0600 
    171 H171        4.5455  -10.4420  -42.0957 H         1 UNK         0.0600 
    172 H172        2.8558  -10.8951  -42.2846 H         1 UNK         0.0600 
    173 H173        3.5410  -10.6838  -40.6744 H         1 UNK         0.0600 
    174 H174        2.1271  -13.0647  -41.3468 H         1 UNK         0.3000 
    175 H175        2.1937  -16.1887  -39.7045 H         1 UNK         0.0600 
    176 H176        1.2610  -13.5335  -38.4891 H         1 UNK         0.0600 
    177 H177        0.6818  -15.1393  -38.0438 H         1 UNK         0.0600 
    178 H178        2.3464  -14.6841  -37.7183 H         1 UNK         0.0600 
    179 H179        0.0661  -14.4045  -40.4640 H         1 UNK         0.3000 
    180 H180       -0.2615  -15.6879  -43.7745 H         1 UNK         0.0600 
    181 H181       -2.0851  -15.9864  -41.3463 H         1 UNK         0.0600 
    182 H182       -1.3038  -17.3365  -42.1515 H         1 UNK         0.0600 
    183 H183       -2.4613  -16.3548  -43.0316 H         1 UNK         0.0600 
    184 H184       -2.0224  -13.9509  -42.9801 H         1 UNK         0.3000 
    185 H185       -1.9697  -11.5246  -42.9803 H         1 UNK         0.0600 
    186 H186       -0.8320   -9.5926  -44.0901 H         1 UNK         0.0600 
    187 H187        0.6030  -10.5710  -44.3894 H         1 UNK         0.0600 
    188 H188        0.1477  -10.1442  -42.7439 H         1 UNK         0.0600 
    189 H189       -1.2294  -13.1150  -45.1621 H         1 UNK         0.3000 
    190 H190       -2.8985  -20.2911  -45.4134 H         1 UNK         0.3000 
    191 H191       -5.6559  -19.7434  -45.6553 H         1 UNK         0.0600 
    192 H192       -4.0185  -18.3825  -44.3280 H         1 UNK         0.0600 
    193 H193       -5.4262  -18.8218  -43.3709 H         1 UNK         0.0600 
    194 H194       -3.9072  -19.6751  -43.1377 H         1 UNK         0.0600 
    195 H195       -3.9732  -22.2876  -43.7735 H         1 UNK         0.3000 
    196 H196       -6.3513  -23.3035  -42.5278 H         1 UNK         0.0600 
    197 H197       -4.8153  -25.1167  -41.7585 H         1 UNK         0.0600 
    198 H198       -4.1358  -23.5216  -41.4767 H         1 UNK         0.0600 
    199 H199       -3.5511  -24.5040  -42.8185 H         1 UNK         0.0600 
    200 H200       -4.3559  -24.5190  -45.3140 H         1 UNK         0.3000 
    201 H201       -6.4971  -26.4766  -45.9854 H         1 UNK         0.0600 
    202 H202       -5.0113  -27.4947  -44.2452 H         1 UNK         0.0600 
    203 H203       -3.6048  -27.1760  -45.2588 H         1 UNK         0.0600 
    204 H204       -4.8414  -28.3151  -45.7837 H         1 UNK         0.0600 
    205 H205       -5.2618  -24.0685  -47.3981 H         1 UNK         0.3000 
    206 H206       -5.0195  -23.4161  -49.4682 H         1 UNK         0.0600 
    207 H207       -6.8665  -24.9343  -50.0632 H         1 UNK         0.0600 
    208 H208       -5.7096  -24.8467  -51.3798 H         1 UNK         0.0600 
    209 H209       -5.7393  -26.2590  -50.3488 H         1 UNK         0.0600 
    210 H210       -3.2861  -26.4394  -48.9555 H         1 UNK         0.3000 
    211 H211       -1.2119  -27.1674  -49.3671 H         1 UNK         0.0600 
    212 H212       -0.5496  -24.2166  -48.8667 H         1 UNK         0.0600 
    213 H213        0.5528  -25.5707  -48.6358 H         1 UNK         0.0600 
    214 H214       -0.8737  -25.4291  -47.6280 H         1 UNK         0.0600 
    215 H215       -2.5511  -26.4697  -51.8212 H         1 UNK         0.3000 
    216 H216       -2.3341  -26.3911  -54.0020 H         1 UNK         0.0600 
    217 H217       -0.4302  -27.9886  -53.8029 H         1 UNK         0.0600 
    218 H218        0.7028  -26.6414  -53.6934 H         1 UNK         0.0600 
    219 H219       -0.2240  -26.8953  -55.1624 H         1 UNK         0.0600 
    220 H220       -0.3533  -24.1189  -52.2310 H         1 UNK         0.3000 
    221 H221        0.2478  -22.1871  -54.1505 H         1 UNK         0.0600 
    222 H222       -0.3808  -21.8760  -51.1664 H         1 UNK         0.0600 
    223 H223        1.2007  -22.1908  -51.8758 H         1 UNK         0.0600 
    224 H224        0.4049  -20.6492  -52.1536 H         1 UNK         0.0600 
    225 H225       -2.8304  -22.6818  -52.4281 H         1 UNK         0.3000 
    226 H226       -4.1440  -20.3011  -53.1343 H         1 UNK         0.0600 
    227 H227       -5.0102  -21.9638  -51.4845 H         1 UNK         0.0600 
    228 H228       -6.2228  -21.5985  -52.7011 H         1 UNK         0.0600 
    229 H229       -5.3211  -23.1058  -52.7938 H         1 UNK         0.0600 
    230 H230       -3.5139  -23.1776  -55.1285 H         1 UNK         0.3000 
    231 H231       -5.3484  -22.3917  -57.2684 H         1 UNK         0.0600 
    232 H232       -4.4143  -24.3548  -58.4250 H         1 UNK         0.0600 
    233 H233       -4.8489  -24.7954  -56.7808 H         1 UNK         0.0600 
    234 H234       -3.1583  -24.5330  -57.2102 H         1 UNK         0.0600 
    235 H235       -2.0368  -21.7118  -56.3546 H         1 UNK         0.3000 
    236 H236       -1.1761  -20.8427  -59.0168 H         1 UNK         0.0600 
    237 H237        0.4464  -21.8782  -57.4339 H         1 UNK         0.0600 
    238 H238        0.9158  -20.2407  -57.8647 H         1 UNK         0.0600 
    239 H239        0.2004  -20.5581  -56.2933 H         1 UNK         0.0600 
    240 H240       -1.9226  -19.2922  -55.8398 H         1 UNK         0.3000 
    241 H241       -1.8594  -16.6171  -57.0230 H         1 UNK         0.0600 
    242 H242       -5.7391  -17.7990  -57.0193 H         1 UNK         0.3800 
    243 H243       -4.5382  -18.9528  -56.5209 H         1 UNK         0.3800 
    244 H244       -2.4355  -17.5963  -54.2034 H         1 UNK         0.0800 
    245 H245       -2.6262  -15.9230  -54.6491 H         1 UNK         0.0800 
    246 H246        1.2456  -17.5864  -53.2289 H         1 UNK         0.0800 
    247 H247       -0.0312  -18.6692  -53.7079 H         1 UNK         0.0800 
@<TRIPOS>BOND
     1    1    2 1    
     2    1  127 1    
     3    1  128 1    
     4    1  129 1    
     5    2    3 2    
     6    2    4 am   BACKBONE|DICT|INTERRES
     7    4    5 1    
     8    4  130 1    
     9    5    6 1    
    10    5   65 1    
    11    5  131 1    
    12    6    7 1    
    13    6  132 1    
    14    6  133 1    
    15    7    8 1    
    16    8    9 1    
    17    8  134 1    
    18    8  135 1    
    19    9   10 ar   
    20    9   14 ar   
    21   10   11 ar   
    22   10  136 1    
    23   11   12 ar   
    24   11  126 1    
    25   12   13 ar   
    26   12  137 1    
    27   13   14 ar   
    28   13   15 1    
    29   14  138 1    
    30   15   16 1    
    31   15  139 1    
    32   15  140 1    
    33   16   17 1    
    34   17   18 1    
    35   17  141 1    
    36   17  142 1    
    37   18   19 1    
    38   18   67 1    
    39   18  143 1    
    40   19   20 am   BACKBONE|DICT|INTERRES
    41   19  144 1    
    42   20   21 2    
    43   20   22 1    
    44   22   23 1    
    45   22   24 1    
    46   22  145 1    
    47   23  146 1    
    48   23  147 1    
    49   23  148 1    
    50   24   25 am   BACKBONE|DICT|INTERRES
    51   24  149 1    
    52   25   26 2    
    53   25   27 1    
    54   27   28 1    
    55   27   29 1    
    56   27  150 1    
    57   28  151 1    
    58   28  152 1    
    59   28  153 1    
    60   29   30 am   BACKBONE|DICT|INTERRES
    61   29  154 1    
    62   30   31 2    
    63   30   32 1    
    64   32   33 1    
    65   32   34 1    
    66   32  155 1    
    67   33  156 1    
    68   33  157 1    
    69   33  158 1    
    70   34   35 am   BACKBONE|DICT|INTERRES
    71   34  159 1    
    72   35   36 2    
    73   35   37 1    
    74   37   38 1    
    75   37   39 1    
    76   37  160 1    
    77   38  161 1    
    78   38  162 1    
    79   38  163 1    
    80   39   40 am   BACKBONE|DICT|INTERRES
    81   39  164 1    
    82   40   41 2    
    83   40   42 1    
    84   42   43 1    
    85   42   44 1    
    86   42  165 1    
    87   43  166 1    
    88   43  167 1    
    89   43  168 1    
    90   44   45 am   BACKBONE|DICT|INTERRES
    91   44  169 1    
    92   45   46 2    
    93   45   47 1    
    94   47   48 1    
    95   47   49 1    
    96   47  170 1    
    97   48  171 1    
    98   48  172 1    
    99   48  173 1    
   100   49   50 am   BACKBONE|DICT|INTERRES
   101   49  174 1    
   102   50   51 2    
   103   50   52 1    
   104   52   53 1    
   105   52   54 1    
   106   52  175 1    
   107   53  176 1    
   108   53  177 1    
   109   53  178 1    
   110   54   55 am   BACKBONE|DICT|INTERRES
   111   54  179 1    
   112   55   56 2    
   113   55   57 1    
   114   57   58 1    
   115   57   59 1    
   116   57  180 1    
   117   58  181 1    
   118   58  182 1    
   119   58  183 1    
   120   59   60 am   BACKBONE|DICT|INTERRES
   121   59  184 1    
   122   60   61 2    
   123   60   62 1    
   124   62   63 1    
   125   62   64 1    
   126   62  185 1    
   127   63  186 1    
   128   63  187 1    
   129   63  188 1    
   130   64   65 am   BACKBONE|DICT|INTERRES
   131   64  189 1    
   132   65   66 2    
   133   67   68 2    
   134   67   69 am   BACKBONE|DICT|INTERRES
   135   69   70 1    
   136   69  190 1    
   137   70   71 1    
   138   70   72 1    
   139   70  191 1    
   140   71  192 1    
   141   71  193 1    
   142   71  194 1    
   143   72   73 2    
   144   72   74 am   BACKBONE|DICT|INTERRES
   145   74   75 1    
   146   74  195 1    
   147   75   76 1    
   148   75   77 1    
   149   75  196 1    
   150   76  197 1    
   151   76  198 1    
   152   76  199 1    
   153   77   78 2    
   154   77   79 am   BACKBONE|DICT|INTERRES
   155   79   80 1    
   156   79  200 1    
   157   80   81 1    
   158   80   82 1    
   159   80  201 1    
   160   81  202 1    
   161   81  203 1    
   162   81  204 1    
   163   82   83 2    
   164   82   84 am   BACKBONE|DICT|INTERRES
   165   84   85 1    
   166   84  205 1    
   167   85   86 1    
   168   85   87 1    
   169   85  206 1    
   170   86  207 1    
   171   86  208 1    
   172   86  209 1    
   173   87   88 2    
   174   87   89 am   BACKBONE|DICT|INTERRES
   175   89   90 1    
   176   89  210 1    
   177   90   91 1    
   178   90   92 1    
   179   90  211 1    
   180   91  212 1    
   181   91  213 1    
   182   91  214 1    
   183   92   93 2    
   184   92   94 am   BACKBONE|DICT|INTERRES
   185   94   95 1    
   186   94  215 1    
   187   95   96 1    
   188   95   97 1    
   189   95  216 1    
   190   96  217 1    
   191   96  218 1    
   192   96  219 1    
   193   97   98 2    
   194   97   99 am   BACKBONE|DICT|INTERRES
   195   99  100 1    
   196   99  220 1    
   197  100  101 1    
   198  100  102 1    
   199  100  221 1    
   200  101  222 1    
   201  101  223 1    
   202  101  224 1    
   203  102  103 2    
   204  102  104 am   BACKBONE|DICT|INTERRES
   205  104  105 1    
   206  104  225 1    
   207  105  106 1    
   208  105  107 1    
   209  105  226 1    
   210  106  227 1    
   211  106  228 1    
   212  106  229 1    
   213  107  108 2    
   214  107  109 am   BACKBONE|DICT|INTERRES
   215  109  110 1    
   216  109  230 1    
   217  110  111 1    
   218  110  112 1    
   219  110  231 1    
   220  111  232 1    
   221  111  233 1    
   222  111  234 1    
   223  112  113 2    
   224  112  114 am   BACKBONE|DICT|INTERRES
   225  114  115 1    
   226  114  235 1    
   227  115  116 1    
   228  115  117 1    
   229  115  236 1    
   230  116  237 1    
   231  116  238 1    
   232  116  239 1    
   233  117  118 2    
   234  117  119 am   BACKBONE|DICT|INTERRES
   235  119  120 1    
   236  119  240 1    
   237  120  121 1    
   238  120  124 1    
   239  120  241 1    
   240  121  122 am   BACKBONE|DICT|INTERRES
   241  121  123 2    
   242  122  242 1    
   243  122  243 1    
   244  124  125 1    
   245  124  244 1    
   246  124  245 1    
   247  125  126 1    
   248  126  246 1    
   249  126  247 1    
@<TRIPOS>SUBSTRUCTURE
     1 UNK         1 GROUP             0       ****    0 ROOT    
