@<TRIPOS>MOLECULE
3R540
247   249    1
SMALL
USER_CHARGES


@<TRIPOS>ATOM
      1 CA          7.5691  -12.0391  -47.7659 C.3       0 UNK        -0.1800 
      2 C           6.1609  -12.1661  -47.2052 C.2       0 UNK         0.5000 
      3 O           5.9935  -12.3418  -45.9979 O.2       0 UNK        -0.5000 
      4 N           5.1404  -12.0597  -48.0669 N.am      1 UNK        -0.5000 
      5 CA          3.7227  -12.2030  -47.7076 C.3       1 UNK         0.1400 
      6 C6          2.7995  -12.2574  -48.9459 C.3       23 UNK        -0.0398 
      7 S7          3.0085  -13.8172  -49.8664 S.3       23 UNK        -0.2404 
      8 C8          1.8194  -14.8526  -48.9597 C.3       23 UNK        -0.0205 
      9 C9          1.7098  -16.2467  -49.5512 C.ar      23 UNK        -0.0193 
     10 C10         0.7477  -16.5151  -50.5259 C.ar      23 UNK        -0.1150 
     11 C11         0.6071  -17.8016  -51.0612 C.ar      23 UNK        -0.0193 
     12 C12         1.4701  -18.8119  -50.6226 C.ar      23 UNK        -0.1150 
     13 C13         2.4425  -18.5585  -49.6468 C.ar      23 UNK        -0.0193 
     14 C14         2.5512  -17.2712  -49.1125 C.ar      23 UNK        -0.1150 
     15 C15         3.4105  -19.6464  -49.1853 C.3       23 UNK        -0.0205 
     16 S16         2.6356  -21.2718  -48.8924 S.3       23 UNK        -0.2404 
     17 C17         1.4461  -20.8652  -47.5718 C.3       23 UNK        -0.0398 
     18 CA          0.6286  -22.0844  -47.0799 C.3       11 UNK         0.1400 
     19 N          -0.1239  -21.7602  -45.8668 N.am      11 UNK        -0.5000 
     20 C          -0.8465  -22.6225  -45.1382 C.2       10 UNK         0.5000 
     21 O          -0.9004  -23.8318  -45.3579 O.2       10 UNK        -0.5000 
     22 CA         -1.7025  -22.0164  -44.0112 C.3       10 UNK         0.1400 
     23 CB         -0.8618  -21.7652  -42.7505 C.3       10 UNK        -0.1800 
     24 N          -2.3571  -20.7753  -44.4322 N.am      10 UNK        -0.5000 
     25 C          -3.3169  -20.7119  -45.3671 C.2       9 UNK         0.5000 
     26 O          -3.7959  -21.7014  -45.9185 O.2       9 UNK        -0.5000 
     27 CA         -3.7879  -19.3110  -45.7916 C.3       9 UNK         0.1400 
     28 CB         -4.9076  -18.8055  -44.8711 C.3       9 UNK        -0.1800 
     29 N          -2.6902  -18.3459  -45.8106 N.am      9 UNK        -0.5000 
     30 C          -1.7197  -18.3352  -46.7368 C.2       8 UNK         0.5000 
     31 O          -1.6675  -19.1264  -47.6783 O.2       8 UNK        -0.5000 
     32 CA         -0.5891  -17.3049  -46.5435 C.3       8 UNK         0.1400 
     33 CB         -1.0050  -15.9496  -47.1302 C.3       8 UNK        -0.1800 
     34 N          -0.2253  -17.1276  -45.1353 N.am      8 UNK        -0.5000 
     35 C           0.2430  -18.1063  -44.3449 C.2       7 UNK         0.5000 
     36 O           0.5362  -19.2240  -44.7661 O.2       7 UNK        -0.5000 
     37 CA          0.3445  -17.8352  -42.8293 C.3       7 UNK         0.1400 
     38 CB          1.8085  -17.7773  -42.3728 C.3       7 UNK        -0.1800 
     39 N          -0.3669  -16.6309  -42.3925 N.am      7 UNK        -0.5000 
     40 C          -1.7023  -16.4942  -42.4208 C.2       6 UNK         0.5000 
     41 O          -2.4614  -17.3892  -42.7953 O.2       6 UNK        -0.5000 
     42 CA         -2.2949  -15.1288  -42.0172 C.3       6 UNK         0.1400 
     43 CB         -2.8024  -15.1740  -40.5684 C.3       6 UNK        -0.1800 
     44 N          -1.3719  -14.0003  -42.1626 N.am      6 UNK        -0.5000 
     45 C          -0.8037  -13.5959  -43.3073 C.2       5 UNK         0.5000 
     46 O          -0.9968  -14.1459  -44.3926 O.2       5 UNK        -0.5000 
     47 CA          0.1842  -12.4123  -43.2266 C.3       5 UNK         0.1400 
     48 CB          0.1284  -11.6282  -41.8967 C.3       5 UNK        -0.1800 
     49 N           1.5594  -12.8347  -43.4997 N.am      5 UNK        -0.5000 
     50 C           2.2420  -13.8167  -42.8901 C.2       4 UNK         0.5000 
     51 O           1.7858  -14.5180  -41.9855 O.2       4 UNK        -0.5000 
     52 CA          3.6876  -14.0447  -43.3682 C.3       4 UNK         0.1400 
     53 CB          3.6996  -14.8172  -44.6979 C.3       4 UNK        -0.1800 
     54 N           4.4354  -12.7941  -43.5195 N.am      4 UNK        -0.5000 
     55 C           4.7625  -11.9707  -42.5111 C.2       3 UNK         0.5000 
     56 O           4.4840  -12.1862  -41.3311 O.2       3 UNK        -0.5000 
     57 CA          5.5283  -10.6884  -42.8795 C.3       3 UNK         0.1400 
     58 CB          7.0389  -10.9591  -42.9612 C.3       3 UNK        -0.1800 
     59 N           5.0627  -10.1354  -44.1502 N.am      3 UNK        -0.5000 
     60 C           4.0299   -9.2893  -44.2727 C.2       2 UNK         0.5000 
     61 O           3.4092   -8.8240  -43.3164 O.2       2 UNK        -0.5000 
     62 CA          3.6065   -8.9042  -45.7052 C.3       2 UNK         0.1400 
     63 CB          4.3295   -7.6257  -46.1552 C.3       2 UNK        -0.1800 
     64 N           3.8546   -9.9641  -46.6845 N.am      2 UNK        -0.5000 
     65 C           3.2286  -11.1493  -46.6948 C.2       1 UNK         0.5000 
     66 O           2.3269  -11.4497  -45.9119 O.2       1 UNK        -0.5000 
     67 C          -0.2953  -22.6527  -48.1790 C.2       11 UNK         0.5000 
     68 O           0.0089  -23.7045  -48.7420 O.2       11 UNK        -0.5000 
     69 N          -1.4309  -21.9817  -48.4229 N.am      12 UNK        -0.5000 
     70 CA         -2.4619  -22.4248  -49.3602 C.3       12 UNK         0.1400 
     71 CB         -3.5390  -21.3426  -49.4924 C.3       12 UNK        -0.1800 
     72 C          -3.0839  -23.7762  -48.9686 C.2       12 UNK         0.5000 
     73 O          -3.2078  -24.6490  -49.8248 O.2       12 UNK        -0.5000 
     74 N          -3.4205  -23.9459  -47.6816 N.am      13 UNK        -0.5000 
     75 CA         -3.9411  -25.1910  -47.1129 C.3       13 UNK         0.1400 
     76 CB         -4.3262  -24.9742  -45.6421 C.3       13 UNK        -0.1800 
     77 C          -2.9630  -26.3707  -47.2588 C.2       13 UNK         0.5000 
     78 O          -3.3812  -27.4517  -47.6764 O.2       13 UNK        -0.5000 
     79 N          -1.6770  -26.1273  -46.9645 N.am      14 UNK        -0.5000 
     80 CA         -0.5812  -27.0836  -47.1403 C.3       14 UNK         0.1400 
     81 CB          0.7071  -26.5072  -46.5344 C.3       14 UNK        -0.1800 
     82 C          -0.3614  -27.4849  -48.6117 C.2       14 UNK         0.5000 
     83 O          -0.0616  -28.6468  -48.8862 O.2       14 UNK        -0.5000 
     84 N          -0.5788  -26.5408  -49.5358 N.am      15 UNK        -0.5000 
     85 CA         -0.5548  -26.7305  -50.9876 C.3       15 UNK         0.1400 
     86 CB         -0.1950  -25.3891  -51.6516 C.3       15 UNK        -0.1800 
     87 C          -1.8718  -27.3259  -51.5406 C.2       15 UNK         0.5000 
     88 O          -2.3031  -26.9491  -52.6315 O.2       15 UNK        -0.5000 
     89 N          -2.4952  -28.2419  -50.7832 N.am      16 UNK        -0.5000 
     90 CA         -3.7232  -28.9834  -51.0981 C.3       16 UNK         0.1400 
     91 CB         -3.4586  -29.9990  -52.2289 C.3       16 UNK        -0.1800 
     92 C          -4.9365  -28.0706  -51.3804 C.2       16 UNK         0.5000 
     93 O          -5.7166  -28.3400  -52.2949 O.2       16 UNK        -0.5000 
     94 N          -5.0463  -26.9906  -50.5944 N.am      17 UNK        -0.5000 
     95 CA         -6.0265  -25.9000  -50.6842 C.3       17 UNK         0.1400 
     96 CB         -7.4760  -26.4187  -50.5825 C.3       17 UNK        -0.1800 
     97 C          -5.8202  -24.9531  -51.8867 C.2       17 UNK         0.5000 
     98 O          -6.6548  -24.0697  -52.0928 O.2       17 UNK        -0.5000 
     99 N          -4.7096  -25.1179  -52.6248 N.am      18 UNK        -0.5000 
    100 CA        -4.2285  -24.2889  -53.7319 C.3       18 UNK         0.1400 
    101 CB        -3.5738  -23.0118  -53.1680 C.3       18 UNK        -0.1800 
    102 C         -5.3154  -24.0360  -54.7978 C.2       18 UNK         0.5000 
    103 O         -5.6919  -24.9758  -55.5006 O.2       18 UNK        -0.5000 
    104 N         -5.8147  -22.7979  -54.8840 N.am      19 UNK        -0.5000 
    105 CA        -6.9395  -22.3990  -55.7272 C.3       19 UNK         0.1400 
    106 CB        -6.4086  -21.5776  -56.9164 C.3       19 UNK        -0.1800 
    107 C         -7.9624  -21.6285  -54.8733 C.2       19 UNK         0.5000 
    108 O         -8.4690  -20.5911  -55.3052 O.2       19 UNK        -0.5000 
    109 N         -8.1945  -22.1132  -53.6424 N.am      20 UNK        -0.5000 
    110 CA        -8.9132  -21.4859  -52.5244 C.3       20 UNK         0.1400 
    111 CB       -10.3581  -21.0886  -52.8847 C.3       20 UNK        -0.1800 
    112 C         -8.1096  -20.3151  -51.9319 C.2       20 UNK         0.5000 
    113 O         -7.7684  -20.3437  -50.7490 O.2       20 UNK        -0.5000 
    114 N         -7.7382  -19.3537  -52.7865 N.am      21 UNK        -0.5000 
    115 CA        -6.6324  -18.4268  -52.5597 C.3       21 UNK         0.1400 
    116 CB        -6.6303  -17.3791  -53.6831 C.3       21 UNK        -0.1800 
    117 C         -5.2986  -19.2106  -52.5481 C.2       21 UNK         0.5000 
    118 O         -5.1791  -20.1812  -53.2988 O.2       21 UNK        -0.5000 
    119 N         -4.2923  -18.8339  -51.7521 N.am      22 UNK        -0.5000 
    120 CA        -4.1869  -17.6514  -50.8770 C.3       22 UNK         0.1400 
    121 C         -4.9134  -17.7567  -49.4998 C.2       22 UNK         0.5000 
    122 N         -5.7104  -18.7815  -49.2272 N.am      22 UNK        -0.7600 
    123 O         -4.7719  -16.8712  -48.6623 O.2       22 UNK        -0.5000 
    124 C124       -2.7035  -17.2355  -50.6880 C.3       23 UNK        -0.0398 
    125 S125       -1.8312  -16.9619  -52.2702 S.3       23 UNK        -0.2404 
    126 C126       -0.4358  -18.1366  -52.1311 C.3       23 UNK        -0.0205 
    127 H127        7.5629  -11.8704  -48.8429 H         1 UNK         0.0600 
    128 H128        8.1338  -12.9497  -47.5663 H         1 UNK         0.0600 
    129 H129        8.0866  -11.2049  -47.2923 H         1 UNK         0.0600 
    130 H130        5.3329  -11.9241  -49.0494 H         1 UNK         0.3000 
    131 H131        3.6393  -13.1605  -47.1955 H         1 UNK         0.0600 
    132 H132        3.0046  -11.4207  -49.6155 H         1 UNK         0.0800 
    133 H133        1.7486  -12.1632  -48.6643 H         1 UNK         0.0800 
    134 H134        0.8412  -14.3699  -48.9753 H         1 UNK         0.0800 
    135 H135        2.1145  -14.9196  -47.9116 H         1 UNK         0.0800 
    136 H136        0.1120  -15.7089  -50.8606 H         1 UNK         0.1150 
    137 H137        1.3863  -19.8028  -51.0465 H         1 UNK         0.1150 
    138 H138        3.2999  -17.0595  -48.3619 H         1 UNK         0.1150 
    139 H139        4.1841  -19.7626  -49.9452 H         1 UNK         0.0800 
    140 H140        3.9220  -19.3414  -48.2710 H         1 UNK         0.0800 
    141 H141        0.7838  -20.0729  -47.9213 H         1 UNK         0.0800 
    142 H142        2.0119  -20.4420  -46.7406 H         1 UNK         0.0800 
    143 H143        1.3330  -22.8733  -46.8076 H         1 UNK         0.0600 
    144 H144       -0.0843  -20.7907  -45.5631 H         1 UNK         0.3000 
    145 H145       -2.4822  -22.7376  -43.7577 H         1 UNK         0.0600 
    146 H146       -1.4658  -21.3366  -41.9505 H         1 UNK         0.0600 
    147 H147       -0.4414  -22.6991  -42.3755 H         1 UNK         0.0600 
    148 H148       -0.0286  -21.0899  -42.9428 H         1 UNK         0.0600 
    149 H149       -2.0145  -19.9138  -44.0339 H         1 UNK         0.3000 
    150 H150       -4.1919  -19.3878  -46.8028 H         1 UNK         0.0600 
    151 H151       -5.7580  -19.4884  -44.8833 H         1 UNK         0.0600 
    152 H152       -5.2700  -17.8289  -45.1927 H         1 UNK         0.0600 
    153 H153       -4.5736  -18.7171  -43.8370 H         1 UNK         0.0600 
    154 H154       -2.6406  -17.6988  -45.0343 H         1 UNK         0.3000 
    155 H155        0.2935  -17.6610  -47.0786 H         1 UNK         0.0600 
    156 H156       -1.9349  -15.5872  -46.6896 H         1 UNK         0.0600 
    157 H157       -1.1579  -16.0226  -48.2068 H         1 UNK         0.0600 
    158 H158       -0.2420  -15.1922  -46.9547 H         1 UNK         0.0600 
    159 H159       -0.4435  -16.2270  -44.7244 H         1 UNK         0.3000 
    160 H160       -0.1202  -18.6854  -42.3265 H         1 UNK         0.0600 
    161 H161        2.3502  -16.9680  -42.8570 H         1 UNK         0.0600 
    162 H162        2.3284  -18.7061  -42.6112 H         1 UNK         0.0600 
    163 H163        1.8812  -17.6316  -41.2949 H         1 UNK         0.0600 
    164 H164        0.2059  -15.8434  -42.1047 H         1 UNK         0.3000 
    165 H165       -3.1477  -14.9423  -42.6729 H         1 UNK         0.0600 
    166 H166       -3.3105  -14.2481  -40.2983 H         1 UNK         0.0600 
    167 H167       -3.5165  -15.9869  -40.4291 H         1 UNK         0.0600 
    168 H168       -1.9862  -15.3292  -39.8616 H         1 UNK         0.0600 
    169 H169       -1.1223  -13.5142  -41.3137 H         1 UNK         0.3000 
    170 H170       -0.0941  -11.7267  -44.0282 H         1 UNK         0.0600 
    171 H171       -0.8804  -11.2671  -41.6924 H         1 UNK         0.0600 
    172 H172        0.4495  -12.2307  -41.0462 H         1 UNK         0.0600 
    173 H173        0.7781  -10.7536  -41.9389 H         1 UNK         0.0600 
    174 H174        2.0051  -12.3478  -44.2733 H         1 UNK         0.3000 
    175 H175        4.2029  -14.6484  -42.6183 H         1 UNK         0.0600 
    176 H176        3.0417  -14.3581  -45.4341 H         1 UNK         0.0600 
    177 H177        4.7022  -14.8702  -45.1230 H         1 UNK         0.0600 
    178 H178        3.3535  -15.8409  -44.5613 H         1 UNK         0.0600 
    179 H179        4.7737  -12.5716  -44.4497 H         1 UNK         0.3000 
    180 H180        5.3643   -9.9589  -42.0833 H         1 UNK         0.0600 
    181 H181        7.2801  -11.6959  -43.7279 H         1 UNK         0.0600 
    182 H182        7.4172  -11.3398  -42.0117 H         1 UNK         0.0600 
    183 H183        7.5904  -10.0467  -43.1884 H         1 UNK         0.0600 
    184 H184        5.4886  -10.5153  -44.9861 H         1 UNK         0.3000 
    185 H185        2.5332   -8.7030  -45.6890 H         1 UNK         0.0600 
    186 H186        4.1448   -6.8070  -45.4583 H         1 UNK         0.0600 
    187 H187        5.4090   -7.7719  -46.2113 H         1 UNK         0.0600 
    188 H188        3.9823   -7.3002  -47.1360 H         1 UNK         0.0600 
    189 H189        4.5912   -9.8027  -47.3560 H         1 UNK         0.3000 
    190 H190       -1.5933  -21.0967  -47.9525 H         1 UNK         0.3000 
    191 H191       -1.9851  -22.5472  -50.3344 H         1 UNK         0.0600 
    192 H192       -4.0694  -21.1823  -48.5542 H         1 UNK         0.0600 
    193 H193       -4.2803  -21.6141  -50.2446 H         1 UNK         0.0600 
    194 H194       -3.0971  -20.3927  -49.7888 H         1 UNK         0.0600 
    195 H195       -3.3345  -23.1581  -47.0444 H         1 UNK         0.3000 
    196 H196       -4.8499  -25.4478  -47.6590 H         1 UNK         0.0600 
    197 H197       -4.7392  -25.8856  -45.2082 H         1 UNK         0.0600 
    198 H198       -5.0829  -24.1957  -45.5440 H         1 UNK         0.0600 
    199 H199       -3.4673  -24.6830  -45.0379 H         1 UNK         0.0600 
    200 H200       -1.4255  -25.2160  -46.5899 H         1 UNK         0.3000 
    201 H201       -0.8408  -27.9887  -46.5877 H         1 UNK         0.0600 
    202 H202        0.5828  -26.2975  -45.4719 H         1 UNK         0.0600 
    203 H203        1.0033  -25.5797  -47.0250 H         1 UNK         0.0600 
    204 H204        1.5348  -27.2106  -46.6328 H         1 UNK         0.0600 
    205 H205       -0.8010  -25.6037  -49.2174 H         1 UNK         0.3000 
    206 H206        0.2368  -27.4411  -51.2325 H         1 UNK         0.0600 
    207 H207        0.7497  -25.0013  -51.2698 H         1 UNK         0.0600 
    208 H208       -0.0873  -25.4965  -52.7315 H         1 UNK         0.0600 
    209 H209       -0.9614  -24.6360  -51.4688 H         1 UNK         0.0600 
    210 H210       -2.0649  -28.4716  -49.8965 H         1 UNK         0.3000 
    211 H211       -3.9753  -29.5488  -50.1998 H         1 UNK         0.0600 
    212 H212       -3.2407  -29.5026  -53.1752 H         1 UNK         0.0600 
    213 H213       -4.3243  -30.6429  -52.3884 H         1 UNK         0.0600 
    214 H214       -2.6153  -30.6461  -51.9880 H         1 UNK         0.0600 
    215 H215       -4.3102  -26.8413  -49.9150 H         1 UNK         0.3000 
    216 H216       -5.8538  -25.2816  -49.8037 H         1 UNK         0.0600 
    217 H217       -8.1759  -25.5926  -50.4515 H         1 UNK         0.0600 
    218 H218       -7.5991  -27.0845  -49.7284 H         1 UNK         0.0600 
    219 H219       -7.7808  -26.9582  -51.4792 H         1 UNK         0.0600 
    220 H220       -4.0896  -25.8799  -52.3755 H         1 UNK         0.3000 
    221 H221       -3.4464  -24.8628  -54.2309 H         1 UNK         0.0600 
    222 H222       -4.2547  -22.4630  -52.5188 H         1 UNK         0.0600 
    223 H223       -2.6933  -23.2622  -52.5774 H         1 UNK         0.0600 
    224 H224       -3.2458  -22.3413  -53.9632 H         1 UNK         0.0600 
    225 H225       -5.4730  -22.0811  -54.2501 H         1 UNK         0.3000 
    226 H226       -7.4612  -23.2750  -56.1173 H         1 UNK         0.0600 
    227 H227       -5.6916  -22.1528  -57.5024 H         1 UNK         0.0600 
    228 H228       -7.2179  -21.2886  -57.5879 H         1 UNK         0.0600 
    229 H229       -5.9129  -20.6653  -56.5818 H         1 UNK         0.0600 
    230 H230       -7.6608  -22.9327  -53.3626 H         1 UNK         0.3000 
    231 H231       -8.9718  -22.2528  -51.7502 H         1 UNK         0.0600 
    232 H232      -10.8984  -20.7623  -51.9954 H         1 UNK         0.0600 
    233 H233      -10.9045  -21.9323  -53.3060 H         1 UNK         0.0600 
    234 H234      -10.3987  -20.2696  -53.6026 H         1 UNK         0.0600 
    235 H235       -8.0246  -19.4783  -53.7525 H         1 UNK         0.3000 
    236 H236       -6.8044  -17.9249  -51.6086 H         1 UNK         0.0600 
    237 H237       -7.5669  -16.8217  -53.7039 H         1 UNK         0.0600 
    238 H238       -5.8246  -16.6570  -53.5471 H         1 UNK         0.0600 
    239 H239       -6.4939  -17.8413  -54.6620 H         1 UNK         0.0600 
    240 H240       -3.4524  -19.3883  -51.7923 H         1 UNK         0.3000 
    241 H241       -4.6749  -16.8221  -51.3900 H         1 UNK         0.0600 
    242 H242       -6.1846  -18.7957  -48.3395 H         1 UNK         0.3800 
    243 H243       -5.9262  -19.4989  -49.9046 H         1 UNK         0.3800 
    244 H244       -2.1721  -17.9846  -50.0987 H         1 UNK         0.0800 
    245 H245       -2.6374  -16.3049  -50.1226 H         1 UNK         0.0800 
    246 H246        0.0705  -18.1794  -53.0961 H         1 UNK         0.0800 
    247 H247       -0.8396  -19.1342  -51.9509 H         1 UNK         0.0800 
@<TRIPOS>BOND
     1    1    2 1    
     2    1  127 1    
     3    1  128 1    
     4    1  129 1    
     5    2    3 2    
     6    2    4 am   BACKBONE|DICT|INTERRES
     7    4    5 1    
     8    4  130 1    
     9    5    6 1    
    10    5   65 1    
    11    5  131 1    
    12    6    7 1    
    13    6  132 1    
    14    6  133 1    
    15    7    8 1    
    16    8    9 1    
    17    8  134 1    
    18    8  135 1    
    19    9   10 ar   
    20    9   14 ar   
    21   10   11 ar   
    22   10  136 1    
    23   11   12 ar   
    24   11  126 1    
    25   12   13 ar   
    26   12  137 1    
    27   13   14 ar   
    28   13   15 1    
    29   14  138 1    
    30   15   16 1    
    31   15  139 1    
    32   15  140 1    
    33   16   17 1    
    34   17   18 1    
    35   17  141 1    
    36   17  142 1    
    37   18   19 1    
    38   18   67 1    
    39   18  143 1    
    40   19   20 am   BACKBONE|DICT|INTERRES
    41   19  144 1    
    42   20   21 2    
    43   20   22 1    
    44   22   23 1    
    45   22   24 1    
    46   22  145 1    
    47   23  146 1    
    48   23  147 1    
    49   23  148 1    
    50   24   25 am   BACKBONE|DICT|INTERRES
    51   24  149 1    
    52   25   26 2    
    53   25   27 1    
    54   27   28 1    
    55   27   29 1    
    56   27  150 1    
    57   28  151 1    
    58   28  152 1    
    59   28  153 1    
    60   29   30 am   BACKBONE|DICT|INTERRES
    61   29  154 1    
    62   30   31 2    
    63   30   32 1    
    64   32   33 1    
    65   32   34 1    
    66   32  155 1    
    67   33  156 1    
    68   33  157 1    
    69   33  158 1    
    70   34   35 am   BACKBONE|DICT|INTERRES
    71   34  159 1    
    72   35   36 2    
    73   35   37 1    
    74   37   38 1    
    75   37   39 1    
    76   37  160 1    
    77   38  161 1    
    78   38  162 1    
    79   38  163 1    
    80   39   40 am   BACKBONE|DICT|INTERRES
    81   39  164 1    
    82   40   41 2    
    83   40   42 1    
    84   42   43 1    
    85   42   44 1    
    86   42  165 1    
    87   43  166 1    
    88   43  167 1    
    89   43  168 1    
    90   44   45 am   BACKBONE|DICT|INTERRES
    91   44  169 1    
    92   45   46 2    
    93   45   47 1    
    94   47   48 1    
    95   47   49 1    
    96   47  170 1    
    97   48  171 1    
    98   48  172 1    
    99   48  173 1    
   100   49   50 am   BACKBONE|DICT|INTERRES
   101   49  174 1    
   102   50   51 2    
   103   50   52 1    
   104   52   53 1    
   105   52   54 1    
   106   52  175 1    
   107   53  176 1    
   108   53  177 1    
   109   53  178 1    
   110   54   55 am   BACKBONE|DICT|INTERRES
   111   54  179 1    
   112   55   56 2    
   113   55   57 1    
   114   57   58 1    
   115   57   59 1    
   116   57  180 1    
   117   58  181 1    
   118   58  182 1    
   119   58  183 1    
   120   59   60 am   BACKBONE|DICT|INTERRES
   121   59  184 1    
   122   60   61 2    
   123   60   62 1    
   124   62   63 1    
   125   62   64 1    
   126   62  185 1    
   127   63  186 1    
   128   63  187 1    
   129   63  188 1    
   130   64   65 am   BACKBONE|DICT|INTERRES
   131   64  189 1    
   132   65   66 2    
   133   67   68 2    
   134   67   69 am   BACKBONE|DICT|INTERRES
   135   69   70 1    
   136   69  190 1    
   137   70   71 1    
   138   70   72 1    
   139   70  191 1    
   140   71  192 1    
   141   71  193 1    
   142   71  194 1    
   143   72   73 2    
   144   72   74 am   BACKBONE|DICT|INTERRES
   145   74   75 1    
   146   74  195 1    
   147   75   76 1    
   148   75   77 1    
   149   75  196 1    
   150   76  197 1    
   151   76  198 1    
   152   76  199 1    
   153   77   78 2    
   154   77   79 am   BACKBONE|DICT|INTERRES
   155   79   80 1    
   156   79  200 1    
   157   80   81 1    
   158   80   82 1    
   159   80  201 1    
   160   81  202 1    
   161   81  203 1    
   162   81  204 1    
   163   82   83 2    
   164   82   84 am   BACKBONE|DICT|INTERRES
   165   84   85 1    
   166   84  205 1    
   167   85   86 1    
   168   85   87 1    
   169   85  206 1    
   170   86  207 1    
   171   86  208 1    
   172   86  209 1    
   173   87   88 2    
   174   87   89 am   BACKBONE|DICT|INTERRES
   175   89   90 1    
   176   89  210 1    
   177   90   91 1    
   178   90   92 1    
   179   90  211 1    
   180   91  212 1    
   181   91  213 1    
   182   91  214 1    
   183   92   93 2    
   184   92   94 am   BACKBONE|DICT|INTERRES
   185   94   95 1    
   186   94  215 1    
   187   95   96 1    
   188   95   97 1    
   189   95  216 1    
   190   96  217 1    
   191   96  218 1    
   192   96  219 1    
   193   97   98 2    
   194   97   99 am   BACKBONE|DICT|INTERRES
   195   99  100 1    
   196   99  220 1    
   197  100  101 1    
   198  100  102 1    
   199  100  221 1    
   200  101  222 1    
   201  101  223 1    
   202  101  224 1    
   203  102  103 2    
   204  102  104 am   BACKBONE|DICT|INTERRES
   205  104  105 1    
   206  104  225 1    
   207  105  106 1    
   208  105  107 1    
   209  105  226 1    
   210  106  227 1    
   211  106  228 1    
   212  106  229 1    
   213  107  108 2    
   214  107  109 am   BACKBONE|DICT|INTERRES
   215  109  110 1    
   216  109  230 1    
   217  110  111 1    
   218  110  112 1    
   219  110  231 1    
   220  111  232 1    
   221  111  233 1    
   222  111  234 1    
   223  112  113 2    
   224  112  114 am   BACKBONE|DICT|INTERRES
   225  114  115 1    
   226  114  235 1    
   227  115  116 1    
   228  115  117 1    
   229  115  236 1    
   230  116  237 1    
   231  116  238 1    
   232  116  239 1    
   233  117  118 2    
   234  117  119 am   BACKBONE|DICT|INTERRES
   235  119  120 1    
   236  119  240 1    
   237  120  121 1    
   238  120  124 1    
   239  120  241 1    
   240  121  122 am   BACKBONE|DICT|INTERRES
   241  121  123 2    
   242  122  242 1    
   243  122  243 1    
   244  124  125 1    
   245  124  244 1    
   246  124  245 1    
   247  125  126 1    
   248  126  246 1    
   249  126  247 1    
@<TRIPOS>SUBSTRUCTURE
     1 UNK         1 GROUP             0       ****    0 ROOT    
