@<TRIPOS>MOLECULE
3R540
247   249    1
SMALL
USER_CHARGES


@<TRIPOS>ATOM
      1 CA         -6.3886  -16.7567  -48.8222 C.3       0 UNK        -0.1800 
      2 C          -5.4956  -15.8546  -47.9817 C.2       0 UNK         0.5000 
      3 O          -5.9541  -15.2718  -46.9987 O.2       0 UNK        -0.5000 
      4 N          -4.2166  -15.7460  -48.3569 N.am      1 UNK        -0.5000 
      5 CA         -3.1607  -14.9571  -47.7083 C.3       1 UNK         0.1400 
      6 C6         -2.0190  -14.5927  -48.7027 C.3       23 UNK        -0.0398 
      7 S7         -1.5519  -15.9253  -49.8653 S.3       23 UNK        -0.2404 
      8 C8         -0.0272  -16.5878  -49.1312 C.3       23 UNK        -0.0205 
      9 C9          0.5410  -17.6885  -50.0103 C.ar      23 UNK        -0.0193 
     10 C10         1.3067  -17.3629  -51.1317 C.ar      23 UNK        -0.1150 
     11 C11         1.7970  -18.3653  -51.9727 C.ar      23 UNK        -0.0193 
     12 C12         1.5235  -19.7047  -51.6793 C.ar      23 UNK        -0.1150 
     13 C13         0.7535  -20.0427  -50.5626 C.ar      23 UNK        -0.0193 
     14 C14         0.2725  -19.0300  -49.7271 C.ar      23 UNK        -0.1150 
     15 C15         0.3999  -21.4972  -50.2925 C.3       23 UNK        -0.0205 
     16 S16         1.6762  -22.3621  -49.3252 S.3       23 UNK        -0.2404 
     17 C17         1.4543  -21.6671  -47.6513 C.3       23 UNK        -0.0398 
     18 CA          0.5511  -22.5384  -46.7454 C.3       11 UNK         0.1400 
     19 N           0.8386  -22.3377  -45.3229 N.am      11 UNK        -0.5000 
     20 C           0.3307  -23.0876  -44.3350 C.2       10 UNK         0.5000 
     21 O          -0.4268  -24.0390  -44.5246 O.2       10 UNK        -0.5000 
     22 CA          0.6862  -22.6802  -42.8951 C.3       10 UNK         0.1400 
     23 CB          2.0998  -23.1532  -42.5258 C.3       10 UNK        -0.1800 
     24 N           0.5742  -21.2380  -42.6795 N.am      10 UNK        -0.5000 
     25 C          -0.5725  -20.5465  -42.7478 C.2       9 UNK         0.5000 
     26 O          -1.6713  -21.0614  -42.9522 O.2       9 UNK        -0.5000 
     27 CA         -0.4705  -19.0174  -42.6065 C.3       9 UNK         0.1400 
     28 CB         -0.3113  -18.6106  -41.1343 C.3       9 UNK        -0.1800 
     29 N           0.6162  -18.4424  -43.4011 N.am      9 UNK        -0.5000 
     30 C           0.7318  -18.5402  -44.7345 C.2       8 UNK         0.5000 
     31 O          -0.0903  -19.1000  -45.4589 O.2       8 UNK        -0.5000 
     32 CA          2.0309  -17.9964  -45.3535 C.3       8 UNK         0.1400 
     33 CB          1.9785  -16.4713  -45.5303 C.3       8 UNK        -0.1800 
     34 N           3.2020  -18.3628  -44.5562 N.am      8 UNK        -0.5000 
     35 C           3.6606  -19.6154  -44.4193 C.2       7 UNK         0.5000 
     36 O           3.1637  -20.5908  -44.9808 O.2       7 UNK        -0.5000 
     37 CA          4.8431  -19.8171  -43.4550 C.3       7 UNK         0.1400 
     38 CB          6.1705  -19.4554  -44.1378 C.3       7 UNK        -0.1800 
     39 N           4.6974  -19.0348  -42.2275 N.am      7 UNK        -0.5000 
     40 C           3.7420  -19.2383  -41.3091 C.2       6 UNK         0.5000 
     41 O           2.9183  -20.1495  -41.3725 O.2       6 UNK        -0.5000 
     42 CA          3.6659  -18.2265  -40.1505 C.3       6 UNK         0.1400 
     43 CB          4.5439  -18.6846  -38.9767 C.3       6 UNK        -0.1800 
     44 N           4.0512  -16.8688  -40.5451 N.am      6 UNK        -0.5000 
     45 C           3.3998  -16.1227  -41.4474 C.2       5 UNK         0.5000 
     46 O           2.4033  -16.5068  -42.0630 O.2       5 UNK        -0.5000 
     47 CA          4.0268  -14.7533  -41.7658 C.3       5 UNK         0.1400 
     48 CB          4.9678  -14.8778  -42.9749 C.3       5 UNK        -0.1800 
     49 N           3.0501  -13.6988  -42.0398 N.am      5 UNK        -0.5000 
     50 C           2.1110  -13.2563  -41.1928 C.2       4 UNK         0.5000 
     51 O           1.9069  -13.7411  -40.0781 O.2       4 UNK        -0.5000 
     52 CA          1.3020  -12.0133  -41.6182 C.3       4 UNK         0.1400 
     53 CB          1.8543  -11.2760  -42.8616 C.3       4 UNK        -0.1800 
     54 N          -0.1267  -12.3034  -41.7596 N.am      4 UNK        -0.5000 
     55 C          -0.7094  -13.0819  -42.6811 C.2       3 UNK         0.5000 
     56 O          -0.0978  -13.6760  -43.5715 O.2       3 UNK        -0.5000 
     57 CA         -2.2499  -13.1427  -42.6161 C.3       3 UNK         0.1400 
     58 CB         -2.8649  -11.8163  -43.0945 C.3       3 UNK        -0.1800 
     59 N          -2.8046  -14.2206  -43.4322 N.am      3 UNK        -0.5000 
     60 C          -2.7452  -15.5246  -43.1366 C.2       2 UNK         0.5000 
     61 O          -2.2873  -15.9616  -42.0808 O.2       2 UNK        -0.5000 
     62 CA         -3.3220  -16.5088  -44.1754 C.3       2 UNK         0.1400 
     63 CB         -4.6153  -17.1535  -43.6520 C.3       2 UNK        -0.1800 
     64 N          -3.5923  -15.9037  -45.4811 N.am      2 UNK        -0.5000 
     65 C          -2.6604  -15.6044  -46.3942 C.2       1 UNK         0.5000 
     66 O          -1.4624  -15.8138  -46.2170 O.2       1 UNK        -0.5000 
     67 C          -0.9476  -22.3484  -47.0627 C.2       11 UNK         0.5000 
     68 O          -1.5200  -23.1746  -47.7687 O.2       11 UNK        -0.5000 
     69 N          -1.5701  -21.3046  -46.4986 N.am      12 UNK        -0.5000 
     70 CA         -2.9998  -21.0143  -46.6386 C.3       12 UNK         0.1400 
     71 CB         -3.2611  -19.5715  -46.1857 C.3       12 UNK        -0.1800 
     72 C          -3.9253  -22.0005  -45.8975 C.2       12 UNK         0.5000 
     73 O          -5.1191  -22.0400  -46.1972 O.2       12 UNK        -0.5000 
     74 N          -3.3814  -22.7740  -44.9494 N.am      13 UNK        -0.5000 
     75 CA         -4.0770  -23.8885  -44.3102 C.3       13 UNK         0.1400 
     76 CB         -3.5293  -24.0935  -42.8890 C.3       13 UNK        -0.1800 
     77 C          -3.9425  -25.1736  -45.1471 C.2       13 UNK         0.5000 
     78 O          -4.9209  -25.9067  -45.2961 O.2       13 UNK        -0.5000 
     79 N          -2.7349  -25.4272  -45.6698 N.am      14 UNK        -0.5000 
     80 CA         -2.3938  -26.6162  -46.4502 C.3       14 UNK         0.1400 
     81 CB         -0.8641  -26.7539  -46.5019 C.3       14 UNK        -0.1800 
     82 C          -2.9767  -26.6168  -47.8759 C.2       14 UNK         0.5000 
     83 O          -3.3629  -27.6789  -48.3667 O.2       14 UNK        -0.5000 
     84 N          -3.0071  -25.4464  -48.5206 N.am      15 UNK        -0.5000 
     85 CA         -3.4139  -25.2466  -49.9085 C.3       15 UNK         0.1400 
     86 CB         -2.1463  -25.0506  -50.7609 C.3       15 UNK        -0.1800 
     87 C          -4.3487  -24.0324  -50.0303 C.2       15 UNK         0.5000 
     88 O          -4.5283  -23.2808  -49.0718 O.2       15 UNK        -0.5000 
     89 N          -4.9198  -23.8533  -51.2289 N.am      16 UNK        -0.5000 
     90 CA         -5.8293  -22.7552  -51.5755 C.3       16 UNK         0.1400 
     91 CB         -6.5301  -23.1002  -52.8973 C.3       16 UNK        -0.1800 
     92 C          -5.1527  -21.3703  -51.6617 C.2       16 UNK         0.5000 
     93 O          -5.8542  -20.3580  -51.6264 O.2       16 UNK        -0.5000 
     94 N          -3.8145  -21.3457  -51.7606 N.am      17 UNK        -0.5000 
     95 CA         -2.9588  -20.1575  -51.7519 C.3       17 UNK         0.1400 
     96 CB         -2.9941  -19.4956  -50.3572 C.3       17 UNK        -0.1800 
     97 C          -3.2823  -19.1992  -52.9151 C.2       17 UNK         0.5000 
     98 O          -3.2662  -19.6320  -54.0691 O.2       17 UNK        -0.5000 
     99 N          -3.5754  -17.9285  -52.6073 N.am      18 UNK        -0.5000 
    100 CA        -3.8896  -16.8621  -53.5613 C.3       18 UNK         0.1400 
    101 CB        -4.1291  -15.5540  -52.7923 C.3       18 UNK        -0.1800 
    102 C         -5.0858  -17.1668  -54.4829 C.2       18 UNK         0.5000 
    103 O         -5.0854  -16.7227  -55.6311 O.2       18 UNK        -0.5000 
    104 N         -6.0519  -17.9601  -53.9960 N.am      19 UNK        -0.5000 
    105 CA        -7.2181  -18.4121  -54.7609 C.3       19 UNK         0.1400 
    106 CB        -8.2399  -19.0416  -53.8023 C.3       19 UNK        -0.1800 
    107 C         -6.8680  -19.3882  -55.9040 C.2       19 UNK         0.5000 
    108 O         -7.6606  -19.5280  -56.8360 O.2       19 UNK        -0.5000 
    109 N         -5.6909  -20.0230  -55.8265 N.am      20 UNK        -0.5000 
    110 CA        -5.1258  -20.8959  -56.8548 C.3       20 UNK         0.1400 
    111 CB        -4.9140  -22.2937  -56.2502 C.3       20 UNK        -0.1800 
    112 C         -3.8141  -20.3197  -57.4237 C.2       20 UNK         0.5000 
    113 O         -3.0528  -21.0621  -58.0456 O.2       20 UNK        -0.5000 
    114 N         -3.5502  -19.0238  -57.1847 N.am      21 UNK        -0.5000 
    115 CA        -2.3544  -18.2737  -57.5902 C.3       21 UNK         0.1400 
    116 CB        -2.3878  -18.0023  -59.1083 C.3       21 UNK        -0.1800 
    117 C         -1.0372  -18.9342  -57.1228 C.2       21 UNK         0.5000 
    118 O         -0.0939  -19.0573  -57.9058 O.2       21 UNK        -0.5000 
    119 N         -1.0284  -19.3770  -55.8585 N.am      22 UNK        -0.5000 
    120 CA         0.0273  -20.1584  -55.1879 C.3       22 UNK         0.1400 
    121 C          0.0409  -21.6728  -55.5573 C.2       22 UNK         0.5000 
    122 N         -0.8445  -22.1762  -56.4092 N.am      22 UNK        -0.7600 
    123 O          0.8571  -22.4233  -55.0301 O.2       22 UNK        -0.5000 
    124 C124        1.4540  -19.5395  -55.2730 C.3       23 UNK        -0.0398 
    125 S125        1.5588  -17.8155  -54.6761 S.3       23 UNK        -0.2404 
    126 C126        2.6118  -17.9896  -53.1996 C.3       23 UNK        -0.0205 
    127 H127       -5.8497  -17.1937  -49.6634 H         1 UNK         0.0600 
    128 H128       -7.2308  -16.1886  -49.2169 H         1 UNK         0.0600 
    129 H129       -6.7803  -17.5699  -48.2112 H         1 UNK         0.0600 
    130 H130       -3.8944  -16.2679  -49.1584 H         1 UNK         0.3000 
    131 H131       -3.6090  -14.0101  -47.4000 H         1 UNK         0.0600 
    132 H132       -1.1339  -14.2107  -48.1908 H         1 UNK         0.0800 
    133 H133       -2.3600  -13.7618  -49.3215 H         1 UNK         0.0800 
    134 H134        0.7052  -15.7886  -49.0088 H         1 UNK         0.0800 
    135 H135       -0.2369  -16.9803  -48.1360 H         1 UNK         0.0800 
    136 H136        1.5029  -16.3248  -51.3608 H         1 UNK         0.1150 
    137 H137        1.8953  -20.4853  -52.3278 H         1 UNK         0.1150 
    138 H138       -0.3382  -19.2804  -48.8708 H         1 UNK         0.1150 
    139 H139       -0.5648  -21.5684  -49.7911 H         1 UNK         0.0800 
    140 H140        0.2768  -22.0208  -51.2419 H         1 UNK         0.0800 
    141 H141        1.1154  -20.6326  -47.6850 H         1 UNK         0.0800 
    142 H142        2.4575  -21.6256  -47.2278 H         1 UNK         0.0800 
    143 H143        0.7885  -23.5848  -46.9504 H         1 UNK         0.0600 
    144 H144        1.4858  -21.5897  -45.0908 H         1 UNK         0.3000 
    145 H145       -0.0219  -23.1742  -42.2266 H         1 UNK         0.0600 
    146 H146        2.3228  -22.9451  -41.4792 H         1 UNK         0.0600 
    147 H147        2.2031  -24.2290  -42.6729 H         1 UNK         0.0600 
    148 H148        2.8616  -22.6628  -43.1325 H         1 UNK         0.0600 
    149 H149        1.4316  -20.7458  -42.4444 H         1 UNK         0.3000 
    150 H150       -1.4052  -18.5936  -42.9700 H         1 UNK         0.0600 
    151 H151       -1.1761  -18.9273  -40.5503 H         1 UNK         0.0600 
    152 H152       -0.2261  -17.5287  -41.0294 H         1 UNK         0.0600 
    153 H153        0.5706  -19.0613  -40.6816 H         1 UNK         0.0600 
    154 H154        1.3241  -17.9187  -42.8943 H         1 UNK         0.3000 
    155 H155        2.1424  -18.4452  -46.3431 H         1 UNK         0.0600 
    156 H156        1.8135  -15.9539  -44.5849 H         1 UNK         0.0600 
    157 H157        1.1656  -16.1881  -46.1983 H         1 UNK         0.0600 
    158 H158        2.9017  -16.0907  -45.9668 H         1 UNK         0.0600 
    159 H159        3.6252  -17.6276  -44.0106 H         1 UNK         0.3000 
    160 H160        4.8752  -20.8743  -43.1829 H         1 UNK         0.0600 
    161 H161        6.2122  -18.3997  -44.4092 H         1 UNK         0.0600 
    162 H162        6.3091  -20.0351  -45.0514 H         1 UNK         0.0600 
    163 H163        7.0189  -19.6687  -43.4873 H         1 UNK         0.0600 
    164 H164        5.3402  -18.2691  -42.0919 H         1 UNK         0.3000 
    165 H165        2.6303  -18.1919  -39.8075 H         1 UNK         0.0600 
    166 H166        4.4346  -18.0202  -38.1193 H         1 UNK         0.0600 
    167 H167        4.2631  -19.6860  -38.6475 H         1 UNK         0.0600 
    168 H168        5.5997  -18.7125  -39.2489 H         1 UNK         0.0600 
    169 H169        4.8694  -16.4871  -40.0924 H         1 UNK         0.3000 
    170 H170        4.6135  -14.4335  -40.9022 H         1 UNK         0.0600 
    171 H171        5.7320  -15.6372  -42.8042 H         1 UNK         0.0600 
    172 H172        4.4250  -15.1553  -43.8795 H         1 UNK         0.0600 
    173 H173        5.4859  -13.9387  -43.1702 H         1 UNK         0.0600 
    174 H174        3.1105  -13.2597  -42.9461 H         1 UNK         0.3000 
    175 H175        1.3799  -11.3163  -40.7824 H         1 UNK         0.0600 
    176 H176        1.8211  -11.8883  -43.7628 H         1 UNK         0.0600 
    177 H177        1.2818  -10.3699  -43.0603 H         1 UNK         0.0600 
    178 H178        2.8899  -10.9702  -42.7073 H         1 UNK         0.0600 
    179 H179       -0.7164  -11.8767  -41.0588 H         1 UNK         0.3000 
    180 H180       -2.5423  -13.3109  -41.5774 H         1 UNK         0.0600 
    181 H181       -2.5917  -11.5967  -44.1274 H         1 UNK         0.0600 
    182 H182       -2.5286  -10.9788  -42.4822 H         1 UNK         0.0600 
    183 H183       -3.9532  -11.8410  -43.0333 H         1 UNK         0.0600 
    184 H184       -3.1761  -13.9596  -44.3322 H         1 UNK         0.3000 
    185 H185       -2.5793  -17.2922  -44.3219 H         1 UNK         0.0600 
    186 H186       -4.4389  -17.6753  -42.7105 H         1 UNK         0.0600 
    187 H187       -5.3912  -16.4076  -43.4753 H         1 UNK         0.0600 
    188 H188       -5.0094  -17.8845  -44.3576 H         1 UNK         0.0600 
    189 H189       -4.5617  -15.7061  -45.7131 H         1 UNK         0.3000 
    190 H190       -1.0268  -20.6373  -45.9543 H         1 UNK         0.3000 
    191 H191       -3.2589  -21.0920  -47.6943 H         1 UNK         0.0600 
    192 H192       -2.6548  -18.8615  -46.7491 H         1 UNK         0.0600 
    193 H193       -4.3057  -19.2952  -46.3326 H         1 UNK         0.0600 
    194 H194       -3.0294  -19.4486  -45.1277 H         1 UNK         0.0600 
    195 H195       -2.4056  -22.6462  -44.7169 H         1 UNK         0.3000 
    196 H196       -5.1398  -23.6532  -44.2219 H         1 UNK         0.0600 
    197 H197       -4.0652  -24.8943  -42.3782 H         1 UNK         0.0600 
    198 H198       -3.6445  -23.1899  -42.2900 H         1 UNK         0.0600 
    199 H199       -2.4722  -24.3578  -42.8913 H         1 UNK         0.0600 
    200 H200       -1.9690  -24.7959  -45.4556 H         1 UNK         0.3000 
    201 H201       -2.7929  -27.4892  -45.9295 H         1 UNK         0.0600 
    202 H202       -0.4414  -26.8370  -45.5004 H         1 UNK         0.0600 
    203 H203       -0.4011  -25.8951  -46.9896 H         1 UNK         0.0600 
    204 H204       -0.5690  -27.6462  -47.0555 H         1 UNK         0.0600 
    205 H205       -2.6731  -24.6060  -48.0516 H         1 UNK         0.3000 
    206 H206       -3.9611  -26.1181  -50.2732 H         1 UNK         0.0600 
    207 H207       -1.4800  -25.9091  -50.6752 H         1 UNK         0.0600 
    208 H208       -2.3871  -24.9358  -51.8181 H         1 UNK         0.0600 
    209 H209       -1.5881  -24.1661  -50.4506 H         1 UNK         0.0600 
    210 H210       -4.7267  -24.5183  -51.9640 H         1 UNK         0.3000 
    211 H211       -6.5910  -22.6859  -50.7961 H         1 UNK         0.0600 
    212 H212       -5.8063  -23.2957  -53.6868 H         1 UNK         0.0600 
    213 H213       -7.1761  -22.2880  -53.2324 H         1 UNK         0.0600 
    214 H214       -7.1549  -23.9871  -52.7907 H         1 UNK         0.0600 
    215 H215       -3.3381  -22.2324  -51.8254 H         1 UNK         0.3000 
    216 H216       -1.9401  -20.5029  -51.9303 H         1 UNK         0.0600 
    217 H217       -2.3585  -18.6148  -50.3205 H         1 UNK         0.0600 
    218 H218       -2.6167  -20.1839  -49.6047 H         1 UNK         0.0600 
    219 H219       -3.9980  -19.1930  -50.0585 H         1 UNK         0.0600 
    220 H220       -3.5580  -17.6633  -51.6346 H         1 UNK         0.3000 
    221 H221       -3.0145  -16.7283  -54.2005 H         1 UNK         0.0600 
    222 H222       -4.9436  -15.6514  -52.0734 H         1 UNK         0.0600 
    223 H223       -3.2356  -15.2457  -52.2505 H         1 UNK         0.0600 
    224 H224       -4.3865  -14.7408  -53.4724 H         1 UNK         0.0600 
    225 H225       -5.9559  -18.3281  -53.0583 H         1 UNK         0.3000 
    226 H226       -7.6798  -17.5333  -55.2158 H         1 UNK         0.0600 
    227 H227       -8.5240  -18.3453  -53.0131 H         1 UNK         0.0600 
    228 H228       -9.1511  -19.3211  -54.3324 H         1 UNK         0.0600 
    229 H229       -7.8481  -19.9421  -53.3307 H         1 UNK         0.0600 
    230 H230       -5.0844  -19.8374  -55.0344 H         1 UNK         0.3000 
    231 H231       -5.8098  -20.9923  -57.6999 H         1 UNK         0.0600 
    232 H232       -5.8632  -22.7204  -55.9280 H         1 UNK         0.0600 
    233 H233       -4.2422  -22.2613  -55.3912 H         1 UNK         0.0600 
    234 H234       -4.4873  -22.9844  -56.9785 H         1 UNK         0.0600 
    235 H235       -4.2373  -18.4910  -56.6663 H         1 UNK         0.3000 
    236 H236       -2.4085  -17.3102  -57.0812 H         1 UNK         0.0600 
    237 H237       -1.5635  -17.3545  -59.4088 H         1 UNK         0.0600 
    238 H238       -2.3082  -18.9240  -59.6856 H         1 UNK         0.0600 
    239 H239       -3.3127  -17.5039  -59.3986 H         1 UNK         0.0600 
    240 H240       -1.8875  -19.2948  -55.3218 H         1 UNK         0.3000 
    241 H241       -0.2561  -20.1440  -54.1351 H         1 UNK         0.0600 
    242 H242       -0.8143  -23.1614  -56.6167 H         1 UNK         0.3800 
    243 H243       -1.5203  -21.5908  -56.8874 H         1 UNK         0.3800 
    244 H244        2.1594  -20.1481  -54.7066 H         1 UNK         0.0800 
    245 H245        1.8233  -19.5645  -56.2984 H         1 UNK         0.0800 
    246 H246        3.4028  -18.7202  -53.3743 H         1 UNK         0.0800 
    247 H247        3.1196  -17.0398  -53.0251 H         1 UNK         0.0800 
@<TRIPOS>BOND
     1    1    2 1    
     2    1  127 1    
     3    1  128 1    
     4    1  129 1    
     5    2    3 2    
     6    2    4 am   BACKBONE|DICT|INTERRES
     7    4    5 1    
     8    4  130 1    
     9    5    6 1    
    10    5   65 1    
    11    5  131 1    
    12    6    7 1    
    13    6  132 1    
    14    6  133 1    
    15    7    8 1    
    16    8    9 1    
    17    8  134 1    
    18    8  135 1    
    19    9   10 ar   
    20    9   14 ar   
    21   10   11 ar   
    22   10  136 1    
    23   11   12 ar   
    24   11  126 1    
    25   12   13 ar   
    26   12  137 1    
    27   13   14 ar   
    28   13   15 1    
    29   14  138 1    
    30   15   16 1    
    31   15  139 1    
    32   15  140 1    
    33   16   17 1    
    34   17   18 1    
    35   17  141 1    
    36   17  142 1    
    37   18   19 1    
    38   18   67 1    
    39   18  143 1    
    40   19   20 am   BACKBONE|DICT|INTERRES
    41   19  144 1    
    42   20   21 2    
    43   20   22 1    
    44   22   23 1    
    45   22   24 1    
    46   22  145 1    
    47   23  146 1    
    48   23  147 1    
    49   23  148 1    
    50   24   25 am   BACKBONE|DICT|INTERRES
    51   24  149 1    
    52   25   26 2    
    53   25   27 1    
    54   27   28 1    
    55   27   29 1    
    56   27  150 1    
    57   28  151 1    
    58   28  152 1    
    59   28  153 1    
    60   29   30 am   BACKBONE|DICT|INTERRES
    61   29  154 1    
    62   30   31 2    
    63   30   32 1    
    64   32   33 1    
    65   32   34 1    
    66   32  155 1    
    67   33  156 1    
    68   33  157 1    
    69   33  158 1    
    70   34   35 am   BACKBONE|DICT|INTERRES
    71   34  159 1    
    72   35   36 2    
    73   35   37 1    
    74   37   38 1    
    75   37   39 1    
    76   37  160 1    
    77   38  161 1    
    78   38  162 1    
    79   38  163 1    
    80   39   40 am   BACKBONE|DICT|INTERRES
    81   39  164 1    
    82   40   41 2    
    83   40   42 1    
    84   42   43 1    
    85   42   44 1    
    86   42  165 1    
    87   43  166 1    
    88   43  167 1    
    89   43  168 1    
    90   44   45 am   BACKBONE|DICT|INTERRES
    91   44  169 1    
    92   45   46 2    
    93   45   47 1    
    94   47   48 1    
    95   47   49 1    
    96   47  170 1    
    97   48  171 1    
    98   48  172 1    
    99   48  173 1    
   100   49   50 am   BACKBONE|DICT|INTERRES
   101   49  174 1    
   102   50   51 2    
   103   50   52 1    
   104   52   53 1    
   105   52   54 1    
   106   52  175 1    
   107   53  176 1    
   108   53  177 1    
   109   53  178 1    
   110   54   55 am   BACKBONE|DICT|INTERRES
   111   54  179 1    
   112   55   56 2    
   113   55   57 1    
   114   57   58 1    
   115   57   59 1    
   116   57  180 1    
   117   58  181 1    
   118   58  182 1    
   119   58  183 1    
   120   59   60 am   BACKBONE|DICT|INTERRES
   121   59  184 1    
   122   60   61 2    
   123   60   62 1    
   124   62   63 1    
   125   62   64 1    
   126   62  185 1    
   127   63  186 1    
   128   63  187 1    
   129   63  188 1    
   130   64   65 am   BACKBONE|DICT|INTERRES
   131   64  189 1    
   132   65   66 2    
   133   67   68 2    
   134   67   69 am   BACKBONE|DICT|INTERRES
   135   69   70 1    
   136   69  190 1    
   137   70   71 1    
   138   70   72 1    
   139   70  191 1    
   140   71  192 1    
   141   71  193 1    
   142   71  194 1    
   143   72   73 2    
   144   72   74 am   BACKBONE|DICT|INTERRES
   145   74   75 1    
   146   74  195 1    
   147   75   76 1    
   148   75   77 1    
   149   75  196 1    
   150   76  197 1    
   151   76  198 1    
   152   76  199 1    
   153   77   78 2    
   154   77   79 am   BACKBONE|DICT|INTERRES
   155   79   80 1    
   156   79  200 1    
   157   80   81 1    
   158   80   82 1    
   159   80  201 1    
   160   81  202 1    
   161   81  203 1    
   162   81  204 1    
   163   82   83 2    
   164   82   84 am   BACKBONE|DICT|INTERRES
   165   84   85 1    
   166   84  205 1    
   167   85   86 1    
   168   85   87 1    
   169   85  206 1    
   170   86  207 1    
   171   86  208 1    
   172   86  209 1    
   173   87   88 2    
   174   87   89 am   BACKBONE|DICT|INTERRES
   175   89   90 1    
   176   89  210 1    
   177   90   91 1    
   178   90   92 1    
   179   90  211 1    
   180   91  212 1    
   181   91  213 1    
   182   91  214 1    
   183   92   93 2    
   184   92   94 am   BACKBONE|DICT|INTERRES
   185   94   95 1    
   186   94  215 1    
   187   95   96 1    
   188   95   97 1    
   189   95  216 1    
   190   96  217 1    
   191   96  218 1    
   192   96  219 1    
   193   97   98 2    
   194   97   99 am   BACKBONE|DICT|INTERRES
   195   99  100 1    
   196   99  220 1    
   197  100  101 1    
   198  100  102 1    
   199  100  221 1    
   200  101  222 1    
   201  101  223 1    
   202  101  224 1    
   203  102  103 2    
   204  102  104 am   BACKBONE|DICT|INTERRES
   205  104  105 1    
   206  104  225 1    
   207  105  106 1    
   208  105  107 1    
   209  105  226 1    
   210  106  227 1    
   211  106  228 1    
   212  106  229 1    
   213  107  108 2    
   214  107  109 am   BACKBONE|DICT|INTERRES
   215  109  110 1    
   216  109  230 1    
   217  110  111 1    
   218  110  112 1    
   219  110  231 1    
   220  111  232 1    
   221  111  233 1    
   222  111  234 1    
   223  112  113 2    
   224  112  114 am   BACKBONE|DICT|INTERRES
   225  114  115 1    
   226  114  235 1    
   227  115  116 1    
   228  115  117 1    
   229  115  236 1    
   230  116  237 1    
   231  116  238 1    
   232  116  239 1    
   233  117  118 2    
   234  117  119 am   BACKBONE|DICT|INTERRES
   235  119  120 1    
   236  119  240 1    
   237  120  121 1    
   238  120  124 1    
   239  120  241 1    
   240  121  122 am   BACKBONE|DICT|INTERRES
   241  121  123 2    
   242  122  242 1    
   243  122  243 1    
   244  124  125 1    
   245  124  244 1    
   246  124  245 1    
   247  125  126 1    
   248  126  246 1    
   249  126  247 1    
@<TRIPOS>SUBSTRUCTURE
     1 UNK         1 GROUP             0       ****    0 ROOT    
