@<TRIPOS>MOLECULE
3R540
247   249    1
SMALL
USER_CHARGES


@<TRIPOS>ATOM
      1 CA          3.7767  -13.3494  -45.4682 C.3       0 UNK        -0.1800 
      2 C           2.3641  -13.3422  -46.0313 C.2       0 UNK         0.5000 
      3 O           1.4127  -13.1012  -45.2889 O.2       0 UNK        -0.5000 
      4 N           2.2200  -13.6062  -47.3367 N.am      1 UNK        -0.5000 
      5 CA          0.9378  -13.7075  -48.0477 C.3       1 UNK         0.1400 
      6 C6          1.1167  -14.1707  -49.5123 C.3       23 UNK        -0.0398 
      7 S7          1.8224  -15.8466  -49.6400 S.3       23 UNK        -0.2404 
      8 C8          0.3109  -16.8587  -49.6506 C.3       23 UNK        -0.0205 
      9 C9          0.4403  -18.0333  -50.6041 C.ar      23 UNK        -0.0193 
     10 C10         0.1511  -17.8677  -51.9614 C.ar      23 UNK        -0.1150 
     11 C11         0.2405  -18.9458  -52.8510 C.ar      23 UNK        -0.0193 
     12 C12         0.6012  -20.2022  -52.3544 C.ar      23 UNK        -0.1150 
     13 C13         0.8792  -20.3833  -50.9961 C.ar      23 UNK        -0.0193 
     14 C14         0.8166  -19.2901  -50.1285 C.ar      23 UNK        -0.1150 
     15 C15         1.2032  -21.7703  -50.4677 C.3       23 UNK        -0.0205 
     16 S16        -0.3103  -22.6141  -49.9070 S.3       23 UNK        -0.2404 
     17 C17        -0.4564  -22.0230  -48.1890 C.3       23 UNK        -0.0398 
     18 CA         -0.2717  -23.1752  -47.1711 C.3       11 UNK         0.1400 
     19 N           0.5099  -22.7581  -46.0059 N.am      11 UNK        -0.5000 
     20 C           1.0185  -23.5983  -45.0949 C.2       10 UNK         0.5000 
     21 O           0.9099  -24.8221  -45.1595 O.2       10 UNK        -0.5000 
     22 CA          1.7242  -22.9607  -43.8858 C.3       10 UNK         0.1400 
     23 CB          3.1813  -22.6201  -44.2306 C.3       10 UNK        -0.1800 
     24 N           1.0361  -21.7604  -43.4076 N.am      10 UNK        -0.5000 
     25 C          -0.2042  -21.7517  -42.8985 C.2       9 UNK         0.5000 
     26 O          -0.8740  -22.7691  -42.7219 O.2       9 UNK        -0.5000 
     27 CA         -0.8243  -20.3764  -42.5917 C.3       9 UNK         0.1400 
     28 CB         -0.3218  -19.8378  -41.2451 C.3       9 UNK        -0.1800 
     29 N          -0.5703  -19.3904  -43.6437 N.am      9 UNK        -0.5000 
     30 C          -0.9967  -19.4965  -44.9107 C.2       8 UNK         0.5000 
     31 O          -1.6624  -20.4410  -45.3339 O.2       8 UNK        -0.5000 
     32 CA         -0.5648  -18.3866  -45.8825 C.3       8 UNK         0.1400 
     33 CB         -1.4775  -17.1573  -45.7631 C.3       8 UNK        -0.1800 
     34 N           0.8243  -17.9889  -45.6646 N.am      8 UNK        -0.5000 
     35 C           1.8819  -18.7421  -45.9955 C.2       7 UNK         0.5000 
     36 O           1.7960  -19.8394  -46.5462 O.2       7 UNK        -0.5000 
     37 CA          3.2644  -18.1912  -45.6040 C.3       7 UNK         0.1400 
     38 CB          3.7207  -17.1180  -46.6029 C.3       7 UNK        -0.1800 
     39 N           3.2876  -17.6394  -44.2475 N.am      7 UNK        -0.5000 
     40 C           3.0963  -18.3658  -43.1376 C.2       6 UNK         0.5000 
     41 O           2.8859  -19.5775  -43.1412 O.2       6 UNK        -0.5000 
     42 CA          3.1074  -17.6132  -41.7956 C.3       6 UNK         0.1400 
     43 CB          4.5455  -17.4746  -41.2742 C.3       6 UNK        -0.1800 
     44 N           2.4755  -16.2909  -41.8170 N.am      6 UNK        -0.5000 
     45 C           1.2376  -16.0006  -42.2432 C.2       5 UNK         0.5000 
     46 O           0.5033  -16.8156  -42.8065 O.2       5 UNK        -0.5000 
     47 CA          0.7338  -14.5682  -41.9737 C.3       5 UNK         0.1400 
     48 CB          1.8631  -13.5464  -41.7289 C.3       5 UNK        -0.1800 
     49 N          -0.0880  -14.0837  -43.0763 N.am      5 UNK        -0.5000 
     50 C          -1.4228  -14.1554  -43.1522 C.2       4 UNK         0.5000 
     51 O          -2.1337  -14.7028  -42.3071 O.2       4 UNK        -0.5000 
     52 CA         -2.0549  -13.4458  -44.3707 C.3       4 UNK         0.1400 
     53 CB         -3.5852  -13.2856  -44.2644 C.3       4 UNK        -0.1800 
     54 N          -1.4053  -12.1584  -44.6453 N.am      4 UNK        -0.5000 
     55 C          -1.2974  -11.1041  -43.8199 C.2       3 UNK         0.5000 
     56 O          -1.8939  -11.0058  -42.7470 O.2       3 UNK        -0.5000 
     57 CA         -0.3249   -9.9829  -44.2370 C.3       3 UNK         0.1400 
     58 CB          0.9018   -9.9705  -43.3100 C.3       3 UNK        -0.1800 
     59 N           0.1487  -10.1350  -45.6125 N.am      3 UNK        -0.5000 
     60 C          -0.4105   -9.5616  -46.6851 C.2       2 UNK         0.5000 
     61 O          -1.3728   -8.7952  -46.6313 O.2       2 UNK        -0.5000 
     62 CA          0.2044   -9.9161  -48.0534 C.3       2 UNK         0.1400 
     63 CB          1.2633   -8.8769  -48.4521 C.3       2 UNK        -0.1800 
     64 N           0.8082  -11.2516  -48.0909 N.am      2 UNK        -0.5000 
     65 C           0.1211  -12.4002  -48.0110 C.2       1 UNK         0.5000 
     66 O          -1.1016  -12.4571  -47.8823 O.2       1 UNK        -0.5000 
     67 C          -1.6244  -23.7962  -46.7653 C.2       11 UNK         0.5000 
     68 O          -2.0401  -24.7961  -47.3526 O.2       11 UNK        -0.5000 
     69 N          -2.2840  -23.2070  -45.7587 N.am      12 UNK        -0.5000 
     70 CA         -3.5158  -23.7169  -45.1567 C.3       12 UNK         0.1400 
     71 CB         -4.1166  -22.6556  -44.2243 C.3       12 UNK        -0.1800 
     72 C          -3.3009  -25.0520  -44.4237 C.2       12 UNK         0.5000 
     73 O          -4.1125  -25.9622  -44.5868 O.2       12 UNK        -0.5000 
     74 N          -2.1880  -25.1734  -43.6855 N.am      13 UNK        -0.5000 
     75 CA         -1.7590  -26.4093  -43.0224 C.3       13 UNK         0.1400 
     76 CB         -0.5533  -26.1158  -42.1173 C.3       13 UNK        -0.1800 
     77 C          -1.4369  -27.5449  -44.0152 C.2       13 UNK         0.5000 
     78 O          -1.7310  -28.7057  -43.7290 O.2       13 UNK        -0.5000 
     79 N          -0.8847  -27.1837  -45.1815 N.am      14 UNK        -0.5000 
     80 CA         -0.6380  -28.0765  -46.3167 C.3       14 UNK         0.1400 
     81 CB          0.4189  -27.4312  -47.2283 C.3       14 UNK        -0.1800 
     82 C          -1.9096  -28.4224  -47.1238 C.2       14 UNK         0.5000 
     83 O          -1.8315  -29.2531  -48.0295 O.2       14 UNK        -0.5000 
     84 N          -3.0417  -27.7763  -46.8028 N.am      15 UNK        -0.5000 
     85 CA         -4.3629  -27.8885  -47.4334 C.3       15 UNK         0.1400 
     86 CB         -4.9156  -29.3252  -47.3266 C.3       15 UNK        -0.1800 
     87 C          -4.4281  -27.3276  -48.8707 C.2       15 UNK         0.5000 
     88 O          -5.3868  -27.6103  -49.5912 O.2       15 UNK        -0.5000 
     89 N          -3.4332  -26.5187  -49.2558 N.am      16 UNK        -0.5000 
     90 CA         -3.3906  -25.7883  -50.5226 C.3       16 UNK         0.1400 
     91 CB         -1.9281  -25.6489  -50.9657 C.3       16 UNK        -0.1800 
     92 C          -4.0816  -24.4158  -50.4090 C.2       16 UNK         0.5000 
     93 O          -4.6176  -23.9243  -51.4025 O.2       16 UNK        -0.5000 
     94 N          -4.0765  -23.8393  -49.1960 N.am      17 UNK        -0.5000 
     95 CA         -4.8414  -22.6665  -48.7502 C.3       17 UNK         0.1400 
     96 CB         -6.3266  -23.0491  -48.5920 C.3       17 UNK        -0.1800 
     97 C          -4.6390  -21.3939  -49.6004 C.2       17 UNK         0.5000 
     98 O          -5.5759  -20.6133  -49.7706 O.2       17 UNK        -0.5000 
     99 N          -3.4136  -21.2166  -50.1140 N.am      18 UNK        -0.5000 
    100 CA        -2.9639  -20.1262  -50.9878 C.3       18 UNK         0.1400 
    101 CB        -3.0734  -18.7558  -50.2850 C.3       18 UNK        -0.1800 
    102 C         -3.5984  -20.1449  -52.3961 C.2       18 UNK         0.5000 
    103 O         -3.5724  -19.1242  -53.0862 O.2       18 UNK        -0.5000 
    104 N         -4.1198  -21.3130  -52.8071 N.am      19 UNK        -0.5000 
    105 CA        -4.7715  -21.6008  -54.0880 C.3       19 UNK         0.1400 
    106 CB        -3.7482  -21.5004  -55.2419 C.3       19 UNK        -0.1800 
    107 C         -6.0449  -20.7556  -54.3225 C.2       19 UNK         0.5000 
    108 O         -6.6293  -20.2325  -53.3704 O.2       19 UNK        -0.5000 
    109 N         -6.4808  -20.6600  -55.5859 N.am      20 UNK        -0.5000 
    110 CA        -7.6043  -19.8169  -56.0043 C.3       20 UNK         0.1400 
    111 CB        -8.0796  -20.2633  -57.3957 C.3       20 UNK        -0.1800 
    112 C         -7.2394  -18.3193  -56.0120 C.2       20 UNK         0.5000 
    113 O         -8.1003  -17.4799  -55.7453 O.2       20 UNK        -0.5000 
    114 N         -5.9697  -18.0215  -56.3075 N.am      21 UNK        -0.5000 
    115 CA        -5.3577  -16.6998  -56.3476 C.3       21 UNK         0.1400 
    116 CB        -5.8769  -15.9020  -57.5606 C.3       21 UNK        -0.1800 
    117 C         -3.8350  -16.8883  -56.4301 C.2       21 UNK         0.5000 
    118 O         -3.3721  -17.9825  -56.7671 O.2       21 UNK        -0.5000 
    119 N         -3.0884  -15.8159  -56.1499 N.am      22 UNK        -0.5000 
    120 CA        -1.6182  -15.7759  -56.2218 C.3       22 UNK         0.1400 
    121 C         -1.0682  -14.4498  -56.8280 C.2       22 UNK         0.5000 
    122 N         -1.8824  -13.6385  -57.4940 N.am      22 UNK        -0.7600 
    123 O          0.1158  -14.1475  -56.7093 O.2       22 UNK        -0.5000 
    124 C124       -0.9635  -16.1573  -54.8622 C.3       23 UNK        -0.0398 
    125 S125        0.4988  -17.2329  -55.0769 S.3       23 UNK        -0.2404 
    126 C126       -0.0813  -18.7989  -54.3382 C.3       23 UNK        -0.0205 
    127 H127        4.5213  -13.5287  -46.2440 H         1 UNK         0.0600 
    128 H128        3.9965  -12.3911  -44.9978 H         1 UNK         0.0600 
    129 H129        3.8744  -14.1307  -44.7149 H         1 UNK         0.0600 
    130 H130        3.0392  -13.8051  -47.8934 H         1 UNK         0.3000 
    131 H131        0.3431  -14.4610  -47.5262 H         1 UNK         0.0600 
    132 H132        1.7800  -13.4875  -50.0456 H         1 UNK         0.0800 
    133 H133        0.1702  -14.1409  -50.0552 H         1 UNK         0.0800 
    134 H134       -0.5581  -16.2658  -49.9378 H         1 UNK         0.0800 
    135 H135        0.1150  -17.2080  -48.6367 H         1 UNK         0.0800 
    136 H136       -0.1443  -16.8922  -52.3166 H         1 UNK         0.1150 
    137 H137        0.6457  -21.0505  -53.0232 H         1 UNK         0.1150 
    138 H138        1.0387  -19.4171  -49.0795 H         1 UNK         0.1150 
    139 H139        1.6653  -22.3679  -51.2549 H         1 UNK         0.0800 
    140 H140        1.9353  -21.7162  -49.6603 H         1 UNK         0.0800 
    141 H141        0.3039  -21.2631  -48.0293 H         1 UNK         0.0800 
    142 H142       -1.4049  -21.4992  -48.0576 H         1 UNK         0.0800 
    143 H143        0.3086  -23.9698  -47.6456 H         1 UNK         0.0600 
    144 H144        0.6593  -21.7644  -45.8861 H         1 UNK         0.3000 
    145 H145        1.7266  -23.6929  -43.0761 H         1 UNK         0.0600 
    146 H146        3.7175  -22.2557  -43.3542 H         1 UNK         0.0600 
    147 H147        3.7138  -23.4995  -44.5949 H         1 UNK         0.0600 
    148 H148        3.2432  -21.8525  -45.0031 H         1 UNK         0.0600 
    149 H149        1.5529  -20.8867  -43.4703 H         1 UNK         0.3000 
    150 H150       -1.9058  -20.5085  -42.5211 H         1 UNK         0.0600 
    151 H151       -0.5746  -20.5217  -40.4340 H         1 UNK         0.0600 
    152 H152       -0.7720  -18.8727  -41.0115 H         1 UNK         0.0600 
    153 H153        0.7602  -19.7133  -41.2423 H         1 UNK         0.0600 
    154 H154       -0.0570  -18.5550  -43.3745 H         1 UNK         0.3000 
    155 H155       -0.6573  -18.7799  -46.8972 H         1 UNK         0.0600 
    156 H156       -1.1902  -16.3805  -46.4717 H         1 UNK         0.0600 
    157 H157       -1.4449  -16.7286  -44.7614 H         1 UNK         0.0600 
    158 H158       -2.5147  -17.4218  -45.9724 H         1 UNK         0.0600 
    159 H159        0.9767  -17.1464  -45.1285 H         1 UNK         0.3000 
    160 H160        3.9758  -19.0190  -45.6430 H         1 UNK         0.0600 
    161 H161        3.0412  -16.2664  -46.6149 H         1 UNK         0.0600 
    162 H162        3.7559  -17.5203  -47.6163 H         1 UNK         0.0600 
    163 H163        4.7188  -16.7507  -46.3639 H         1 UNK         0.0600 
    164 H164        3.4468  -16.6480  -44.1525 H         1 UNK         0.3000 
    165 H165        2.5508  -18.2192  -41.0796 H         1 UNK         0.0600 
    166 H166        5.1471  -16.8314  -41.9178 H         1 UNK         0.0600 
    167 H167        4.5628  -17.0546  -40.2684 H         1 UNK         0.0600 
    168 H168        5.0398  -18.4460  -41.2263 H         1 UNK         0.0600 
    169 H169        3.0035  -15.5486  -41.3819 H         1 UNK         0.3000 
    170 H170        0.1299  -14.6157  -41.0655 H         1 UNK         0.0600 
    171 H171        2.4475  -13.7935  -40.8419 H         1 UNK         0.0600 
    172 H172        2.5447  -13.4828  -42.5779 H         1 UNK         0.0600 
    173 H173        1.4522  -12.5508  -41.5612 H         1 UNK         0.0600 
    174 H174        0.4150  -13.6521  -43.8489 H         1 UNK         0.3000 
    175 H175       -1.8493  -14.0798  -45.2342 H         1 UNK         0.0600 
    176 H176       -3.9901  -12.7874  -45.1452 H         1 UNK         0.0600 
    177 H177       -4.0733  -14.2579  -44.1884 H         1 UNK         0.0600 
    178 H178       -3.8744  -12.7058  -43.3876 H         1 UNK         0.0600 
    179 H179       -0.8680  -12.1267  -45.5007 H         1 UNK         0.3000 
    180 H180       -0.8492   -9.0318  -44.1230 H         1 UNK         0.0600 
    181 H181        1.5650   -9.1384  -43.5469 H         1 UNK         0.0600 
    182 H182        0.6068   -9.8624  -42.2655 H         1 UNK         0.0600 
    183 H183        1.4784  -10.8923  -43.3959 H         1 UNK         0.0600 
    184 H184        0.9214  -10.7717  -45.7511 H         1 UNK         0.3000 
    185 H185       -0.5990   -9.8863  -48.7926 H         1 UNK         0.0600 
    186 H186        1.6506   -9.0716  -49.4524 H         1 UNK         0.0600 
    187 H187        0.8404   -7.8713  -48.4591 H         1 UNK         0.0600 
    188 H188        2.1057   -8.8738  -47.7593 H         1 UNK         0.0600 
    189 H189        1.8133  -11.2948  -48.1795 H         1 UNK         0.3000 
    190 H190       -1.9151  -22.3406  -45.3755 H         1 UNK         0.3000 
    191 H191       -4.2326  -23.9024  -45.9583 H         1 UNK         0.0600 
    192 H192       -5.0595  -23.0001  -43.7979 H         1 UNK         0.0600 
    193 H193       -4.3208  -21.7298  -44.7626 H         1 UNK         0.0600 
    194 H194       -3.4491  -22.4190  -43.3960 H         1 UNK         0.0600 
    195 H195       -1.6001  -24.3552  -43.5502 H         1 UNK         0.3000 
    196 H196       -2.5821  -26.7482  -42.3901 H         1 UNK         0.0600 
    197 H197       -0.2443  -27.0111  -41.5766 H         1 UNK         0.0600 
    198 H198       -0.7933  -25.3537  -41.3755 H         1 UNK         0.0600 
    199 H199        0.3054  -25.7660  -42.6899 H         1 UNK         0.0600 
    200 H200       -0.5991  -26.2175  -45.2996 H         1 UNK         0.3000 
    201 H201       -0.2304  -29.0152  -45.9362 H         1 UNK         0.0600 
    202 H202        1.3374  -27.2209  -46.6801 H         1 UNK         0.0600 
    203 H203        0.0634  -26.4943  -47.6570 H         1 UNK         0.0600 
    204 H204        0.6804  -28.0913  -48.0562 H         1 UNK         0.0600 
    205 H205       -2.9966  -27.1093  -46.0422 H         1 UNK         0.3000 
    206 H206       -5.0210  -27.2484  -46.8447 H         1 UNK         0.0600 
    207 H207       -4.8605  -29.6934  -46.3021 H         1 UNK         0.0600 
    208 H208       -5.9631  -29.3643  -47.6273 H         1 UNK         0.0600 
    209 H209       -4.3695  -30.0203  -47.9645 H         1 UNK         0.0600 
    210 H210       -2.7137  -26.2923  -48.5780 H         1 UNK         0.3000 
    211 H211       -3.9194  -26.3534  -51.2930 H         1 UNK         0.0600 
    212 H212       -1.3014  -25.2684  -50.1603 H         1 UNK         0.0600 
    213 H213       -1.8301  -24.9736  -51.8169 H         1 UNK         0.0600 
    214 H214       -1.5210  -26.6142  -51.2666 H         1 UNK         0.0600 
    215 H215       -3.5359  -24.3068  -48.4753 H         1 UNK         0.3000 
    216 H216       -4.4619  -22.4109  -47.7610 H         1 UNK         0.0600 
    217 H217       -6.8977  -22.2389  -48.1372 H         1 UNK         0.0600 
    218 H218       -6.4418  -23.9231  -47.9507 H         1 UNK         0.0600 
    219 H219       -6.7862  -23.2766  -49.5544 H         1 UNK         0.0600 
    220 H220       -2.7260  -21.9383  -49.9454 H         1 UNK         0.3000 
    221 H221       -1.9055  -20.3112  -51.1542 H         1 UNK         0.0600 
    222 H222       -2.6054  -17.9727  -50.8817 H         1 UNK         0.0600 
    223 H223       -2.5700  -18.7681  -49.3182 H         1 UNK         0.0600 
    224 H224       -4.1100  -18.4604  -50.1246 H         1 UNK         0.0600 
    225 H225       -4.1447  -22.0805  -52.1439 H         1 UNK         0.3000 
    226 H226       -5.1027  -22.6382  -54.0252 H         1 UNK         0.0600 
    227 H227       -4.1440  -21.9188  -56.1674 H         1 UNK         0.0600 
    228 H228       -3.4614  -20.4673  -55.4414 H         1 UNK         0.0600 
    229 H229       -2.8396  -22.0558  -55.0086 H         1 UNK         0.0600 
    230 H230       -5.9734  -21.1368  -56.3170 H         1 UNK         0.3000 
    231 H231       -8.4295  -19.9571  -55.3027 H         1 UNK         0.0600 
    232 H232       -8.9309  -19.6667  -57.7264 H         1 UNK         0.0600 
    233 H233       -8.3983  -21.3059  -57.3881 H         1 UNK         0.0600 
    234 H234       -7.2938  -20.1567  -58.1446 H         1 UNK         0.0600 
    235 H235       -5.3096  -18.7696  -56.4811 H         1 UNK         0.3000 
    236 H236       -5.5955  -16.1715  -55.4222 H         1 UNK         0.0600 
    237 H237       -5.6692  -16.4200  -58.4978 H         1 UNK         0.0600 
    238 H238       -6.9526  -15.7369  -57.5025 H         1 UNK         0.0600 
    239 H239       -5.4077  -14.9194  -57.6173 H         1 UNK         0.0600 
    240 H240       -3.5362  -14.9543  -55.8704 H         1 UNK         0.3000 
    241 H241       -1.3198  -16.5209  -56.9619 H         1 UNK         0.0600 
    242 H242       -1.5118  -12.7854  -57.8837 H         1 UNK         0.3800 
    243 H243       -2.8443  -13.8835  -57.6642 H         1 UNK         0.3800 
    244 H244       -1.6829  -16.6748  -54.2258 H         1 UNK         0.0800 
    245 H245       -0.6723  -15.2708  -54.2963 H         1 UNK         0.0800 
    246 H246        0.3907  -19.6102  -54.8943 H         1 UNK         0.0800 
    247 H247       -1.1550  -18.9166  -54.4922 H         1 UNK         0.0800 
@<TRIPOS>BOND
     1    1    2 1    
     2    1  127 1    
     3    1  128 1    
     4    1  129 1    
     5    2    3 2    
     6    2    4 am   BACKBONE|DICT|INTERRES
     7    4    5 1    
     8    4  130 1    
     9    5    6 1    
    10    5   65 1    
    11    5  131 1    
    12    6    7 1    
    13    6  132 1    
    14    6  133 1    
    15    7    8 1    
    16    8    9 1    
    17    8  134 1    
    18    8  135 1    
    19    9   10 ar   
    20    9   14 ar   
    21   10   11 ar   
    22   10  136 1    
    23   11   12 ar   
    24   11  126 1    
    25   12   13 ar   
    26   12  137 1    
    27   13   14 ar   
    28   13   15 1    
    29   14  138 1    
    30   15   16 1    
    31   15  139 1    
    32   15  140 1    
    33   16   17 1    
    34   17   18 1    
    35   17  141 1    
    36   17  142 1    
    37   18   19 1    
    38   18   67 1    
    39   18  143 1    
    40   19   20 am   BACKBONE|DICT|INTERRES
    41   19  144 1    
    42   20   21 2    
    43   20   22 1    
    44   22   23 1    
    45   22   24 1    
    46   22  145 1    
    47   23  146 1    
    48   23  147 1    
    49   23  148 1    
    50   24   25 am   BACKBONE|DICT|INTERRES
    51   24  149 1    
    52   25   26 2    
    53   25   27 1    
    54   27   28 1    
    55   27   29 1    
    56   27  150 1    
    57   28  151 1    
    58   28  152 1    
    59   28  153 1    
    60   29   30 am   BACKBONE|DICT|INTERRES
    61   29  154 1    
    62   30   31 2    
    63   30   32 1    
    64   32   33 1    
    65   32   34 1    
    66   32  155 1    
    67   33  156 1    
    68   33  157 1    
    69   33  158 1    
    70   34   35 am   BACKBONE|DICT|INTERRES
    71   34  159 1    
    72   35   36 2    
    73   35   37 1    
    74   37   38 1    
    75   37   39 1    
    76   37  160 1    
    77   38  161 1    
    78   38  162 1    
    79   38  163 1    
    80   39   40 am   BACKBONE|DICT|INTERRES
    81   39  164 1    
    82   40   41 2    
    83   40   42 1    
    84   42   43 1    
    85   42   44 1    
    86   42  165 1    
    87   43  166 1    
    88   43  167 1    
    89   43  168 1    
    90   44   45 am   BACKBONE|DICT|INTERRES
    91   44  169 1    
    92   45   46 2    
    93   45   47 1    
    94   47   48 1    
    95   47   49 1    
    96   47  170 1    
    97   48  171 1    
    98   48  172 1    
    99   48  173 1    
   100   49   50 am   BACKBONE|DICT|INTERRES
   101   49  174 1    
   102   50   51 2    
   103   50   52 1    
   104   52   53 1    
   105   52   54 1    
   106   52  175 1    
   107   53  176 1    
   108   53  177 1    
   109   53  178 1    
   110   54   55 am   BACKBONE|DICT|INTERRES
   111   54  179 1    
   112   55   56 2    
   113   55   57 1    
   114   57   58 1    
   115   57   59 1    
   116   57  180 1    
   117   58  181 1    
   118   58  182 1    
   119   58  183 1    
   120   59   60 am   BACKBONE|DICT|INTERRES
   121   59  184 1    
   122   60   61 2    
   123   60   62 1    
   124   62   63 1    
   125   62   64 1    
   126   62  185 1    
   127   63  186 1    
   128   63  187 1    
   129   63  188 1    
   130   64   65 am   BACKBONE|DICT|INTERRES
   131   64  189 1    
   132   65   66 2    
   133   67   68 2    
   134   67   69 am   BACKBONE|DICT|INTERRES
   135   69   70 1    
   136   69  190 1    
   137   70   71 1    
   138   70   72 1    
   139   70  191 1    
   140   71  192 1    
   141   71  193 1    
   142   71  194 1    
   143   72   73 2    
   144   72   74 am   BACKBONE|DICT|INTERRES
   145   74   75 1    
   146   74  195 1    
   147   75   76 1    
   148   75   77 1    
   149   75  196 1    
   150   76  197 1    
   151   76  198 1    
   152   76  199 1    
   153   77   78 2    
   154   77   79 am   BACKBONE|DICT|INTERRES
   155   79   80 1    
   156   79  200 1    
   157   80   81 1    
   158   80   82 1    
   159   80  201 1    
   160   81  202 1    
   161   81  203 1    
   162   81  204 1    
   163   82   83 2    
   164   82   84 am   BACKBONE|DICT|INTERRES
   165   84   85 1    
   166   84  205 1    
   167   85   86 1    
   168   85   87 1    
   169   85  206 1    
   170   86  207 1    
   171   86  208 1    
   172   86  209 1    
   173   87   88 2    
   174   87   89 am   BACKBONE|DICT|INTERRES
   175   89   90 1    
   176   89  210 1    
   177   90   91 1    
   178   90   92 1    
   179   90  211 1    
   180   91  212 1    
   181   91  213 1    
   182   91  214 1    
   183   92   93 2    
   184   92   94 am   BACKBONE|DICT|INTERRES
   185   94   95 1    
   186   94  215 1    
   187   95   96 1    
   188   95   97 1    
   189   95  216 1    
   190   96  217 1    
   191   96  218 1    
   192   96  219 1    
   193   97   98 2    
   194   97   99 am   BACKBONE|DICT|INTERRES
   195   99  100 1    
   196   99  220 1    
   197  100  101 1    
   198  100  102 1    
   199  100  221 1    
   200  101  222 1    
   201  101  223 1    
   202  101  224 1    
   203  102  103 2    
   204  102  104 am   BACKBONE|DICT|INTERRES
   205  104  105 1    
   206  104  225 1    
   207  105  106 1    
   208  105  107 1    
   209  105  226 1    
   210  106  227 1    
   211  106  228 1    
   212  106  229 1    
   213  107  108 2    
   214  107  109 am   BACKBONE|DICT|INTERRES
   215  109  110 1    
   216  109  230 1    
   217  110  111 1    
   218  110  112 1    
   219  110  231 1    
   220  111  232 1    
   221  111  233 1    
   222  111  234 1    
   223  112  113 2    
   224  112  114 am   BACKBONE|DICT|INTERRES
   225  114  115 1    
   226  114  235 1    
   227  115  116 1    
   228  115  117 1    
   229  115  236 1    
   230  116  237 1    
   231  116  238 1    
   232  116  239 1    
   233  117  118 2    
   234  117  119 am   BACKBONE|DICT|INTERRES
   235  119  120 1    
   236  119  240 1    
   237  120  121 1    
   238  120  124 1    
   239  120  241 1    
   240  121  122 am   BACKBONE|DICT|INTERRES
   241  121  123 2    
   242  122  242 1    
   243  122  243 1    
   244  124  125 1    
   245  124  244 1    
   246  124  245 1    
   247  125  126 1    
   248  126  246 1    
   249  126  247 1    
@<TRIPOS>SUBSTRUCTURE
     1 UNK         1 GROUP             0       ****    0 ROOT    
