@<TRIPOS>MOLECULE
3R540
247   249    1
SMALL
USER_CHARGES


@<TRIPOS>ATOM
      1 CA          4.2039  -15.2004  -50.1660 C.3       0 UNK        -0.1800 
      2 C           3.2518  -14.7020  -49.0880 C.2       0 UNK         0.5000 
      3 O           3.6190  -14.6752  -47.9140 O.2       0 UNK        -0.5000 
      4 N           2.0353  -14.3061  -49.4842 N.am      1 UNK        -0.5000 
      5 CA          1.0196  -13.6928  -48.6236 C.3       1 UNK         0.1400 
      6 C6         -0.3299  -13.5174  -49.3653 C.3       23 UNK        -0.0398 
      7 S7         -1.2814  -15.0681  -49.5089 S.3       23 UNK        -0.2404 
      8 C8         -0.9397  -15.6136  -51.2188 C.3       23 UNK        -0.0205 
      9 C9          0.3313  -16.4470  -51.3890 C.ar      23 UNK        -0.0193 
     10 C10         0.9707  -16.4623  -52.6319 C.ar      23 UNK        -0.1150 
     11 C11         2.1203  -17.2307  -52.8384 C.ar      23 UNK        -0.0193 
     12 C12         2.6537  -17.9685  -51.7783 C.ar      23 UNK        -0.1150 
     13 C13         2.0399  -17.9482  -50.5241 C.ar      23 UNK        -0.0193 
     14 C14         0.8673  -17.2117  -50.3448 C.ar      23 UNK        -0.1150 
     15 C15         2.6779  -18.6641  -49.3441 C.3       23 UNK        -0.0205 
     16 S16         2.3641  -20.4521  -49.3578 S.3       23 UNK        -0.2404 
     17 C17         0.5642  -20.5326  -49.0840 C.3       23 UNK        -0.0398 
     18 CA          0.1854  -21.7693  -48.2391 C.3       11 UNK         0.1400 
     19 N           0.4412  -21.5840  -46.8082 N.am      11 UNK        -0.5000 
     20 C           0.4353  -22.5843  -45.9162 C.2       10 UNK         0.5000 
     21 O           0.2485  -23.7635  -46.2168 O.2       10 UNK        -0.5000 
     22 CA          0.6167  -22.2035  -44.4367 C.3       10 UNK         0.1400 
     23 CB          2.0907  -21.9086  -44.1214 C.3       10 UNK        -0.1800 
     24 N          -0.2171  -21.0673  -44.0426 N.am      10 UNK        -0.5000 
     25 C          -1.5581  -21.0725  -44.0539 C.2       9 UNK         0.5000 
     26 O          -2.2343  -22.0533  -44.3631 O.2       9 UNK        -0.5000 
     27 CA         -2.2668  -19.7507  -43.7061 C.3       9 UNK         0.1400 
     28 CB         -2.3203  -19.5394  -42.1859 C.3       9 UNK        -0.1800 
     29 N          -1.6457  -18.5889  -44.3405 N.am      9 UNK        -0.5000 
     30 C          -1.5445  -18.4004  -45.6636 C.2       8 UNK         0.5000 
     31 O          -1.9924  -19.1771  -46.5044 O.2       8 UNK        -0.5000 
     32 CA         -0.7489  -17.1684  -46.1239 C.3       8 UNK         0.1400 
     33 CB         -1.5901  -15.8881  -46.0036 C.3       8 UNK        -0.1800 
     34 N           0.4989  -17.0174  -45.3762 N.am      8 UNK        -0.5000 
     35 C           1.5089  -17.8992  -45.4029 C.2       7 UNK         0.5000 
     36 O           1.5067  -18.9238  -46.0848 O.2       7 UNK        -0.5000 
     37 CA          2.6955  -17.6090  -44.4679 C.3       7 UNK         0.1400 
     38 CB          3.6259  -16.5522  -45.0801 C.3       7 UNK        -0.1800 
     39 N           2.2600  -17.1675  -43.1421 N.am      7 UNK        -0.5000 
     40 C           1.6083  -17.9447  -42.2656 C.2       6 UNK         0.5000 
     41 O           1.3359  -19.1271  -42.4699 O.2       6 UNK        -0.5000 
     42 CA          1.1420  -17.2738  -40.9610 C.3       6 UNK         0.1400 
     43 CB          2.2797  -17.2439  -39.9297 C.3       6 UNK        -0.1800 
     44 N           0.6292  -15.9153  -41.1531 N.am      6 UNK        -0.5000 
     45 C          -0.4107  -15.5770  -41.9245 C.2       5 UNK         0.5000 
     46 O          -1.0339  -16.3906  -42.6052 O.2       5 UNK        -0.5000 
     47 CA         -0.8265  -14.0934  -41.9787 C.3       5 UNK         0.1400 
     48 CB         -2.0013  -13.8212  -41.0216 C.3       5 UNK        -0.1800 
     49 N           0.2498  -13.1111  -41.7832 N.am      5 UNK        -0.5000 
     50 C           0.9845  -12.8558  -40.6878 C.2       4 UNK         0.5000 
     51 O           0.9302  -13.5243  -39.6555 O.2       4 UNK        -0.5000 
     52 CA          1.9603  -11.6615  -40.7542 C.3       4 UNK         0.1400 
     53 CB          3.3891  -12.1586  -41.0240 C.3       4 UNK        -0.1800 
     54 N           1.6055  -10.6729  -41.7741 N.am      4 UNK        -0.5000 
     55 C           0.5014   -9.9118  -41.7681 C.2       3 UNK         0.5000 
     56 O          -0.2877   -9.8646  -40.8238 O.2       3 UNK        -0.5000 
     57 CA          0.2093   -9.0858  -43.0394 C.3       3 UNK         0.1400 
     58 CB          0.4881   -7.5958  -42.7867 C.3       3 UNK        -0.1800 
     59 N           0.9499   -9.5076  -44.2361 N.am      3 UNK        -0.5000 
     60 C           0.8693  -10.7044  -44.8333 C.2       2 UNK         0.5000 
     61 O           0.1859  -11.6431  -44.4118 O.2       2 UNK        -0.5000 
     62 CA          1.7444  -10.8933  -46.0790 C.3       2 UNK         0.1400 
     63 CB          3.2278  -11.0405  -45.6891 C.3       2 UNK        -0.1800 
     64 N           1.3054  -12.0861  -46.7939 N.am      2 UNK        -0.5000 
     65 C           1.5219  -12.3342  -48.0889 C.2       1 UNK         0.5000 
     66 O           2.0799  -11.5431  -48.8543 O.2       1 UNK        -0.5000 
     67 C          -1.2602  -22.2233  -48.5207 C.2       11 UNK         0.5000 
     68 O          -1.4533  -23.0671  -49.3936 O.2       11 UNK        -0.5000 
     69 N          -2.2448  -21.7051  -47.7737 N.am      12 UNK        -0.5000 
     70 CA         -3.6423  -22.1329  -47.8579 C.3       12 UNK         0.1400 
     71 CB         -4.5409  -21.1711  -47.0680 C.3       12 UNK        -0.1800 
     72 C          -3.8447  -23.5875  -47.4050 C.2       12 UNK         0.5000 
     73 O          -4.5688  -24.3275  -48.0689 O.2       12 UNK        -0.5000 
     74 N          -3.1677  -23.9890  -46.3206 N.am      13 UNK        -0.5000 
     75 CA         -3.1446  -25.3670  -45.8287 C.3       13 UNK         0.1400 
     76 CB         -2.4581  -25.4132  -44.4553 C.3       13 UNK        -0.1800 
     77 C          -2.4695  -26.3397  -46.8146 C.2       13 UNK         0.5000 
     78 O          -2.9527  -27.4598  -46.9831 O.2       13 UNK        -0.5000 
     79 N          -1.3831  -25.8905  -47.4592 N.am      14 UNK        -0.5000 
     80 CA         -0.6646  -26.6361  -48.4923 C.3       14 UNK         0.1400 
     81 CB          0.6877  -25.9616  -48.7700 C.3       14 UNK        -0.1800 
     82 C          -1.4786  -26.7868  -49.7911 C.2       14 UNK         0.5000 
     83 O          -1.5137  -27.8803  -50.3570 O.2       14 UNK        -0.5000 
     84 N          -2.1164  -25.6948  -50.2371 N.am      15 UNK        -0.5000 
     85 CA         -2.9696  -25.6549  -51.4251 C.3       15 UNK         0.1400 
     86 CB         -3.2819  -24.1946  -51.7903 C.3       15 UNK        -0.1800 
     87 C          -4.2659  -26.4633  -51.2457 C.2       15 UNK         0.5000 
     88 O          -4.6386  -27.2136  -52.1488 O.2       15 UNK        -0.5000 
     89 N          -4.9163  -26.2979  -50.0841 N.am      16 UNK        -0.5000 
     90 CA         -6.1307  -26.9557  -49.5846 C.3       16 UNK         0.1400 
     91 CB         -5.9204  -28.4743  -49.4395 C.3       16 UNK        -0.1800 
     92 C          -7.4141  -26.6421  -50.3792 C.2       16 UNK         0.5000 
     93 O          -8.4348  -26.3062  -49.7779 O.2       16 UNK        -0.5000 
     94 N          -7.3448  -26.7511  -51.7094 N.am      17 UNK        -0.5000 
     95 CA         -8.4352  -26.4939  -52.6498 C.3       17 UNK         0.1400 
     96 CB         -8.1482  -27.2668  -53.9469 C.3       17 UNK        -0.1800 
     97 C          -8.6440  -24.9961  -52.9497 C.2       17 UNK         0.5000 
     98 O          -9.6585  -24.6421  -53.5525 O.2       17 UNK        -0.5000 
     99 N          -7.6928  -24.1471  -52.5448 N.am      18 UNK        -0.5000 
    100 CA        -7.7152  -22.7012  -52.7262 C.3       18 UNK         0.1400 
    101 CB        -6.9330  -22.3356  -53.9988 C.3       18 UNK        -0.1800 
    102 C         -7.0930  -22.0314  -51.4961 C.2       18 UNK         0.5000 
    103 O         -6.2476  -22.6323  -50.8269 O.2       18 UNK        -0.5000 
    104 N         -7.4953  -20.7821  -51.2390 N.am      19 UNK        -0.5000 
    105 CA        -6.9735  -19.9291  -50.1718 C.3       19 UNK         0.1400 
    106 CB        -8.0273  -18.8605  -49.8303 C.3       19 UNK        -0.1800 
    107 C         -5.6139  -19.3211  -50.5716 C.2       19 UNK         0.5000 
    108 O         -5.5186  -18.1156  -50.8083 O.2       19 UNK        -0.5000 
    109 N         -4.6011  -20.1923  -50.6619 N.am      20 UNK        -0.5000 
    110 CA        -3.2262  -19.9251  -51.0901 C.3       20 UNK         0.1400 
    111 CB        -2.5399  -18.9110  -50.1456 C.3       20 UNK        -0.1800 
    112 C         -3.1522  -19.5455  -52.5850 C.2       20 UNK         0.5000 
    113 O         -3.9935  -19.9973  -53.3647 O.2       20 UNK        -0.5000 
    114 N         -2.1328  -18.7549  -52.9528 N.am      21 UNK        -0.5000 
    115 CA        -1.8079  -18.2794  -54.3032 C.3       21 UNK         0.1400 
    116 CB        -2.8536  -17.2423  -54.7630 C.3       21 UNK        -0.1800 
    117 C         -1.6114  -19.4318  -55.3186 C.2       21 UNK         0.5000 
    118 O         -2.4182  -19.5733  -56.2378 O.2       21 UNK        -0.5000 
    119 N         -0.5803  -20.2758  -55.1809 N.am      22 UNK        -0.5000 
    120 CA         0.5036  -20.2781  -54.1833 C.3       22 UNK         0.1400 
    121 C          0.6298  -21.6817  -53.5305 C.2       22 UNK         0.5000 
    122 N          1.2903  -21.7830  -52.3861 N.am      22 UNK        -0.7600 
    123 O          0.1593  -22.6875  -54.0581 O.2       22 UNK        -0.5000 
    124 C124        1.8564  -19.8454  -54.8099 C.3       23 UNK        -0.0398 
    125 S125        1.8321  -18.1360  -55.4534 S.3       23 UNK        -0.2404 
    126 C126        2.8014  -17.2386  -54.1990 C.3       23 UNK        -0.0205 
    127 H127        4.5481  -16.2067  -49.9301 H         1 UNK         0.0600 
    128 H128        5.0747  -14.5479  -50.2263 H         1 UNK         0.0600 
    129 H129        3.7282  -15.2236  -51.1466 H         1 UNK         0.0600 
    130 H130        1.7953  -14.3688  -50.4621 H         1 UNK         0.3000 
    131 H131        0.8693  -14.3578  -47.7705 H         1 UNK         0.0600 
    132 H132       -0.1816  -13.0690  -50.3489 H         1 UNK         0.0800 
    133 H133       -0.9763  -12.8252  -48.8221 H         1 UNK         0.0800 
    134 H134       -0.9113  -14.7411  -51.8730 H         1 UNK         0.0800 
    135 H135       -1.7858  -16.2112  -51.5566 H         1 UNK         0.0800 
    136 H136        0.5688  -15.8809  -53.4502 H         1 UNK         0.1150 
    137 H137        3.5605  -18.5399  -51.9191 H         1 UNK         0.1150 
    138 H138        0.3969  -17.2108  -49.3735 H         1 UNK         0.1150 
    139 H139        3.7563  -18.5033  -49.3655 H         1 UNK         0.0800 
    140 H140        2.3324  -18.2329  -48.4054 H         1 UNK         0.0800 
    141 H141        0.1006  -20.5706  -50.0708 H         1 UNK         0.0800 
    142 H142        0.2081  -19.6190  -48.6054 H         1 UNK         0.0800 
    143 H143        0.8169  -22.5977  -48.5678 H         1 UNK         0.0600 
    144 H144        0.6457  -20.6388  -46.4952 H         1 UNK         0.3000 
    145 H145        0.3101  -23.0622  -43.8359 H         1 UNK         0.0600 
    146 H146        2.2367  -21.7301  -43.0560 H         1 UNK         0.0600 
    147 H147        2.7256  -22.7505  -44.4000 H         1 UNK         0.0600 
    148 H148        2.4524  -21.0323  -44.6594 H         1 UNK         0.0600 
    149 H149        0.2697  -20.2336  -43.7282 H         1 UNK         0.3000 
    150 H150       -3.2921  -19.8175  -44.0750 H         1 UNK         0.0600 
    151 H151       -2.8112  -20.3789  -41.6921 H         1 UNK         0.0600 
    152 H152       -2.8802  -18.6389  -41.9328 H         1 UNK         0.0600 
    153 H153       -1.3228  -19.4431  -41.7569 H         1 UNK         0.0600 
    154 H154       -1.2770  -17.8731  -43.7188 H         1 UNK         0.3000 
    155 H155       -0.4937  -17.3095  -47.1757 H         1 UNK         0.0600 
    156 H156       -1.9154  -15.7045  -44.9801 H         1 UNK         0.0600 
    157 H157       -2.4862  -15.9577  -46.6214 H         1 UNK         0.0600 
    158 H158       -1.0337  -15.0135  -46.3387 H         1 UNK         0.0600 
    159 H159        0.5551  -16.2388  -44.7382 H         1 UNK         0.3000 
    160 H160        3.2619  -18.5353  -44.3503 H         1 UNK         0.0600 
    161 H161        3.1254  -15.5904  -45.2001 H         1 UNK         0.0600 
    162 H162        3.9731  -16.8642  -46.0662 H         1 UNK         0.0600 
    163 H163        4.5088  -16.3962  -44.4602 H         1 UNK         0.0600 
    164 H164        2.4392  -16.2061  -42.8931 H         1 UNK         0.3000 
    165 H165        0.3284  -17.8773  -40.5540 H         1 UNK         0.0600 
    166 H166        1.9325  -16.8558  -38.9719 H         1 UNK         0.0600 
    167 H167        2.6720  -18.2460  -39.7511 H         1 UNK         0.0600 
    168 H168        3.1095  -16.6194  -40.2629 H         1 UNK         0.0600 
    169 H169        1.0295  -15.1822  -40.5756 H         1 UNK         0.3000 
    170 H170       -1.1892  -13.9201  -42.9932 H         1 UNK         0.0600 
    171 H171       -2.8448  -14.4758  -41.2446 H         1 UNK         0.0600 
    172 H172       -1.7257  -13.9894  -39.9801 H         1 UNK         0.0600 
    173 H173       -2.3538  -12.7937  -41.1139 H         1 UNK         0.0600 
    174 H174        0.4002  -12.5106  -42.5878 H         1 UNK         0.3000 
    175 H175        1.9429  -11.1673  -39.7807 H         1 UNK         0.0600 
    176 H176        3.4690  -12.6472  -41.9960 H         1 UNK         0.0600 
    177 H177        4.1041  -11.3359  -41.0014 H         1 UNK         0.0600 
    178 H178        3.7024  -12.8794  -40.2674 H         1 UNK         0.0600 
    179 H179        2.2020  -10.6289  -42.5863 H         1 UNK         0.3000 
    180 H180       -0.8546   -9.2023  -43.2553 H         1 UNK         0.0600 
    181 H181        1.5454   -7.4128  -42.5912 H         1 UNK         0.0600 
    182 H182       -0.0728   -7.2321  -41.9246 H         1 UNK         0.0600 
    183 H183        0.1932   -6.9877  -43.6421 H         1 UNK         0.0600 
    184 H184        1.5534   -8.8079  -44.6441 H         1 UNK         0.3000 
    185 H185        1.6154  -10.0180  -46.7193 H         1 UNK         0.0600 
    186 H186        3.5881  -10.1611  -45.1544 H         1 UNK         0.0600 
    187 H187        3.3889  -11.9071  -45.0463 H         1 UNK         0.0600 
    188 H188        3.8589  -11.1599  -46.5700 H         1 UNK         0.0600 
    189 H189        0.7826  -12.7370  -46.2214 H         1 UNK         0.3000 
    190 H190       -2.0348  -20.9583  -47.1159 H         1 UNK         0.3000 
    191 H191       -3.9409  -22.0886  -48.9050 H         1 UNK         0.0600 
    192 H192       -4.2705  -21.1430  -46.0125 H         1 UNK         0.0600 
    193 H193       -5.5870  -21.4727  -47.1324 H         1 UNK         0.0600 
    194 H194       -4.4698  -20.1560  -47.4589 H         1 UNK         0.0600 
    195 H195       -2.6340  -23.3049  -45.7912 H         1 UNK         0.3000 
    196 H196       -4.1792  -25.6921  -45.7003 H         1 UNK         0.0600 
    197 H197       -2.4476  -26.4287  -44.0576 H         1 UNK         0.0600 
    198 H198       -2.9808  -24.7857  -43.7331 H         1 UNK         0.0600 
    199 H199       -1.4248  -25.0699  -44.5086 H         1 UNK         0.0600 
    200 H200       -1.0087  -24.9814  -47.2069 H         1 UNK         0.3000 
    201 H201       -0.4661  -27.6379  -48.1056 H         1 UNK         0.0600 
    202 H202        1.2912  -25.8997  -47.8642 H         1 UNK         0.0600 
    203 H203        0.5625  -24.9510  -49.1581 H         1 UNK         0.0600 
    204 H204        1.2610  -26.5265  -49.5059 H         1 UNK         0.0600 
    205 H205       -1.9804  -24.8120  -49.7500 H         1 UNK         0.3000 
    206 H206       -2.4146  -26.0978  -52.2547 H         1 UNK         0.0600 
    207 H207       -2.3723  -23.6496  -52.0443 H         1 UNK         0.0600 
    208 H208       -3.9482  -24.1357  -52.6518 H         1 UNK         0.0600 
    209 H209       -3.7636  -23.6701  -50.9649 H         1 UNK         0.0600 
    210 H210       -4.5493  -25.5995  -49.4407 H         1 UNK         0.3000 
    211 H211       -6.2819  -26.5536  -48.5815 H         1 UNK         0.0600 
    212 H212       -5.7618  -28.9598  -50.4028 H         1 UNK         0.0600 
    213 H213       -6.7886  -28.9446  -48.9765 H         1 UNK         0.0600 
    214 H214       -5.0576  -28.6911  -48.8092 H         1 UNK         0.0600 
    215 H215       -6.4462  -27.0204  -52.1053 H         1 UNK         0.3000 
    216 H216       -9.3652  -26.8751  -52.2230 H         1 UNK         0.0600 
    217 H217       -8.9529  -27.1329  -54.6710 H         1 UNK         0.0600 
    218 H218       -8.0589  -28.3365  -53.7566 H         1 UNK         0.0600 
    219 H219       -7.2228  -26.9312  -54.4170 H         1 UNK         0.0600 
    220 H220       -6.9226  -24.4954  -51.9895 H         1 UNK         0.3000 
    221 H221       -8.7458  -22.3518  -52.8194 H         1 UNK         0.0600 
    222 H222       -5.8937  -22.6619  -53.9382 H         1 UNK         0.0600 
    223 H223       -7.3779  -22.7949  -54.8816 H         1 UNK         0.0600 
    224 H224       -6.9269  -21.2569  -54.1607 H         1 UNK         0.0600 
    225 H225       -8.1623  -20.3490  -51.8615 H         1 UNK         0.3000 
    226 H226       -6.8147  -20.5338  -49.2761 H         1 UNK         0.0600 
    227 H227       -8.9571  -19.3185  -49.4924 H         1 UNK         0.0600 
    228 H228       -7.6768  -18.2099  -49.0280 H         1 UNK         0.0600 
    229 H229       -8.2576  -18.2291  -50.6894 H         1 UNK         0.0600 
    230 H230       -4.8461  -21.1717  -50.5639 H         1 UNK         0.3000 
    231 H231       -2.6955  -20.8737  -50.9973 H         1 UNK         0.0600 
    232 H232       -1.4731  -18.8348  -50.3444 H         1 UNK         0.0600 
    233 H233       -2.6487  -19.2109  -49.1045 H         1 UNK         0.0600 
    234 H234       -2.9615  -17.9104  -50.2410 H         1 UNK         0.0600 
    235 H235       -1.4995  -18.4493  -52.2290 H         1 UNK         0.3000 
    236 H236       -0.8580  -17.7525  -54.2400 H         1 UNK         0.0600 
    237 H237       -3.8497  -17.6775  -54.8492 H         1 UNK         0.0600 
    238 H238       -2.9133  -16.4084  -54.0637 H         1 UNK         0.0600 
    239 H239       -2.5904  -16.8300  -55.7378 H         1 UNK         0.0600 
    240 H240       -0.5382  -21.0659  -55.8081 H         1 UNK         0.3000 
    241 H241        0.2814  -19.5922  -53.3684 H         1 UNK         0.0600 
    242 H242        1.3874  -22.6960  -51.9713 H         1 UNK         0.3800 
    243 H243        1.7192  -20.9900  -51.9353 H         1 UNK         0.3800 
    244 H244        2.6678  -19.9368  -54.0862 H         1 UNK         0.0800 
    245 H245        2.1189  -20.5101  -55.6347 H         1 UNK         0.0800 
    246 H246        2.9409  -16.2094  -54.5328 H         1 UNK         0.0800 
    247 H247        3.7999  -17.6739  -54.1338 H         1 UNK         0.0800 
@<TRIPOS>BOND
     1    1    2 1    
     2    1  127 1    
     3    1  128 1    
     4    1  129 1    
     5    2    3 2    
     6    2    4 am   BACKBONE|DICT|INTERRES
     7    4    5 1    
     8    4  130 1    
     9    5    6 1    
    10    5   65 1    
    11    5  131 1    
    12    6    7 1    
    13    6  132 1    
    14    6  133 1    
    15    7    8 1    
    16    8    9 1    
    17    8  134 1    
    18    8  135 1    
    19    9   10 ar   
    20    9   14 ar   
    21   10   11 ar   
    22   10  136 1    
    23   11   12 ar   
    24   11  126 1    
    25   12   13 ar   
    26   12  137 1    
    27   13   14 ar   
    28   13   15 1    
    29   14  138 1    
    30   15   16 1    
    31   15  139 1    
    32   15  140 1    
    33   16   17 1    
    34   17   18 1    
    35   17  141 1    
    36   17  142 1    
    37   18   19 1    
    38   18   67 1    
    39   18  143 1    
    40   19   20 am   BACKBONE|DICT|INTERRES
    41   19  144 1    
    42   20   21 2    
    43   20   22 1    
    44   22   23 1    
    45   22   24 1    
    46   22  145 1    
    47   23  146 1    
    48   23  147 1    
    49   23  148 1    
    50   24   25 am   BACKBONE|DICT|INTERRES
    51   24  149 1    
    52   25   26 2    
    53   25   27 1    
    54   27   28 1    
    55   27   29 1    
    56   27  150 1    
    57   28  151 1    
    58   28  152 1    
    59   28  153 1    
    60   29   30 am   BACKBONE|DICT|INTERRES
    61   29  154 1    
    62   30   31 2    
    63   30   32 1    
    64   32   33 1    
    65   32   34 1    
    66   32  155 1    
    67   33  156 1    
    68   33  157 1    
    69   33  158 1    
    70   34   35 am   BACKBONE|DICT|INTERRES
    71   34  159 1    
    72   35   36 2    
    73   35   37 1    
    74   37   38 1    
    75   37   39 1    
    76   37  160 1    
    77   38  161 1    
    78   38  162 1    
    79   38  163 1    
    80   39   40 am   BACKBONE|DICT|INTERRES
    81   39  164 1    
    82   40   41 2    
    83   40   42 1    
    84   42   43 1    
    85   42   44 1    
    86   42  165 1    
    87   43  166 1    
    88   43  167 1    
    89   43  168 1    
    90   44   45 am   BACKBONE|DICT|INTERRES
    91   44  169 1    
    92   45   46 2    
    93   45   47 1    
    94   47   48 1    
    95   47   49 1    
    96   47  170 1    
    97   48  171 1    
    98   48  172 1    
    99   48  173 1    
   100   49   50 am   BACKBONE|DICT|INTERRES
   101   49  174 1    
   102   50   51 2    
   103   50   52 1    
   104   52   53 1    
   105   52   54 1    
   106   52  175 1    
   107   53  176 1    
   108   53  177 1    
   109   53  178 1    
   110   54   55 am   BACKBONE|DICT|INTERRES
   111   54  179 1    
   112   55   56 2    
   113   55   57 1    
   114   57   58 1    
   115   57   59 1    
   116   57  180 1    
   117   58  181 1    
   118   58  182 1    
   119   58  183 1    
   120   59   60 am   BACKBONE|DICT|INTERRES
   121   59  184 1    
   122   60   61 2    
   123   60   62 1    
   124   62   63 1    
   125   62   64 1    
   126   62  185 1    
   127   63  186 1    
   128   63  187 1    
   129   63  188 1    
   130   64   65 am   BACKBONE|DICT|INTERRES
   131   64  189 1    
   132   65   66 2    
   133   67   68 2    
   134   67   69 am   BACKBONE|DICT|INTERRES
   135   69   70 1    
   136   69  190 1    
   137   70   71 1    
   138   70   72 1    
   139   70  191 1    
   140   71  192 1    
   141   71  193 1    
   142   71  194 1    
   143   72   73 2    
   144   72   74 am   BACKBONE|DICT|INTERRES
   145   74   75 1    
   146   74  195 1    
   147   75   76 1    
   148   75   77 1    
   149   75  196 1    
   150   76  197 1    
   151   76  198 1    
   152   76  199 1    
   153   77   78 2    
   154   77   79 am   BACKBONE|DICT|INTERRES
   155   79   80 1    
   156   79  200 1    
   157   80   81 1    
   158   80   82 1    
   159   80  201 1    
   160   81  202 1    
   161   81  203 1    
   162   81  204 1    
   163   82   83 2    
   164   82   84 am   BACKBONE|DICT|INTERRES
   165   84   85 1    
   166   84  205 1    
   167   85   86 1    
   168   85   87 1    
   169   85  206 1    
   170   86  207 1    
   171   86  208 1    
   172   86  209 1    
   173   87   88 2    
   174   87   89 am   BACKBONE|DICT|INTERRES
   175   89   90 1    
   176   89  210 1    
   177   90   91 1    
   178   90   92 1    
   179   90  211 1    
   180   91  212 1    
   181   91  213 1    
   182   91  214 1    
   183   92   93 2    
   184   92   94 am   BACKBONE|DICT|INTERRES
   185   94   95 1    
   186   94  215 1    
   187   95   96 1    
   188   95   97 1    
   189   95  216 1    
   190   96  217 1    
   191   96  218 1    
   192   96  219 1    
   193   97   98 2    
   194   97   99 am   BACKBONE|DICT|INTERRES
   195   99  100 1    
   196   99  220 1    
   197  100  101 1    
   198  100  102 1    
   199  100  221 1    
   200  101  222 1    
   201  101  223 1    
   202  101  224 1    
   203  102  103 2    
   204  102  104 am   BACKBONE|DICT|INTERRES
   205  104  105 1    
   206  104  225 1    
   207  105  106 1    
   208  105  107 1    
   209  105  226 1    
   210  106  227 1    
   211  106  228 1    
   212  106  229 1    
   213  107  108 2    
   214  107  109 am   BACKBONE|DICT|INTERRES
   215  109  110 1    
   216  109  230 1    
   217  110  111 1    
   218  110  112 1    
   219  110  231 1    
   220  111  232 1    
   221  111  233 1    
   222  111  234 1    
   223  112  113 2    
   224  112  114 am   BACKBONE|DICT|INTERRES
   225  114  115 1    
   226  114  235 1    
   227  115  116 1    
   228  115  117 1    
   229  115  236 1    
   230  116  237 1    
   231  116  238 1    
   232  116  239 1    
   233  117  118 2    
   234  117  119 am   BACKBONE|DICT|INTERRES
   235  119  120 1    
   236  119  240 1    
   237  120  121 1    
   238  120  124 1    
   239  120  241 1    
   240  121  122 am   BACKBONE|DICT|INTERRES
   241  121  123 2    
   242  122  242 1    
   243  122  243 1    
   244  124  125 1    
   245  124  244 1    
   246  124  245 1    
   247  125  126 1    
   248  126  246 1    
   249  126  247 1    
@<TRIPOS>SUBSTRUCTURE
     1 UNK         1 GROUP             0       ****    0 ROOT    
