@<TRIPOS>MOLECULE
3R540
247   249    1
SMALL
USER_CHARGES


@<TRIPOS>ATOM
      1 CA          3.9140  -10.7570  -51.9499 C.3       0 UNK        -0.1800 
      2 C           2.9483  -11.4047  -50.9677 C.2       0 UNK         0.5000 
      3 O           1.8064  -11.6852  -51.3308 O.2       0 UNK        -0.5000 
      4 N           3.4025  -11.6297  -49.7262 N.am      1 UNK        -0.5000 
      5 CA          2.6652  -12.2671  -48.6221 C.3       1 UNK         0.1400 
      6 C6          2.2733  -13.7446  -48.9041 C.3       23 UNK        -0.0398 
      7 S7          3.7421  -14.8160  -49.0823 S.3       23 UNK        -0.2404 
      8 C8          3.3170  -16.2176  -47.9962 C.3       23 UNK        -0.0205 
      9 C9          2.5738  -17.3216  -48.7374 C.ar      23 UNK        -0.0193 
     10 C10         1.3000  -17.0955  -49.2681 C.ar      23 UNK        -0.1150 
     11 C11         0.5959  -18.1241  -49.9018 C.ar      23 UNK        -0.0193 
     12 C12         1.1836  -19.3862  -50.0176 C.ar      23 UNK        -0.1150 
     13 C13         2.4519  -19.6297  -49.4811 C.ar      23 UNK        -0.0193 
     14 C14         3.1437  -18.5925  -48.8502 C.ar      23 UNK        -0.1150 
     15 C15         3.0652  -21.0201  -49.5482 C.3       23 UNK        -0.0205 
     16 S16         2.6547  -22.0022  -48.0686 S.3       23 UNK        -0.2404 
     17 C17         0.8817  -22.3006  -48.3557 C.3       23 UNK        -0.0398 
     18 CA          0.2927  -23.3870  -47.4290 C.3       11 UNK         0.1400 
     19 N           0.1362  -22.9274  -46.0446 N.am      11 UNK        -0.5000 
     20 C          -0.2687  -23.7012  -45.0269 C.2       10 UNK         0.5000 
     21 O          -0.5107  -24.9024  -45.1362 O.2       10 UNK        -0.5000 
     22 CA         -0.5057  -23.0130  -43.6718 C.3       10 UNK         0.1400 
     23 CB          0.8224  -22.7232  -42.9573 C.3       10 UNK        -0.1800 
     24 N          -1.2945  -21.7863  -43.7947 N.am      10 UNK        -0.5000 
     25 C          -2.5572  -21.7421  -44.2462 C.2       9 UNK         0.5000 
     26 O          -3.2001  -22.7377  -44.5775 O.2       9 UNK        -0.5000 
     27 CA         -3.2022  -20.3527  -44.3913 C.3       9 UNK         0.1400 
     28 CB         -3.7197  -19.8466  -43.0370 C.3       9 UNK        -0.1800 
     29 N          -2.2913  -19.3665  -44.9680 N.am      9 UNK        -0.5000 
     30 C          -1.7736  -19.4371  -46.2017 C.2       8 UNK         0.5000 
     31 O          -2.0495  -20.3188  -47.0160 O.2       8 UNK        -0.5000 
     32 CA         -0.7330  -18.3677  -46.5700 C.3       8 UNK         0.1400 
     33 CB         -1.4056  -17.0276  -46.9019 C.3       8 UNK        -0.1800 
     34 N           0.2698  -18.1684  -45.5269 N.am      8 UNK        -0.5000 
     35 C           1.1008  -19.1227  -45.0844 C.2       7 UNK         0.5000 
     36 O           1.1276  -20.2710  -45.5238 O.2       7 UNK        -0.5000 
     37 CA          2.0112  -18.7432  -43.9068 C.3       7 UNK         0.1400 
     38 CB          3.2466  -17.9743  -44.3984 C.3       7 UNK        -0.1800 
     39 N           1.2924  -17.9532  -42.9060 N.am      7 UNK        -0.5000 
     40 C           0.3100  -18.4369  -42.1309 C.2       6 UNK         0.5000 
     41 O          -0.0569  -19.6117  -42.1434 O.2       6 UNK        -0.5000 
     42 CA         -0.4162  -17.4260  -41.2253 C.3       6 UNK         0.1400 
     43 CB          0.3896  -17.1641  -39.9442 C.3       6 UNK        -0.1800 
     44 N          -0.6788  -16.1568  -41.9049 N.am      6 UNK        -0.5000 
     45 C          -1.5077  -16.0148  -42.9491 C.2       5 UNK         0.5000 
     46 O          -2.1739  -16.9351  -43.4206 O.2       5 UNK        -0.5000 
     47 CA         -1.5730  -14.6222  -43.6022 C.3       5 UNK         0.1400 
     48 CB         -2.6683  -13.7684  -42.9475 C.3       5 UNK        -0.1800 
     49 N          -0.3023  -13.8977  -43.5512 N.am      5 UNK        -0.5000 
     50 C           0.8353  -14.2785  -44.1448 C.2       4 UNK         0.5000 
     51 O           0.9397  -15.3201  -44.7966 O.2       4 UNK        -0.5000 
     52 CA          2.0519  -13.3437  -43.9579 C.3       4 UNK         0.1400 
     53 CB          3.2780  -13.8034  -44.7669 C.3       4 UNK        -0.1800 
     54 N           1.7665  -11.9485  -44.3044 N.am      4 UNK        -0.5000 
     55 C           1.0625  -11.0691  -43.5757 C.2       3 UNK         0.5000 
     56 O           0.5212  -11.3486  -42.5054 O.2       3 UNK        -0.5000 
     57 CA          0.9207   -9.6539  -44.1565 C.3       3 UNK         0.1400 
     58 CB          2.1469   -8.8059  -43.7607 C.3       3 UNK        -0.1800 
     59 N           0.7616   -9.7349  -45.6092 N.am      3 UNK        -0.5000 
     60 C           0.5722   -8.7339  -46.4746 C.2       2 UNK         0.5000 
     61 O           0.4916   -7.5501  -46.1424 O.2       2 UNK        -0.5000 
     62 CA          0.4629   -9.1351  -47.9657 C.3       2 UNK         0.1400 
     63 CB          0.5378   -7.9237  -48.9131 C.3       2 UNK        -0.1800 
     64 N           1.4819  -10.1093  -48.3759 N.am      2 UNK        -0.5000 
     65 C           1.4722  -11.4235  -48.1112 C.2       1 UNK         0.5000 
     66 O           0.5953  -11.9537  -47.4273 O.2       1 UNK        -0.5000 
     67 C          -1.0348  -23.9029  -48.0145 C.2       11 UNK         0.5000 
     68 O          -1.0465  -24.9753  -48.6189 O.2       11 UNK        -0.5000 
     69 N          -2.1253  -23.1493  -47.8115 N.am      12 UNK        -0.5000 
     70 CA         -3.4641  -23.5078  -48.2773 C.3       12 UNK         0.1400 
     71 CB         -4.4225  -22.3306  -48.0589 C.3       12 UNK        -0.1800 
     72 C          -4.0038  -24.7992  -47.6368 C.2       12 UNK         0.5000 
     73 O          -4.6327  -25.5993  -48.3281 O.2       12 UNK        -0.5000 
     74 N          -3.7232  -24.9995  -46.3435 N.am      13 UNK        -0.5000 
     75 CA         -4.0615  -26.2180  -45.6127 C.3       13 UNK         0.1400 
     76 CB         -3.9192  -25.9652  -44.1036 C.3       13 UNK        -0.1800 
     77 C          -3.2089  -27.4250  -46.0463 C.2       13 UNK         0.5000 
     78 O          -3.7549  -28.5108  -46.2468 O.2       13 UNK        -0.5000 
     79 N          -1.8896  -27.2232  -46.1616 N.am      14 UNK        -0.5000 
     80 CA         -0.9201  -28.2893  -46.4081 C.3       14 UNK         0.1400 
     81 CB          0.4681  -27.8338  -45.9318 C.3       14 UNK        -0.1800 
     82 C          -0.8457  -28.7467  -47.8739 C.2       14 UNK         0.5000 
     83 O          -0.6787  -29.9436  -48.1147 O.2       14 UNK        -0.5000 
     84 N          -0.9168  -27.8020  -48.8207 N.am      15 UNK        -0.5000 
     85 CA         -0.5557  -28.0301  -50.2219 C.3       15 UNK         0.1400 
     86 CB          0.9331  -27.6786  -50.4117 C.3       15 UNK        -0.1800 
     87 C          -1.4591  -27.2725  -51.2104 C.2       15 UNK         0.5000 
     88 O          -1.0503  -27.0589  -52.3525 O.2       15 UNK        -0.5000 
     89 N          -2.6587  -26.8647  -50.7712 N.am      16 UNK        -0.5000 
     90 CA         -3.7195  -26.1657  -51.5181 C.3       16 UNK         0.1400 
     91 CB         -4.1970  -26.9985  -52.7240 C.3       16 UNK        -0.1800 
     92 C          -3.3977  -24.7163  -51.9444 C.2       16 UNK         0.5000 
     93 O          -4.3255  -23.9123  -52.0390 O.2       16 UNK        -0.5000 
     94 N          -2.1137  -24.4036  -52.1713 N.am      17 UNK        -0.5000 
     95 CA         -1.5656  -23.1285  -52.6448 C.3       17 UNK         0.1400 
     96 CB         -1.7355  -22.0318  -51.5688 C.3       17 UNK        -0.1800 
     97 C          -2.1207  -22.7341  -54.0334 C.2       17 UNK         0.5000 
     98 O          -2.5139  -23.6102  -54.8084 O.2       17 UNK        -0.5000 
     99 N          -2.1272  -21.4307  -54.3447 N.am      18 UNK        -0.5000 
    100 CA        -2.7409  -20.8851  -55.5604 C.3       18 UNK         0.1400 
    101 CB        -2.2073  -19.4634  -55.7964 C.3       18 UNK        -0.1800 
    102 C         -4.2822  -20.8796  -55.4885 C.2       18 UNK         0.5000 
    103 O         -4.9432  -20.9595  -56.5241 O.2       18 UNK        -0.5000 
    104 N         -4.8072  -20.7907  -54.2628 N.am      19 UNK        -0.5000 
    105 CA        -6.2047  -20.7521  -53.8475 C.3       19 UNK         0.1400 
    106 CB        -6.9369  -19.5446  -54.4716 C.3       19 UNK        -0.1800 
    107 C         -6.1976  -20.6676  -52.3101 C.2       19 UNK         0.5000 
    108 O         -5.1175  -20.6295  -51.7101 O.2       19 UNK        -0.5000 
    109 N         -7.3851  -20.6007  -51.6921 N.am      20 UNK        -0.5000 
    110 CA        -7.5793  -20.3931  -50.2530 C.3       20 UNK         0.1400 
    111 CB        -9.0850  -20.3688  -49.9453 C.3       20 UNK        -0.1800 
    112 C         -6.8869  -19.1016  -49.7709 C.2       20 UNK         0.5000 
    113 O         -7.3351  -18.0044  -50.1103 O.2       20 UNK        -0.5000 
    114 N         -5.7513  -19.2714  -49.0780 N.am      21 UNK        -0.5000 
    115 CA        -4.7911  -18.2360  -48.6739 C.3       21 UNK         0.1400 
    116 CB        -5.3669  -17.3808  -47.5275 C.3       21 UNK        -0.1800 
    117 C         -4.2632  -17.3912  -49.8584 C.2       21 UNK         0.5000 
    118 O         -3.9899  -16.2020  -49.6941 O.2       21 UNK        -0.5000 
    119 N         -4.1450  -18.0272  -51.0334 N.am      22 UNK        -0.5000 
    120 CA        -3.8314  -17.4214  -52.3401 C.3       22 UNK         0.1400 
    121 C         -4.9303  -16.4524  -52.8823 C.2       22 UNK         0.5000 
    122 N         -6.1388  -16.4248  -52.3306 N.am      22 UNK        -0.7600 
    123 O         -4.7009  -15.7347  -53.8517 O.2       22 UNK        -0.5000 
    124 C124       -2.4041  -16.8055  -52.4223 C.3       23 UNK        -0.0398 
    125 S125       -1.0530  -18.0084  -52.1555 S.3       23 UNK        -0.2404 
    126 C126       -0.8383  -17.8949  -50.3537 C.3       23 UNK        -0.0205 
    127 H127        4.8858  -10.5618  -51.4956 H         1 UNK         0.0600 
    128 H128        3.5084   -9.8098  -52.3056 H         1 UNK         0.0600 
    129 H129        4.0662  -11.4086  -52.8103 H         1 UNK         0.0600 
    130 H130        4.3552  -11.3729  -49.5071 H         1 UNK         0.3000 
    131 H131        3.3619  -12.2767  -47.7828 H         1 UNK         0.0600 
    132 H132        1.6641  -13.8266  -49.8047 H         1 UNK         0.0800 
    133 H133        1.6579  -14.1375  -48.0938 H         1 UNK         0.0800 
    134 H134        2.7210  -15.8871  -47.1448 H         1 UNK         0.0800 
    135 H135        4.2443  -16.6068  -47.5732 H         1 UNK         0.0800 
    136 H136        0.8397  -16.1255  -49.1573 H         1 UNK         0.1150 
    137 H137        0.6359  -20.1877  -50.4914 H         1 UNK         0.1150 
    138 H138        4.1187  -18.7854  -48.4252 H         1 UNK         0.1150 
    139 H139        2.7335  -21.5420  -50.4470 H         1 UNK         0.0800 
    140 H140        4.1503  -20.9405  -49.6276 H         1 UNK         0.0800 
    141 H141        0.7734  -22.5879  -49.4034 H         1 UNK         0.0800 
    142 H142        0.3371  -21.3633  -48.2305 H         1 UNK         0.0800 
    143 H143        0.9802  -24.2355  -47.4143 H         1 UNK         0.0600 
    144 H144        0.3574  -21.9501  -45.8643 H         1 UNK         0.3000 
    145 H145       -1.0747  -23.7057  -43.0481 H         1 UNK         0.0600 
    146 H146        0.6526  -22.3145  -41.9611 H         1 UNK         0.0600 
    147 H147        1.4344  -22.0118  -43.5109 H         1 UNK         0.0600 
    148 H148        1.4077  -23.6358  -42.8385 H         1 UNK         0.0600 
    149 H149       -0.8433  -20.9249  -43.5055 H         1 UNK         0.3000 
    150 H150       -4.0553  -20.4508  -45.0655 H         1 UNK         0.0600 
    151 H151       -4.4097  -20.5628  -42.5892 H         1 UNK         0.0600 
    152 H152       -4.2556  -18.9039  -43.1486 H         1 UNK         0.0600 
    153 H153       -2.9055  -19.6856  -42.3296 H         1 UNK         0.0600 
    154 H154       -2.0479  -18.5752  -44.3776 H         1 UNK         0.3000 
    155 H155       -0.2056  -18.7279  -47.4511 H         1 UNK         0.0600 
    156 H156       -2.0048  -16.6589  -46.0709 H         1 UNK         0.0600 
    157 H157       -2.0712  -17.1273  -47.7571 H         1 UNK         0.0600 
    158 H158       -0.6695  -16.2622  -47.1477 H         1 UNK         0.0600 
    159 H159        0.3454  -17.2364  -45.1331 H         1 UNK         0.3000 
    160 H160        2.3525  -19.6653  -43.4319 H         1 UNK         0.0600 
    161 H161        2.9710  -17.0560  -44.9150 H         1 UNK         0.0600 
    162 H162        3.8243  -18.5786  -45.0991 H         1 UNK         0.0600 
    163 H163        3.9067  -17.7124  -43.5715 H         1 UNK         0.0600 
    164 H164        1.4957  -16.9655  -42.8748 H         1 UNK         0.3000 
    165 H165       -1.3760  -17.8633  -40.9416 H         1 UNK         0.0600 
    166 H166       -0.1550  -16.5098  -39.2632 H         1 UNK         0.0600 
    167 H167        0.5864  -18.0951  -39.4108 H         1 UNK         0.0600 
    168 H168        1.3524  -16.6989  -40.1592 H         1 UNK         0.0600 
    169 H169       -0.1745  -15.3462  -41.5777 H         1 UNK         0.3000 
    170 H170       -1.8323  -14.7601  -44.6532 H         1 UNK         0.0600 
    171 H171       -3.6348  -14.2725  -42.9906 H         1 UNK         0.0600 
    172 H172       -2.4483  -13.5665  -41.8984 H         1 UNK         0.0600 
    173 H173       -2.7788  -12.8110  -43.4572 H         1 UNK         0.0600 
    174 H174       -0.2877  -13.0239  -43.0334 H         1 UNK         0.3000 
    175 H175        2.3209  -13.3841  -42.9004 H         1 UNK         0.0600 
    176 H176        3.0690  -13.8241  -45.8362 H         1 UNK         0.0600 
    177 H177        4.1301  -13.1432  -44.6040 H         1 UNK         0.0600 
    178 H178        3.5901  -14.8050  -44.4715 H         1 UNK         0.0600 
    179 H179        2.1816  -11.6221  -45.1626 H         1 UNK         0.3000 
    180 H180        0.0200   -9.2035  -43.7352 H         1 UNK         0.0600 
    181 H181        2.0147   -7.7563  -44.0212 H         1 UNK         0.0600 
    182 H182        3.0554   -9.1604  -44.2488 H         1 UNK         0.0600 
    183 H183        2.3167   -8.8436  -42.6838 H         1 UNK         0.0600 
    184 H184        0.7085  -10.6741  -45.9943 H         1 UNK         0.3000 
    185 H185       -0.5203   -9.5922  -48.0953 H         1 UNK         0.0600 
    186 H186        1.4916   -7.4023  -48.8239 H         1 UNK         0.0600 
    187 H187        0.4178   -8.2288  -49.9529 H         1 UNK         0.0600 
    188 H188       -0.2532   -7.2046  -48.6963 H         1 UNK         0.0600 
    189 H189        2.2588   -9.7431  -48.9065 H         1 UNK         0.3000 
    190 H190       -2.0351  -22.2588  -47.3304 H         1 UNK         0.3000 
    191 H191       -3.3963  -23.6799  -49.3506 H         1 UNK         0.0600 
    192 H192       -4.0752  -21.4538  -48.6042 H         1 UNK         0.0600 
    193 H193       -4.5026  -22.0653  -47.0044 H         1 UNK         0.0600 
    194 H194       -5.4230  -22.5711  -48.4198 H         1 UNK         0.0600 
    195 H195       -3.2543  -24.2655  -45.8205 H         1 UNK         0.3000 
    196 H196       -5.1074  -26.4583  -45.8150 H         1 UNK         0.0600 
    197 H197       -4.5858  -25.1678  -43.7746 H         1 UNK         0.0600 
    198 H198       -2.9013  -25.6788  -43.8364 H         1 UNK         0.0600 
    199 H199       -4.1718  -26.8584  -43.5311 H         1 UNK         0.0600 
    200 H200       -1.5077  -26.3059  -45.9444 H         1 UNK         0.3000 
    201 H201       -1.2048  -29.1562  -45.8077 H         1 UNK         0.0600 
    202 H202        0.4581  -27.5821  -44.8711 H         1 UNK         0.0600 
    203 H203        0.8132  -26.9565  -46.4809 H         1 UNK         0.0600 
    204 H204        1.2093  -28.6216  -46.0719 H         1 UNK         0.0600 
    205 H205       -1.0458  -26.8270  -48.5543 H         1 UNK         0.3000 
    206 H206       -0.6873  -29.0847  -50.4716 H         1 UNK         0.0600 
    207 H207        1.1196  -26.6225  -50.2125 H         1 UNK         0.0600 
    208 H208        1.5656  -28.2618  -49.7423 H         1 UNK         0.0600 
    209 H209        1.2663  -27.8881  -51.4288 H         1 UNK         0.0600 
    210 H210       -2.8777  -27.0484  -49.8015 H         1 UNK         0.3000 
    211 H211       -4.5645  -26.0985  -50.8336 H         1 UNK         0.0600 
    212 H212       -3.4306  -27.0800  -53.4950 H         1 UNK         0.0600 
    213 H213       -5.0715  -26.5403  -53.1876 H         1 UNK         0.0600 
    214 H214       -4.4806  -28.0064  -52.4214 H         1 UNK         0.0600 
    215 H215       -1.4617  -25.1809  -52.1510 H         1 UNK         0.3000 
    216 H216       -0.4965  -23.2943  -52.7827 H         1 UNK         0.0600 
    217 H217       -1.1872  -21.1262  -51.8264 H         1 UNK         0.0600 
    218 H218       -1.3546  -22.3679  -50.6061 H         1 UNK         0.0600 
    219 H219       -2.7804  -21.7586  -51.4272 H         1 UNK         0.0600 
    220 H220       -1.7591  -20.7641  -53.6815 H         1 UNK         0.3000 
    221 H221       -2.4481  -21.5036  -56.4116 H         1 UNK         0.0600 
    222 H222       -2.4625  -18.7929  -54.9758 H         1 UNK         0.0600 
    223 H223       -1.1226  -19.4620  -55.9044 H         1 UNK         0.0600 
    224 H224       -2.6248  -19.0369  -56.7094 H         1 UNK         0.0600 
    225 H225       -4.1809  -20.7911  -53.4661 H         1 UNK         0.3000 
    226 H226       -6.6898  -21.6836  -54.1434 H         1 UNK         0.0600 
    227 H227       -6.9917  -19.6244  -55.5567 H         1 UNK         0.0600 
    228 H228       -7.9641  -19.4682  -54.1145 H         1 UNK         0.0600 
    229 H229       -6.4367  -18.6066  -54.2341 H         1 UNK         0.0600 
    230 H230       -8.2243  -20.6171  -52.2526 H         1 UNK         0.3000 
    231 H231       -7.1424  -21.2462  -49.7305 H         1 UNK         0.0600 
    232 H232       -9.2624  -20.2151  -48.8801 H         1 UNK         0.0600 
    233 H233       -9.5593  -21.3110  -50.2203 H         1 UNK         0.0600 
    234 H234       -9.5945  -19.5673  -50.4819 H         1 UNK         0.0600 
    235 H235       -5.4484  -20.2198  -48.9097 H         1 UNK         0.3000 
    236 H236       -3.9244  -18.7681  -48.2823 H         1 UNK         0.0600 
    237 H237       -6.2225  -16.7901  -47.8563 H         1 UNK         0.0600 
    238 H238       -5.6892  -18.0059  -46.6948 H         1 UNK         0.0600 
    239 H239       -4.6194  -16.6883  -47.1387 H         1 UNK         0.0600 
    240 H240       -4.4164  -19.0063  -51.0761 H         1 UNK         0.3000 
    241 H241       -3.8542  -18.2551  -53.0413 H         1 UNK         0.0600 
    242 H242       -6.8313  -15.7976  -52.7071 H         1 UNK         0.3800 
    243 H243       -6.3764  -16.9998  -51.5292 H         1 UNK         0.3800 
    244 H244       -2.3023  -15.9624  -51.7385 H         1 UNK         0.0800 
    245 H245       -2.2348  -16.3896  -53.4167 H         1 UNK         0.0800 
    246 H246       -1.1813  -16.9205  -50.0049 H         1 UNK         0.0800 
    247 H247       -1.4815  -18.6356  -49.8768 H         1 UNK         0.0800 
@<TRIPOS>BOND
     1    1    2 1    
     2    1  127 1    
     3    1  128 1    
     4    1  129 1    
     5    2    3 2    
     6    2    4 am   BACKBONE|DICT|INTERRES
     7    4    5 1    
     8    4  130 1    
     9    5    6 1    
    10    5   65 1    
    11    5  131 1    
    12    6    7 1    
    13    6  132 1    
    14    6  133 1    
    15    7    8 1    
    16    8    9 1    
    17    8  134 1    
    18    8  135 1    
    19    9   10 ar   
    20    9   14 ar   
    21   10   11 ar   
    22   10  136 1    
    23   11   12 ar   
    24   11  126 1    
    25   12   13 ar   
    26   12  137 1    
    27   13   14 ar   
    28   13   15 1    
    29   14  138 1    
    30   15   16 1    
    31   15  139 1    
    32   15  140 1    
    33   16   17 1    
    34   17   18 1    
    35   17  141 1    
    36   17  142 1    
    37   18   19 1    
    38   18   67 1    
    39   18  143 1    
    40   19   20 am   BACKBONE|DICT|INTERRES
    41   19  144 1    
    42   20   21 2    
    43   20   22 1    
    44   22   23 1    
    45   22   24 1    
    46   22  145 1    
    47   23  146 1    
    48   23  147 1    
    49   23  148 1    
    50   24   25 am   BACKBONE|DICT|INTERRES
    51   24  149 1    
    52   25   26 2    
    53   25   27 1    
    54   27   28 1    
    55   27   29 1    
    56   27  150 1    
    57   28  151 1    
    58   28  152 1    
    59   28  153 1    
    60   29   30 am   BACKBONE|DICT|INTERRES
    61   29  154 1    
    62   30   31 2    
    63   30   32 1    
    64   32   33 1    
    65   32   34 1    
    66   32  155 1    
    67   33  156 1    
    68   33  157 1    
    69   33  158 1    
    70   34   35 am   BACKBONE|DICT|INTERRES
    71   34  159 1    
    72   35   36 2    
    73   35   37 1    
    74   37   38 1    
    75   37   39 1    
    76   37  160 1    
    77   38  161 1    
    78   38  162 1    
    79   38  163 1    
    80   39   40 am   BACKBONE|DICT|INTERRES
    81   39  164 1    
    82   40   41 2    
    83   40   42 1    
    84   42   43 1    
    85   42   44 1    
    86   42  165 1    
    87   43  166 1    
    88   43  167 1    
    89   43  168 1    
    90   44   45 am   BACKBONE|DICT|INTERRES
    91   44  169 1    
    92   45   46 2    
    93   45   47 1    
    94   47   48 1    
    95   47   49 1    
    96   47  170 1    
    97   48  171 1    
    98   48  172 1    
    99   48  173 1    
   100   49   50 am   BACKBONE|DICT|INTERRES
   101   49  174 1    
   102   50   51 2    
   103   50   52 1    
   104   52   53 1    
   105   52   54 1    
   106   52  175 1    
   107   53  176 1    
   108   53  177 1    
   109   53  178 1    
   110   54   55 am   BACKBONE|DICT|INTERRES
   111   54  179 1    
   112   55   56 2    
   113   55   57 1    
   114   57   58 1    
   115   57   59 1    
   116   57  180 1    
   117   58  181 1    
   118   58  182 1    
   119   58  183 1    
   120   59   60 am   BACKBONE|DICT|INTERRES
   121   59  184 1    
   122   60   61 2    
   123   60   62 1    
   124   62   63 1    
   125   62   64 1    
   126   62  185 1    
   127   63  186 1    
   128   63  187 1    
   129   63  188 1    
   130   64   65 am   BACKBONE|DICT|INTERRES
   131   64  189 1    
   132   65   66 2    
   133   67   68 2    
   134   67   69 am   BACKBONE|DICT|INTERRES
   135   69   70 1    
   136   69  190 1    
   137   70   71 1    
   138   70   72 1    
   139   70  191 1    
   140   71  192 1    
   141   71  193 1    
   142   71  194 1    
   143   72   73 2    
   144   72   74 am   BACKBONE|DICT|INTERRES
   145   74   75 1    
   146   74  195 1    
   147   75   76 1    
   148   75   77 1    
   149   75  196 1    
   150   76  197 1    
   151   76  198 1    
   152   76  199 1    
   153   77   78 2    
   154   77   79 am   BACKBONE|DICT|INTERRES
   155   79   80 1    
   156   79  200 1    
   157   80   81 1    
   158   80   82 1    
   159   80  201 1    
   160   81  202 1    
   161   81  203 1    
   162   81  204 1    
   163   82   83 2    
   164   82   84 am   BACKBONE|DICT|INTERRES
   165   84   85 1    
   166   84  205 1    
   167   85   86 1    
   168   85   87 1    
   169   85  206 1    
   170   86  207 1    
   171   86  208 1    
   172   86  209 1    
   173   87   88 2    
   174   87   89 am   BACKBONE|DICT|INTERRES
   175   89   90 1    
   176   89  210 1    
   177   90   91 1    
   178   90   92 1    
   179   90  211 1    
   180   91  212 1    
   181   91  213 1    
   182   91  214 1    
   183   92   93 2    
   184   92   94 am   BACKBONE|DICT|INTERRES
   185   94   95 1    
   186   94  215 1    
   187   95   96 1    
   188   95   97 1    
   189   95  216 1    
   190   96  217 1    
   191   96  218 1    
   192   96  219 1    
   193   97   98 2    
   194   97   99 am   BACKBONE|DICT|INTERRES
   195   99  100 1    
   196   99  220 1    
   197  100  101 1    
   198  100  102 1    
   199  100  221 1    
   200  101  222 1    
   201  101  223 1    
   202  101  224 1    
   203  102  103 2    
   204  102  104 am   BACKBONE|DICT|INTERRES
   205  104  105 1    
   206  104  225 1    
   207  105  106 1    
   208  105  107 1    
   209  105  226 1    
   210  106  227 1    
   211  106  228 1    
   212  106  229 1    
   213  107  108 2    
   214  107  109 am   BACKBONE|DICT|INTERRES
   215  109  110 1    
   216  109  230 1    
   217  110  111 1    
   218  110  112 1    
   219  110  231 1    
   220  111  232 1    
   221  111  233 1    
   222  111  234 1    
   223  112  113 2    
   224  112  114 am   BACKBONE|DICT|INTERRES
   225  114  115 1    
   226  114  235 1    
   227  115  116 1    
   228  115  117 1    
   229  115  236 1    
   230  116  237 1    
   231  116  238 1    
   232  116  239 1    
   233  117  118 2    
   234  117  119 am   BACKBONE|DICT|INTERRES
   235  119  120 1    
   236  119  240 1    
   237  120  121 1    
   238  120  124 1    
   239  120  241 1    
   240  121  122 am   BACKBONE|DICT|INTERRES
   241  121  123 2    
   242  122  242 1    
   243  122  243 1    
   244  124  125 1    
   245  124  244 1    
   246  124  245 1    
   247  125  126 1    
   248  126  246 1    
   249  126  247 1    
@<TRIPOS>SUBSTRUCTURE
     1 UNK         1 GROUP             0       ****    0 ROOT    
