@<TRIPOS>MOLECULE
3R540
247   249    1
SMALL
USER_CHARGES


@<TRIPOS>ATOM
      1 CA         -6.7151  -13.8456  -44.6544 C.3       0 UNK        -0.1800 
      2 C          -5.6098  -13.2731  -45.5307 C.2       0 UNK         0.5000 
      3 O          -5.5820  -12.0660  -45.7731 O.2       0 UNK        -0.5000 
      4 N          -4.7080  -14.1359  -46.0128 N.am      1 UNK        -0.5000 
      5 CA         -3.5488  -13.7759  -46.8345 C.3       1 UNK         0.1400 
      6 C6         -2.8521  -15.0269  -47.4238 C.3       23 UNK        -0.0398 
      7 S7         -3.9559  -16.0651  -48.4396 S.3       23 UNK        -0.2404 
      8 C8         -3.1850  -15.9085  -50.0882 C.3       23 UNK        -0.0205 
      9 C9         -1.7946  -16.5298  -50.2544 C.ar      23 UNK        -0.0193 
     10 C10        -1.1164  -16.2991  -51.4546 C.ar      23 UNK        -0.1150 
     11 C11         0.1560  -16.8311  -51.6786 C.ar      23 UNK        -0.0193 
     12 C12         0.7689  -17.5886  -50.6776 C.ar      23 UNK        -0.1150 
     13 C13         0.1049  -17.8396  -49.4726 C.ar      23 UNK        -0.0193 
     14 C14        -1.1771  -17.3188  -49.2733 C.ar      23 UNK        -0.1150 
     15 C15         0.7868  -18.6125  -48.3512 C.3       23 UNK        -0.0205 
     16 S16         1.5026  -20.2083  -48.8647 S.3       23 UNK        -0.2404 
     17 C17         0.0710  -21.1541  -49.5015 C.3       23 UNK        -0.0398 
     18 CA         -0.8189  -21.8614  -48.4399 C.3       11 UNK         0.1400 
     19 N          -0.0847  -22.2751  -47.2426 N.am      11 UNK        -0.5000 
     20 C          -0.5797  -22.9818  -46.2183 C.2       10 UNK         0.5000 
     21 O          -1.7261  -23.4307  -46.1905 O.2       10 UNK        -0.5000 
     22 CA          0.3341  -23.1661  -44.9914 C.3       10 UNK         0.1400 
     23 CB          1.8382  -23.0578  -45.3203 C.3       10 UNK        -0.1800 
     24 N          -0.0071  -22.2454  -43.9014 N.am      10 UNK        -0.5000 
     25 C          -0.1202  -20.9097  -43.9570 C.2       9 UNK         0.5000 
     26 O          -0.0078  -20.2423  -44.9867 O.2       9 UNK        -0.5000 
     27 CA         -0.3906  -20.1770  -42.6321 C.3       9 UNK         0.1400 
     28 CB         -1.3336  -20.9353  -41.6736 C.3       9 UNK        -0.1800 
     29 N           0.8687  -19.7939  -41.9948 N.am      9 UNK        -0.5000 
     30 C           1.8152  -20.5877  -41.4751 C.2       8 UNK         0.5000 
     31 O           1.6934  -21.8019  -41.3023 O.2       8 UNK        -0.5000 
     32 CA          3.1416  -19.8722  -41.1516 C.3       8 UNK         0.1400 
     33 CB          4.1898  -20.7804  -40.4747 C.3       8 UNK        -0.1800 
     34 N           3.6796  -19.2268  -42.3553 N.am      8 UNK        -0.5000 
     35 C           4.0842  -19.8241  -43.4878 C.2       7 UNK         0.5000 
     36 O           4.1892  -21.0426  -43.6266 O.2       7 UNK        -0.5000 
     37 CA          4.4112  -18.9140  -44.6872 C.3       7 UNK         0.1400 
     38 CB          3.2968  -18.9964  -45.7401 C.3       7 UNK        -0.1800 
     39 N           4.6047  -17.5082  -44.3337 N.am      7 UNK        -0.5000 
     40 C           5.7064  -17.0051  -43.7624 C.2       6 UNK         0.5000 
     41 O           6.6753  -17.6845  -43.4222 O.2       6 UNK        -0.5000 
     42 CA          5.7210  -15.4854  -43.5320 C.3       6 UNK         0.1400 
     43 CB          6.0754  -14.7428  -44.8302 C.3       6 UNK        -0.1800 
     44 N           4.4291  -15.0078  -43.0419 N.am      6 UNK        -0.5000 
     45 C           4.0630  -15.0030  -41.7534 C.2       5 UNK         0.5000 
     46 O           4.7921  -15.3731  -40.8329 O.2       5 UNK        -0.5000 
     47 CA          2.6387  -14.5077  -41.4375 C.3       5 UNK         0.1400 
     48 CB          2.6379  -12.9917  -41.1897 C.3       5 UNK        -0.1800 
     49 N           1.6770  -14.8173  -42.4955 N.am      5 UNK        -0.5000 
     50 C           1.2474  -16.0510  -42.7925 C.2       4 UNK         0.5000 
     51 O           1.6000  -17.0640  -42.1895 O.2       4 UNK        -0.5000 
     52 CA          0.2787  -16.1820  -43.9809 C.3       4 UNK         0.1400 
     53 CB         -1.1665  -16.0464  -43.4795 C.3       4 UNK        -0.1800 
     54 N           0.5201  -15.2083  -45.0513 N.am      4 UNK        -0.5000 
     55 C           1.6692  -15.0824  -45.7355 C.2       3 UNK         0.5000 
     56 O           2.6727  -15.7543  -45.4977 O.2       3 UNK        -0.5000 
     57 CA          1.7325  -14.0322  -46.8619 C.3       3 UNK         0.1400 
     58 CB          1.7195  -14.7249  -48.2330 C.3       3 UNK        -0.1800 
     59 N           0.6491  -13.0500  -46.8265 N.am      3 UNK        -0.5000 
     60 C           0.4944  -12.0856  -45.9080 C.2       2 UNK         0.5000 
     61 O           1.2732  -11.8983  -44.9729 O.2       2 UNK        -0.5000 
     62 CA         -0.7747  -11.2182  -46.0429 C.3       2 UNK         0.1400 
     63 CB         -0.4895   -9.9726  -46.8952 C.3       2 UNK        -0.1800 
     64 N          -1.9010  -11.9585  -46.6265 N.am      2 UNK        -0.5000 
     65 C          -2.5199  -12.9755  -46.0114 C.2       1 UNK         0.5000 
     66 O          -2.2437  -13.3417  -44.8677 O.2       1 UNK        -0.5000 
     67 C          -2.0919  -21.0476  -48.1299 C.2       11 UNK         0.5000 
     68 O          -3.0762  -21.1911  -48.8519 O.2       11 UNK        -0.5000 
     69 N          -2.0898  -20.2582  -47.0467 N.am      12 UNK        -0.5000 
     70 CA         -3.2506  -19.4786  -46.6156 C.3       12 UNK         0.1400 
     71 CB         -2.8232  -18.4895  -45.5252 C.3       12 UNK        -0.1800 
     72 C          -4.4126  -20.3641  -46.1292 C.2       12 UNK         0.5000 
     73 O          -5.5717  -20.0496  -46.4007 O.2       12 UNK        -0.5000 
     74 N          -4.0784  -21.4762  -45.4586 N.am      13 UNK        -0.5000 
     75 CA         -5.0376  -22.4858  -45.0087 C.3       13 UNK         0.1400 
     76 CB         -4.3905  -23.3554  -43.9202 C.3       13 UNK        -0.1800 
     77 C          -5.5577  -23.3534  -46.1702 C.2       13 UNK         0.5000 
     78 O          -6.6930  -23.8275  -46.1140 O.2       13 UNK        -0.5000 
     79 N          -4.7431  -23.5123  -47.2220 N.am      14 UNK        -0.5000 
     80 CA         -5.0518  -24.2296  -48.4602 C.3       14 UNK         0.1400 
     81 CB         -3.7294  -24.6409  -49.1220 C.3       14 UNK        -0.1800 
     82 C          -5.9553  -23.4038  -49.4034 C.2       14 UNK         0.5000 
     83 O          -5.6027  -23.1644  -50.5633 O.2       14 UNK        -0.5000 
     84 N          -7.1119  -22.9882  -48.8687 N.am      15 UNK        -0.5000 
     85 CA         -8.1847  -22.2320  -49.5178 C.3       15 UNK         0.1400 
     86 CB         -8.8802  -23.1082  -50.5815 C.3       15 UNK        -0.1800 
     87 C          -7.7164  -20.8687  -50.0662 C.2       15 UNK         0.5000 
     88 O          -8.0679  -20.5090  -51.1894 O.2       15 UNK        -0.5000 
     89 N          -6.9090  -20.1443  -49.2737 N.am      16 UNK        -0.5000 
     90 CA         -6.2794  -18.8612  -49.6156 C.3       16 UNK         0.1400 
     91 CB         -7.3284  -17.7317  -49.6681 C.3       16 UNK        -0.1800 
     92 C          -5.4268  -18.9627  -50.8979 C.2       16 UNK         0.5000 
     93 O          -5.5993  -18.1813  -51.8345 O.2       16 UNK        -0.5000 
     94 N          -4.5567  -19.9795  -50.9137 N.am      17 UNK        -0.5000 
     95 CA         -3.6435  -20.3931  -51.9772 C.3       17 UNK         0.1400 
     96 CB         -2.6224  -19.2891  -52.3052 C.3       17 UNK        -0.1800 
     97 C          -4.3098  -20.9693  -53.2383 C.2       17 UNK         0.5000 
     98 O          -3.5853  -21.3077  -54.1738 O.2       17 UNK        -0.5000 
     99 N          -5.6402  -21.1346  -53.2556 N.am      18 UNK        -0.5000 
    100 CA        -6.3640  -21.7092  -54.3921 C.3       18 UNK         0.1400 
    101 CB        -7.8743  -21.4961  -54.2217 C.3       18 UNK        -0.1800 
    102 C         -6.0472  -23.1990  -54.6183 C.2       18 UNK         0.5000 
    103 O         -6.0222  -23.6357  -55.7698 O.2       18 UNK        -0.5000 
    104 N         -5.7940  -23.9449  -53.5326 N.am      19 UNK        -0.5000 
    105 CA        -5.4091  -25.3549  -53.5987 C.3       19 UNK         0.1400 
    106 CB        -5.9936  -26.1020  -52.3903 C.3       19 UNK        -0.1800 
    107 C         -3.8819  -25.5367  -53.6752 C.2       19 UNK         0.5000 
    108 O         -3.4212  -26.4647  -54.3410 O.2       19 UNK        -0.5000 
    109 N         -3.1228  -24.6664  -52.9928 N.am      20 UNK        -0.5000 
    110 CA        -1.6626  -24.7656  -52.8906 C.3       20 UNK         0.1400 
    111 CB        -1.1951  -24.1317  -51.5709 C.3       20 UNK        -0.1800 
    112 C         -0.8957  -24.1346  -54.0650 C.2       20 UNK         0.5000 
    113 O          0.2722  -24.4761  -54.2552 O.2       20 UNK        -0.5000 
    114 N         -1.5155  -23.1844  -54.7819 N.am      21 UNK        -0.5000 
    115 CA        -0.9119  -22.3467  -55.8304 C.3       21 UNK         0.1400 
    116 CB        -0.5965  -23.1868  -57.0854 C.3       21 UNK        -0.1800 
    117 C          0.3041  -21.5407  -55.3151 C.2       21 UNK         0.5000 
    118 O          1.3065  -21.4052  -56.0184 O.2       21 UNK        -0.5000 
    119 N          0.1922  -21.0652  -54.0666 N.am      22 UNK        -0.5000 
    120 CA         1.2415  -20.4126  -53.2601 C.3       22 UNK         0.1400 
    121 C          2.3900  -21.3639  -52.7971 C.2       22 UNK         0.5000 
    122 N          2.3019  -22.6764  -52.9828 N.am      22 UNK        -0.7600 
    123 O          3.3762  -20.9084  -52.2256 O.2       22 UNK        -0.5000 
    124 C124        1.7943  -19.0985  -53.8829 C.3       23 UNK        -0.0398 
    125 S125        0.5070  -17.8506  -54.2361 S.3       23 UNK        -0.2404 
    126 C126        0.8660  -16.5630  -52.9966 C.3       23 UNK        -0.0205 
    127 H127       -6.6215  -14.9256  -44.5371 H         1 UNK         0.0600 
    128 H128       -6.6811  -13.3920  -43.6638 H         1 UNK         0.0600 
    129 H129       -7.6899  -13.6349  -45.0941 H         1 UNK         0.0600 
    130 H130       -4.7847  -15.1139  -45.7768 H         1 UNK         0.3000 
    131 H131       -3.9011  -13.1525  -47.6592 H         1 UNK         0.0600 
    132 H132       -2.4536  -15.6550  -46.6264 H         1 UNK         0.0800 
    133 H133       -1.9918  -14.7300  -48.0260 H         1 UNK         0.0800 
    134 H134       -3.1362  -14.8491  -50.3442 H         1 UNK         0.0800 
    135 H135       -3.8512  -16.3659  -50.8192 H         1 UNK         0.0800 
    136 H136       -1.5868  -15.7059  -52.2263 H         1 UNK         0.1150 
    137 H137        1.7634  -17.9819  -50.8338 H         1 UNK         0.1150 
    138 H138       -1.6775  -17.5205  -48.3394 H         1 UNK         0.1150 
    139 H139        1.5897  -17.9879  -47.9599 H         1 UNK         0.0800 
    140 H140        0.1100  -18.7779  -47.5138 H         1 UNK         0.0800 
    141 H141       -0.5140  -20.5228  -50.1722 H         1 UNK         0.0800 
    142 H142        0.4974  -21.9211  -50.1489 H         1 UNK         0.0800 
    143 H143       -1.1740  -22.7870  -48.8945 H         1 UNK         0.0600 
    144 H144        0.8471  -21.8939  -47.1559 H         1 UNK         0.3000 
    145 H145        0.1488  -24.1749  -44.6200 H         1 UNK         0.0600 
    146 H146        2.4435  -23.3199  -44.4522 H         1 UNK         0.0600 
    147 H147        2.1177  -23.7379  -46.1258 H         1 UNK         0.0600 
    148 H148        2.1233  -22.0497  -45.6190 H         1 UNK         0.0600 
    149 H149       -0.0958  -22.6739  -42.9905 H         1 UNK         0.3000 
    150 H150       -0.8862  -19.2418  -42.8930 H         1 UNK         0.0600 
    151 H151       -2.2796  -21.1650  -42.1653 H         1 UNK         0.0600 
    152 H152       -1.5652  -20.3281  -40.7986 H         1 UNK         0.0600 
    153 H153       -0.9140  -21.8759  -41.3179 H         1 UNK         0.0600 
    154 H154        1.1112  -18.8091  -42.0899 H         1 UNK         0.3000 
    155 H155        2.9032  -19.0703  -40.4510 H         1 UNK         0.0600 
    156 H156        3.8147  -21.1588  -39.5233 H         1 UNK         0.0600 
    157 H157        5.1092  -20.2328  -40.2678 H         1 UNK         0.0600 
    158 H158        4.4452  -21.6447  -41.0879 H         1 UNK         0.0600 
    159 H159        3.5834  -18.2202  -42.3789 H         1 UNK         0.3000 
    160 H160        5.3329  -19.2863  -45.1391 H         1 UNK         0.0600 
    161 H161        2.3392  -18.6576  -45.3424 H         1 UNK         0.0600 
    162 H162        3.1636  -20.0185  -46.0932 H         1 UNK         0.0600 
    163 H163        3.5356  -18.3846  -46.6099 H         1 UNK         0.0600 
    164 H164        3.8729  -16.8672  -44.6319 H         1 UNK         0.3000 
    165 H165        6.4953  -15.2616  -42.7947 H         1 UNK         0.0600 
    166 H166        7.0438  -15.0678  -45.2128 H         1 UNK         0.0600 
    167 H167        5.3374  -14.9189  -45.6138 H         1 UNK         0.0600 
    168 H168        6.1363  -13.6672  -44.6638 H         1 UNK         0.0600 
    169 H169        3.7500  -14.7408  -43.7411 H         1 UNK         0.3000 
    170 H170        2.3106  -15.0044  -40.5218 H         1 UNK         0.0600 
    171 H171        3.3354  -12.7249  -40.3945 H         1 UNK         0.0600 
    172 H172        2.9293  -12.4376  -42.0831 H         1 UNK         0.0600 
    173 H173        1.6509  -12.6426  -40.8858 H         1 UNK         0.0600 
    174 H174        1.3405  -14.0420  -43.0492 H         1 UNK         0.3000 
    175 H175        0.4052  -17.1790  -44.4085 H         1 UNK         0.0600 
    176 H176       -1.3268  -15.0931  -42.9743 H         1 UNK         0.0600 
    177 H177       -1.8842  -16.1073  -44.2951 H         1 UNK         0.0600 
    178 H178       -1.4114  -16.8359  -42.7685 H         1 UNK         0.0600 
    179 H179       -0.2420  -14.5804  -45.2649 H         1 UNK         0.3000 
    180 H180        2.6802  -13.5007  -46.7540 H         1 UNK         0.0600 
    181 H181        0.7714  -15.2303  -48.4168 H         1 UNK         0.0600 
    182 H182        1.8779  -14.0088  -49.0395 H         1 UNK         0.0600 
    183 H183        2.5102  -15.4731  -48.3063 H         1 UNK         0.0600 
    184 H184       -0.0322  -13.1099  -47.5676 H         1 UNK         0.3000 
    185 H185       -1.0608  -10.8899  -45.0412 H         1 UNK         0.0600 
    186 H186       -1.3605   -9.3185  -46.9412 H         1 UNK         0.0600 
    187 H187        0.3304   -9.3903  -46.4724 H         1 UNK         0.0600 
    188 H188       -0.2123  -10.2363  -47.9166 H         1 UNK         0.0600 
    189 H189       -2.1810  -11.6945  -47.5606 H         1 UNK         0.3000 
    190 H190       -1.2619  -20.2246  -46.4570 H         1 UNK         0.3000 
    191 H191       -3.6024  -18.9060  -47.4750 H         1 UNK         0.0600 
    192 H192       -3.6248  -17.7832  -45.3067 H         1 UNK         0.0600 
    193 H193       -1.9517  -17.9154  -45.8387 H         1 UNK         0.0600 
    194 H194       -2.5717  -18.9980  -44.5951 H         1 UNK         0.0600 
    195 H195       -3.1001  -21.7023  -45.3455 H         1 UNK         0.3000 
    196 H196       -5.8961  -21.9753  -44.5670 H         1 UNK         0.0600 
    197 H197       -5.0998  -24.0907  -43.5380 H         1 UNK         0.0600 
    198 H198       -4.0637  -22.7508  -43.0743 H         1 UNK         0.0600 
    199 H199       -3.5257  -23.9020  -44.2966 H         1 UNK         0.0600 
    200 H200       -3.8279  -23.0847  -47.1754 H         1 UNK         0.3000 
    201 H201       -5.5943  -25.1425  -48.2067 H         1 UNK         0.0600 
    202 H202       -3.0796  -25.1686  -48.4234 H         1 UNK         0.0600 
    203 H203       -3.1928  -23.7683  -49.4882 H         1 UNK         0.0600 
    204 H204       -3.8985  -25.3029  -49.9704 H         1 UNK         0.0600 
    205 H205       -7.2722  -23.2337  -47.8960 H         1 UNK         0.3000 
    206 H206       -8.9194  -22.0089  -48.7430 H         1 UNK         0.0600 
    207 H207       -9.2602  -24.0304  -50.1421 H         1 UNK         0.0600 
    208 H208       -9.7299  -22.5892  -51.0265 H         1 UNK         0.0600 
    209 H209       -8.2012  -23.3814  -51.3893 H         1 UNK         0.0600 
    210 H210       -6.6590  -20.5181  -48.3664 H         1 UNK         0.3000 
    211 H211       -5.5895  -18.6282  -48.8050 H         1 UNK         0.0600 
    212 H212       -8.0466  -17.8794  -50.4750 H         1 UNK         0.0600 
    213 H213       -6.8495  -16.7651  -49.8290 H         1 UNK         0.0600 
    214 H214       -7.8825  -17.6666  -48.7319 H         1 UNK         0.0600 
    215 H215       -4.4779  -20.5502  -50.0771 H         1 UNK         0.3000 
    216 H216       -3.0823  -21.2282  -51.5585 H         1 UNK         0.0600 
    217 H217       -3.1002  -18.3712  -52.6459 H         1 UNK         0.0600 
    218 H218       -1.9306  -19.5953  -53.0880 H         1 UNK         0.0600 
    219 H219       -2.0237  -19.0543  -51.4279 H         1 UNK         0.0600 
    220 H220       -6.1885  -20.8519  -52.4526 H         1 UNK         0.3000 
    221 H221       -6.0527  -21.1682  -55.2883 H         1 UNK         0.0600 
    222 H222       -8.2668  -22.0534  -53.3719 H         1 UNK         0.0600 
    223 H223       -8.1114  -20.4426  -54.0721 H         1 UNK         0.0600 
    224 H224       -8.4162  -21.8297  -55.1074 H         1 UNK         0.0600 
    225 H225       -5.8325  -23.5182  -52.6123 H         1 UNK         0.3000 
    226 H226       -5.8372  -25.8107  -54.4943 H         1 UNK         0.0600 
    227 H227       -7.0806  -26.0232  -52.3685 H         1 UNK         0.0600 
    228 H228       -5.7447  -27.1632  -52.4301 H         1 UNK         0.0600 
    229 H229       -5.6139  -25.7123  -51.4481 H         1 UNK         0.0600 
    230 H230       -3.5786  -23.9373  -52.4652 H         1 UNK         0.3000 
    231 H231       -1.3790  -25.8202  -52.8635 H         1 UNK         0.0600 
    232 H232       -1.5995  -23.1292  -51.4339 H         1 UNK         0.0600 
    233 H233       -1.4928  -24.7459  -50.7233 H         1 UNK         0.0600 
    234 H234       -0.1075  -24.0558  -51.5276 H         1 UNK         0.0600 
    235 H235       -2.4598  -22.9165  -54.5241 H         1 UNK         0.3000 
    236 H236       -1.6663  -21.6102  -56.1105 H         1 UNK         0.0600 
    237 H237       -1.4774  -23.7315  -57.4252 H         1 UNK         0.0600 
    238 H238       -0.2713  -22.5507  -57.9094 H         1 UNK         0.0600 
    239 H239        0.1960  -23.9124  -56.9006 H         1 UNK         0.0600 
    240 H240       -0.6797  -21.2348  -53.5897 H         1 UNK         0.3000 
    241 H241        0.7430  -20.1298  -52.3330 H         1 UNK         0.0600 
    242 H242        1.5305  -23.0985  -53.4861 H         1 UNK         0.3800 
    243 H243        3.0577  -23.2612  -52.6641 H         1 UNK         0.3800 
    244 H244        2.3236  -19.3108  -54.8122 H         1 UNK         0.0800 
    245 H245        2.5387  -18.6519  -53.2228 H         1 UNK         0.0800 
    246 H246        1.9412  -16.4656  -52.8409 H         1 UNK         0.0800 
    247 H247        0.5386  -15.6021  -53.3963 H         1 UNK         0.0800 
@<TRIPOS>BOND
     1    1    2 1    
     2    1  127 1    
     3    1  128 1    
     4    1  129 1    
     5    2    3 2    
     6    2    4 am   BACKBONE|DICT|INTERRES
     7    4    5 1    
     8    4  130 1    
     9    5    6 1    
    10    5   65 1    
    11    5  131 1    
    12    6    7 1    
    13    6  132 1    
    14    6  133 1    
    15    7    8 1    
    16    8    9 1    
    17    8  134 1    
    18    8  135 1    
    19    9   10 ar   
    20    9   14 ar   
    21   10   11 ar   
    22   10  136 1    
    23   11   12 ar   
    24   11  126 1    
    25   12   13 ar   
    26   12  137 1    
    27   13   14 ar   
    28   13   15 1    
    29   14  138 1    
    30   15   16 1    
    31   15  139 1    
    32   15  140 1    
    33   16   17 1    
    34   17   18 1    
    35   17  141 1    
    36   17  142 1    
    37   18   19 1    
    38   18   67 1    
    39   18  143 1    
    40   19   20 am   BACKBONE|DICT|INTERRES
    41   19  144 1    
    42   20   21 2    
    43   20   22 1    
    44   22   23 1    
    45   22   24 1    
    46   22  145 1    
    47   23  146 1    
    48   23  147 1    
    49   23  148 1    
    50   24   25 am   BACKBONE|DICT|INTERRES
    51   24  149 1    
    52   25   26 2    
    53   25   27 1    
    54   27   28 1    
    55   27   29 1    
    56   27  150 1    
    57   28  151 1    
    58   28  152 1    
    59   28  153 1    
    60   29   30 am   BACKBONE|DICT|INTERRES
    61   29  154 1    
    62   30   31 2    
    63   30   32 1    
    64   32   33 1    
    65   32   34 1    
    66   32  155 1    
    67   33  156 1    
    68   33  157 1    
    69   33  158 1    
    70   34   35 am   BACKBONE|DICT|INTERRES
    71   34  159 1    
    72   35   36 2    
    73   35   37 1    
    74   37   38 1    
    75   37   39 1    
    76   37  160 1    
    77   38  161 1    
    78   38  162 1    
    79   38  163 1    
    80   39   40 am   BACKBONE|DICT|INTERRES
    81   39  164 1    
    82   40   41 2    
    83   40   42 1    
    84   42   43 1    
    85   42   44 1    
    86   42  165 1    
    87   43  166 1    
    88   43  167 1    
    89   43  168 1    
    90   44   45 am   BACKBONE|DICT|INTERRES
    91   44  169 1    
    92   45   46 2    
    93   45   47 1    
    94   47   48 1    
    95   47   49 1    
    96   47  170 1    
    97   48  171 1    
    98   48  172 1    
    99   48  173 1    
   100   49   50 am   BACKBONE|DICT|INTERRES
   101   49  174 1    
   102   50   51 2    
   103   50   52 1    
   104   52   53 1    
   105   52   54 1    
   106   52  175 1    
   107   53  176 1    
   108   53  177 1    
   109   53  178 1    
   110   54   55 am   BACKBONE|DICT|INTERRES
   111   54  179 1    
   112   55   56 2    
   113   55   57 1    
   114   57   58 1    
   115   57   59 1    
   116   57  180 1    
   117   58  181 1    
   118   58  182 1    
   119   58  183 1    
   120   59   60 am   BACKBONE|DICT|INTERRES
   121   59  184 1    
   122   60   61 2    
   123   60   62 1    
   124   62   63 1    
   125   62   64 1    
   126   62  185 1    
   127   63  186 1    
   128   63  187 1    
   129   63  188 1    
   130   64   65 am   BACKBONE|DICT|INTERRES
   131   64  189 1    
   132   65   66 2    
   133   67   68 2    
   134   67   69 am   BACKBONE|DICT|INTERRES
   135   69   70 1    
   136   69  190 1    
   137   70   71 1    
   138   70   72 1    
   139   70  191 1    
   140   71  192 1    
   141   71  193 1    
   142   71  194 1    
   143   72   73 2    
   144   72   74 am   BACKBONE|DICT|INTERRES
   145   74   75 1    
   146   74  195 1    
   147   75   76 1    
   148   75   77 1    
   149   75  196 1    
   150   76  197 1    
   151   76  198 1    
   152   76  199 1    
   153   77   78 2    
   154   77   79 am   BACKBONE|DICT|INTERRES
   155   79   80 1    
   156   79  200 1    
   157   80   81 1    
   158   80   82 1    
   159   80  201 1    
   160   81  202 1    
   161   81  203 1    
   162   81  204 1    
   163   82   83 2    
   164   82   84 am   BACKBONE|DICT|INTERRES
   165   84   85 1    
   166   84  205 1    
   167   85   86 1    
   168   85   87 1    
   169   85  206 1    
   170   86  207 1    
   171   86  208 1    
   172   86  209 1    
   173   87   88 2    
   174   87   89 am   BACKBONE|DICT|INTERRES
   175   89   90 1    
   176   89  210 1    
   177   90   91 1    
   178   90   92 1    
   179   90  211 1    
   180   91  212 1    
   181   91  213 1    
   182   91  214 1    
   183   92   93 2    
   184   92   94 am   BACKBONE|DICT|INTERRES
   185   94   95 1    
   186   94  215 1    
   187   95   96 1    
   188   95   97 1    
   189   95  216 1    
   190   96  217 1    
   191   96  218 1    
   192   96  219 1    
   193   97   98 2    
   194   97   99 am   BACKBONE|DICT|INTERRES
   195   99  100 1    
   196   99  220 1    
   197  100  101 1    
   198  100  102 1    
   199  100  221 1    
   200  101  222 1    
   201  101  223 1    
   202  101  224 1    
   203  102  103 2    
   204  102  104 am   BACKBONE|DICT|INTERRES
   205  104  105 1    
   206  104  225 1    
   207  105  106 1    
   208  105  107 1    
   209  105  226 1    
   210  106  227 1    
   211  106  228 1    
   212  106  229 1    
   213  107  108 2    
   214  107  109 am   BACKBONE|DICT|INTERRES
   215  109  110 1    
   216  109  230 1    
   217  110  111 1    
   218  110  112 1    
   219  110  231 1    
   220  111  232 1    
   221  111  233 1    
   222  111  234 1    
   223  112  113 2    
   224  112  114 am   BACKBONE|DICT|INTERRES
   225  114  115 1    
   226  114  235 1    
   227  115  116 1    
   228  115  117 1    
   229  115  236 1    
   230  116  237 1    
   231  116  238 1    
   232  116  239 1    
   233  117  118 2    
   234  117  119 am   BACKBONE|DICT|INTERRES
   235  119  120 1    
   236  119  240 1    
   237  120  121 1    
   238  120  124 1    
   239  120  241 1    
   240  121  122 am   BACKBONE|DICT|INTERRES
   241  121  123 2    
   242  122  242 1    
   243  122  243 1    
   244  124  125 1    
   245  124  244 1    
   246  124  245 1    
   247  125  126 1    
   248  126  246 1    
   249  126  247 1    
@<TRIPOS>SUBSTRUCTURE
     1 UNK         1 GROUP             0       ****    0 ROOT    
