@<TRIPOS>MOLECULE
3R540
247   249    1
SMALL
USER_CHARGES


@<TRIPOS>ATOM
      1 CA         -0.2276  -13.8512  -54.8168 C.3       0 UNK        -0.1800 
      2 C           0.3199  -14.2372  -53.4506 C.2       0 UNK         0.5000 
      3 O           1.3878  -14.8440  -53.3677 O.2       0 UNK        -0.5000 
      4 N          -0.4087  -13.8969  -52.3807 N.am      1 UNK        -0.5000 
      5 CA         -0.0273  -14.1666  -50.9952 C.3       1 UNK         0.1400 
      6 C6         -1.2672  -14.2566  -50.0721 C.3       23 UNK        -0.0398 
      7 S7         -0.8804  -15.0132  -48.4548 S.3       23 UNK        -0.2404 
      8 C8         -1.4786  -16.7146  -48.6819 C.3       23 UNK        -0.0205 
      9 C9         -0.5053  -17.5704  -49.4768 C.ar      23 UNK        -0.0193 
     10 C10        -0.5805  -17.6122  -50.8701 C.ar      23 UNK        -0.1150 
     11 C11         0.2727  -18.4369  -51.6082 C.ar      23 UNK        -0.0193 
     12 C12         1.2181  -19.2172  -50.9379 C.ar      23 UNK        -0.1150 
     13 C13         1.3144  -19.1741  -49.5437 C.ar      23 UNK        -0.0193 
     14 C14         0.4530  -18.3456  -48.8189 C.ar      23 UNK        -0.1150 
     15 C15         2.3517  -20.0233  -48.8272 C.3       23 UNK        -0.0205 
     16 S16         1.7144  -21.6871  -48.4594 S.3       23 UNK        -0.2404 
     17 C17         0.7383  -21.3663  -46.9539 C.3       23 UNK        -0.0398 
     18 CA          0.2706  -22.6798  -46.2798 C.3       11 UNK         0.1400 
     19 N           0.3032  -22.6078  -44.8154 N.am      11 UNK        -0.5000 
     20 C           0.0772  -23.6333  -43.9805 C.2       10 UNK         0.5000 
     21 O          -0.2055  -24.7718  -44.3585 O.2       10 UNK        -0.5000 
     22 CA          0.1360  -23.3219  -42.4753 C.3       10 UNK         0.1400 
     23 CB          1.5882  -23.2890  -41.9755 C.3       10 UNK        -0.1800 
     24 N          -0.5198  -22.0494  -42.1733 N.am      10 UNK        -0.5000 
     25 C          -1.8469  -21.9005  -42.0556 C.2       9 UNK         0.5000 
     26 O          -2.6427  -22.8394  -42.0834 O.2       9 UNK        -0.5000 
     27 CA         -2.3834  -20.4617  -41.9095 C.3       9 UNK         0.1400 
     28 CB         -2.4313  -20.0504  -40.4305 C.3       9 UNK        -0.1800 
     29 N          -1.6127  -19.4697  -42.6619 N.am      9 UNK        -0.5000 
     30 C          -1.4668  -19.4663  -43.9945 C.2       8 UNK         0.5000 
     31 O          -2.0024  -20.2811  -44.7440 O.2       8 UNK        -0.5000 
     32 CA         -0.5115  -18.4166  -44.5875 C.3       8 UNK         0.1400 
     33 CB         -1.2444  -17.0888  -44.8224 C.3       8 UNK        -0.1800 
     34 N           0.6736  -18.1805  -43.7620 N.am      8 UNK        -0.5000 
     35 C           1.5751  -19.1053  -43.4053 C.2       7 UNK         0.5000 
     36 O           1.5176  -20.2826  -43.7549 O.2       7 UNK        -0.5000 
     37 CA          2.6924  -18.6549  -42.4516 C.3       7 UNK         0.1400 
     38 CB          3.8118  -17.9193  -43.2033 C.3       7 UNK        -0.1800 
     39 N           2.1673  -17.8011  -41.3884 N.am      7 UNK        -0.5000 
     40 C           1.5002  -18.2540  -40.3185 C.2       6 UNK         0.5000 
     41 O           1.3124  -19.4483  -40.0853 O.2       6 UNK        -0.5000 
     42 CA          0.9316  -17.1932  -39.3565 C.3       6 UNK         0.1400 
     43 CB          1.9697  -16.8255  -38.2858 C.3       6 UNK        -0.1800 
     44 N           0.4937  -15.9741  -40.0403 N.am      6 UNK        -0.5000 
     45 C          -0.5667  -15.9059  -40.8568 C.2       5 UNK         0.5000 
     46 O          -1.2951  -16.8655  -41.1118 O.2       5 UNK        -0.5000 
     47 CA         -0.8279  -14.5469  -41.5386 C.3       5 UNK         0.1400 
     48 CB         -1.6293  -13.6243  -40.6080 C.3       5 UNK        -0.1800 
     49 N           0.3828  -13.8479  -41.9914 N.am      5 UNK        -0.5000 
     50 C           1.2964  -14.3626  -42.8249 C.2       4 UNK         0.5000 
     51 O           1.2673  -15.5277  -43.2238 O.2       4 UNK        -0.5000 
     52 CA          2.4614  -13.4488  -43.2490 C.3       4 UNK         0.1400 
     53 CB          3.5177  -13.3837  -42.1347 C.3       4 UNK        -0.1800 
     54 N           3.0962  -13.9608  -44.4650 N.am      4 UNK        -0.5000 
     55 C           2.5602  -13.8867  -45.6894 C.2       3 UNK         0.5000 
     56 O           1.5663  -13.2103  -45.9658 O.2       3 UNK        -0.5000 
     57 CA          3.2224  -14.7713  -46.7628 C.3       3 UNK         0.1400 
     58 CB          2.6004  -16.1785  -46.7459 C.3       3 UNK        -0.1800 
     59 N           3.0839  -14.2261  -48.1110 N.am      3 UNK        -0.5000 
     60 C           3.6917  -13.1267  -48.5784 C.2       2 UNK         0.5000 
     61 O           4.4686  -12.4425  -47.9107 O.2       2 UNK        -0.5000 
     62 CA          3.4138  -12.7414  -50.0478 C.3       2 UNK         0.1400 
     63 CB          4.6571  -12.9945  -50.9153 C.3       2 UNK        -0.1800 
     64 N           2.2902  -13.4899  -50.6160 N.am      2 UNK        -0.5000 
     65 C           1.0059  -13.1293  -50.5126 C.2       1 UNK         0.5000 
     66 O           0.6312  -12.0429  -50.0674 O.2       1 UNK        -0.5000 
     67 C          -1.0920  -23.1501  -46.8279 C.2       11 UNK         0.5000 
     68 O          -1.1184  -23.8919  -47.8057 O.2       11 UNK        -0.5000 
     69 N          -2.1866  -22.7880  -46.1430 N.am      12 UNK        -0.5000 
     70 CA         -3.5511  -23.2544  -46.4011 C.3       12 UNK         0.1400 
     71 CB         -4.4955  -22.6435  -45.3528 C.3       12 UNK        -0.1800 
     72 C          -3.7044  -24.7892  -46.4011 C.2       12 UNK         0.5000 
     73 O          -4.5258  -25.3101  -47.1560 O.2       12 UNK        -0.5000 
     74 N          -2.9173  -25.4772  -45.5629 N.am      13 UNK        -0.5000 
     75 CA         -2.8763  -26.9344  -45.4775 C.3       13 UNK         0.1400 
     76 CB         -2.6557  -27.3474  -44.0136 C.3       13 UNK        -0.1800 
     77 C          -1.7769  -27.5230  -46.3776 C.2       13 UNK         0.5000 
     78 O          -2.0082  -28.5493  -47.0179 O.2       13 UNK        -0.5000 
     79 N          -0.5984  -26.8833  -46.3974 N.am      14 UNK        -0.5000 
     80 CA          0.5853  -27.3597  -47.1177 C.3       14 UNK         0.1400 
     81 CB          1.8261  -26.6204  -46.5949 C.3       14 UNK        -0.1800 
     82 C           0.4852  -27.2279  -48.6502 C.2       14 UNK         0.5000 
     83 O           1.0418  -28.0642  -49.3634 O.2       14 UNK        -0.5000 
     84 N          -0.2049  -26.1882  -49.1280 N.am      15 UNK        -0.5000 
     85 CA         -0.3942  -25.8667  -50.5364 C.3       15 UNK         0.1400 
     86 CB          0.7398  -24.9326  -51.0090 C.3       15 UNK        -0.1800 
     87 C          -1.8055  -25.2824  -50.7020 C.2       15 UNK         0.5000 
     88 O          -2.7723  -26.0459  -50.7207 O.2       15 UNK        -0.5000 
     89 N          -1.9084  -23.9537  -50.7973 N.am      16 UNK        -0.5000 
     90 CA         -3.1516  -23.1968  -50.8191 C.3       16 UNK         0.1400 
     91 CB         -3.6873  -23.1043  -52.2596 C.3       16 UNK        -0.1800 
     92 C          -2.8822  -21.8001  -50.2456 C.2       16 UNK         0.5000 
     93 O          -1.7519  -21.3155  -50.3127 O.2       16 UNK        -0.5000 
     94 N          -3.9387  -21.1721  -49.7278 N.am      17 UNK        -0.5000 
     95 CA         -3.9737  -19.7961  -49.2521 C.3       17 UNK         0.1400 
     96 CB         -3.3411  -19.6781  -47.8561 C.3       17 UNK        -0.1800 
     97 C          -5.4469  -19.3793  -49.2379 C.2       17 UNK         0.5000 
     98 O          -6.2836  -20.1622  -48.7812 O.2       17 UNK        -0.5000 
     99 N          -5.7379  -18.1819  -49.7625 N.am      18 UNK        -0.5000 
    100 CA        -7.0764  -17.6041  -49.9400 C.3       18 UNK         0.1400 
    101 CB        -7.7377  -17.3125  -48.5763 C.3       18 UNK        -0.1800 
    102 C         -7.9770  -18.4314  -50.8869 C.2       18 UNK         0.5000 
    103 O         -9.1980  -18.4519  -50.7205 O.2       18 UNK        -0.5000 
    104 N         -7.3564  -19.0915  -51.8713 N.am      19 UNK        -0.5000 
    105 CA        -7.9971  -19.9100  -52.8916 C.3       19 UNK         0.1400 
    106 CB        -8.1966  -21.3420  -52.3666 C.3       19 UNK        -0.1800 
    107 C         -7.1021  -19.8982  -54.1355 C.2       19 UNK         0.5000 
    108 O         -5.8771  -19.9619  -53.9972 O.2       19 UNK        -0.5000 
    109 N         -7.7273  -19.8153  -55.3181 N.am      20 UNK        -0.5000 
    110 CA        -7.0935  -19.6931  -56.6365 C.3       20 UNK         0.1400 
    111 CB        -6.3886  -21.0150  -57.0186 C.3       20 UNK        -0.1800 
    112 C         -6.1837  -18.4452  -56.7191 C.2       20 UNK         0.5000 
    113 O         -6.5430  -17.3968  -56.1763 O.2       20 UNK        -0.5000 
    114 N         -5.0135  -18.5728  -57.3601 N.am      21 UNK        -0.5000 
    115 CA        -3.9865  -17.5281  -57.4540 C.3       21 UNK         0.1400 
    116 CB        -2.8863  -17.9968  -58.4186 C.3       21 UNK        -0.1800 
    117 C         -3.3768  -17.1344  -56.0916 C.2       21 UNK         0.5000 
    118 O         -2.8542  -16.0278  -55.9579 O.2       21 UNK        -0.5000 
    119 N         -3.4755  -18.0365  -55.1086 N.am      22 UNK        -0.5000 
    120 CA        -3.0962  -17.8191  -53.7081 C.3       22 UNK         0.1400 
    121 C         -4.2011  -17.1356  -52.8494 C.2       22 UNK         0.5000 
    122 N         -5.3518  -16.7620  -53.3977 N.am      22 UNK        -0.7600 
    123 O         -4.0060  -16.9267  -51.6547 O.2       22 UNK        -0.5000 
    124 C124       -2.5893  -19.1344  -53.0612 C.3       23 UNK        -0.0398 
    125 S125       -1.0003  -19.7081  -53.7549 S.3       23 UNK        -0.2404 
    126 C126        0.1864  -18.4680  -53.1281 C.3       23 UNK        -0.0205 
    127 H127        0.4458  -13.1483  -55.3069 H         1 UNK         0.0600 
    128 H128       -1.2123  -13.3887  -54.7439 H         1 UNK         0.0600 
    129 H129       -0.3172  -14.7363  -55.4471 H         1 UNK         0.0600 
    130 H130       -1.2582  -13.3655  -52.5085 H         1 UNK         0.3000 
    131 H131        0.4601  -15.1423  -50.9719 H         1 UNK         0.0600 
    132 H132       -2.0505  -14.8433  -50.5538 H         1 UNK         0.0800 
    133 H133       -1.7063  -13.2720  -49.9029 H         1 UNK         0.0800 
    134 H134       -2.4606  -16.7096  -49.1574 H         1 UNK         0.0800 
    135 H135       -1.6241  -17.1574  -47.6983 H         1 UNK         0.0800 
    136 H136       -1.3133  -17.0062  -51.3816 H         1 UNK         0.1150 
    137 H137        1.8781  -19.8616  -51.5012 H         1 UNK         0.1150 
    138 H138        0.5222  -18.3127  -47.7420 H         1 UNK         0.1150 
    139 H139        3.2394  -20.1204  -49.4539 H         1 UNK         0.0800 
    140 H140        2.6827  -19.5346  -47.9096 H         1 UNK         0.0800 
    141 H141       -0.0997  -20.7086  -47.1890 H         1 UNK         0.0800 
    142 H142        1.3833  -20.8037  -46.2798 H         1 UNK         0.0800 
    143 H143        0.9892  -23.4603  -46.5314 H         1 UNK         0.0600 
    144 H144        0.5811  -21.7155  -44.4138 H         1 UNK         0.3000 
    145 H145       -0.3809  -24.1254  -41.9461 H         1 UNK         0.0600 
    146 H146        1.6300  -23.1030  -40.9022 H         1 UNK         0.0600 
    147 H147        2.0838  -24.2429  -42.1604 H         1 UNK         0.0600 
    148 H148        2.1744  -22.5149  -42.4709 H         1 UNK         0.0600 
    149 H149        0.0657  -21.2251  -42.1674 H         1 UNK         0.3000 
    150 H150       -3.4031  -20.4518  -42.3000 H         1 UNK         0.0600 
    151 H151       -3.0136  -20.7625  -39.8445 H         1 UNK         0.0600 
    152 H152       -2.8967  -19.0721  -40.3085 H         1 UNK         0.0600 
    153 H153       -1.4331  -20.0027  -39.9941 H         1 UNK         0.0600 
    154 H154       -1.1858  -18.7223  -42.1260 H         1 UNK         0.3000 
    155 H155       -0.1706  -18.7931  -45.5521 H         1 UNK         0.0600 
    156 H156       -1.5490  -16.6301  -43.8825 H         1 UNK         0.0600 
    157 H157       -2.1466  -17.2371  -45.4163 H         1 UNK         0.0600 
    158 H158       -0.6121  -16.3762  -45.3531 H         1 UNK         0.0600 
    159 H159        0.8247  -17.2191  -43.4588 H         1 UNK         0.3000 
    160 H160        3.1255  -19.5522  -42.0039 H         1 UNK         0.0600 
    161 H161        4.6614  -17.7288  -42.5475 H         1 UNK         0.0600 
    162 H162        3.4766  -16.9605  -43.5955 H         1 UNK         0.0600 
    163 H163        4.1759  -18.5121  -44.0435 H         1 UNK         0.0600 
    164 H164        2.2097  -16.8044  -41.5463 H         1 UNK         0.3000 
    165 H165        0.0657  -17.6321  -38.8558 H         1 UNK         0.0600 
    166 H166        1.5528  -16.1342  -37.5531 H         1 UNK         0.0600 
    167 H167        2.3010  -17.7117  -37.7429 H         1 UNK         0.0600 
    168 H168        2.8532  -16.3593  -38.7238 H         1 UNK         0.0600 
    169 H169        1.0428  -15.1404  -39.8910 H         1 UNK         0.3000 
    170 H170       -1.4372  -14.7403  -42.4231 H         1 UNK         0.0600 
    171 H171       -2.5454  -14.1105  -40.2696 H         1 UNK         0.0600 
    172 H172       -1.0565  -13.3496  -39.7215 H         1 UNK         0.0600 
    173 H173       -1.9210  -12.7059  -41.1179 H         1 UNK         0.0600 
    174 H174        0.4852  -12.8903  -41.6875 H         1 UNK         0.3000 
    175 H175        2.0751  -12.4454  -43.4390 H         1 UNK         0.0600 
    176 H176        3.9189  -14.3708  -41.9002 H         1 UNK         0.0600 
    177 H177        4.3519  -12.7425  -42.4204 H         1 UNK         0.0600 
    178 H178        3.0965  -12.9739  -41.2159 H         1 UNK         0.0600 
    179 H179        3.8936  -14.5625  -44.3233 H         1 UNK         0.3000 
    180 H180        4.2880  -14.8560  -46.5396 H         1 UNK         0.0600 
    181 H181        1.5336  -16.1453  -46.9683 H         1 UNK         0.0600 
    182 H182        2.7086  -16.6486  -45.7692 H         1 UNK         0.0600 
    183 H183        3.0760  -16.8336  -47.4760 H         1 UNK         0.0600 
    184 H184        2.4294  -14.6976  -48.7154 H         1 UNK         0.3000 
    185 H185        3.1933  -11.6721  -50.0730 H         1 UNK         0.0600 
    186 H186        5.5131  -12.4267  -50.5484 H         1 UNK         0.0600 
    187 H187        4.9387  -14.0483  -50.9183 H         1 UNK         0.0600 
    188 H188        4.4854  -12.6899  -51.9480 H         1 UNK         0.0600 
    189 H189        2.5145  -14.3635  -51.0735 H         1 UNK         0.3000 
    190 H190       -2.0787  -22.1051  -45.3983 H         1 UNK         0.3000 
    191 H191       -3.8408  -22.8906  -47.3878 H         1 UNK         0.0600 
    192 H192       -4.2635  -23.0028  -44.3496 H         1 UNK         0.0600 
    193 H193       -5.5330  -22.9058  -45.5634 H         1 UNK         0.0600 
    194 H194       -4.4344  -21.5564  -45.3328 H         1 UNK         0.0600 
    195 H195       -2.2380  -24.9731  -45.0062 H         1 UNK         0.3000 
    196 H196       -3.8327  -27.3523  -45.7991 H         1 UNK         0.0600 
    197 H197       -2.6367  -28.4333  -43.9137 H         1 UNK         0.0600 
    198 H198       -3.4579  -26.9761  -43.3756 H         1 UNK         0.0600 
    199 H199       -1.7128  -26.9651  -43.6209 H         1 UNK         0.0600 
    200 H200       -0.4764  -26.0662  -45.8075 H         1 UNK         0.3000 
    201 H201        0.7096  -28.4203  -46.8884 H         1 UNK         0.0600 
    202 H202        1.9217  -26.7196  -45.5134 H         1 UNK         0.0600 
    203 H203        1.7910  -25.5586  -46.8338 H         1 UNK         0.0600 
    204 H204        2.7357  -27.0243  -47.0411 H         1 UNK         0.0600 
    205 H205       -0.6333  -25.5297  -48.4791 H         1 UNK         0.3000 
    206 H206       -0.3619  -26.7796  -51.1347 H         1 UNK         0.0600 
    207 H207        0.5837  -24.6133  -52.0402 H         1 UNK         0.0600 
    208 H208        0.8181  -24.0391  -50.3882 H         1 UNK         0.0600 
    209 H209        1.7030  -25.4416  -50.9719 H         1 UNK         0.0600 
    210 H210       -1.0818  -23.3766  -50.6969 H         1 UNK         0.3000 
    211 H211       -3.8874  -23.6936  -50.1825 H         1 UNK         0.0600 
    212 H212       -2.9670  -22.6235  -52.9230 H         1 UNK         0.0600 
    213 H213       -4.6091  -22.5224  -52.3011 H         1 UNK         0.0600 
    214 H214       -3.9084  -24.0919  -52.6644 H         1 UNK         0.0600 
    215 H215       -4.8427  -21.6278  -49.7122 H         1 UNK         0.3000 
    216 H216       -3.4256  -19.1566  -49.9446 H         1 UNK         0.0600 
    217 H217       -3.4475  -18.6681  -47.4611 H         1 UNK         0.0600 
    218 H218       -2.2772  -19.9121  -47.8802 H         1 UNK         0.0600 
    219 H219       -3.8161  -20.3516  -47.1465 H         1 UNK         0.0600 
    220 H220       -4.9872  -17.6422  -50.1879 H         1 UNK         0.3000 
    221 H221       -6.9234  -16.6456  -50.4375 H         1 UNK         0.0600 
    222 H222       -7.9931  -18.2289  -48.0439 H         1 UNK         0.0600 
    223 H223       -7.0790  -16.7250  -47.9367 H         1 UNK         0.0600 
    224 H224       -8.6585  -16.7419  -48.7024 H         1 UNK         0.0600 
    225 H225       -6.3562  -18.9927  -51.9854 H         1 UNK         0.3000 
    226 H226       -8.9665  -19.4777  -53.1487 H         1 UNK         0.0600 
    227 H227       -8.6598  -21.9750  -53.1243 H         1 UNK         0.0600 
    228 H228       -7.2477  -21.8017  -52.0870 H         1 UNK         0.0600 
    229 H229       -8.8447  -21.3549  -51.4902 H         1 UNK         0.0600 
    230 H230       -8.7351  -19.7436  -55.3204 H         1 UNK         0.3000 
    231 H231       -7.8999  -19.5275  -57.3522 H         1 UNK         0.0600 
    232 H232       -7.0676  -21.8614  -56.9140 H         1 UNK         0.0600 
    233 H233       -5.5187  -21.2129  -56.3911 H         1 UNK         0.0600 
    234 H234       -6.0572  -21.0039  -58.0575 H         1 UNK         0.0600 
    235 H235       -4.7858  -19.4653  -57.7738 H         1 UNK         0.3000 
    236 H236       -4.4534  -16.6344  -57.8730 H         1 UNK         0.0600 
    237 H237       -3.2910  -18.2048  -59.4092 H         1 UNK         0.0600 
    238 H238       -2.1185  -17.2311  -58.5370 H         1 UNK         0.0600 
    239 H239       -2.3945  -18.9012  -58.0580 H         1 UNK         0.0600 
    240 H240       -3.9566  -18.9043  -55.2982 H         1 UNK         0.3000 
    241 H241       -2.2767  -17.1012  -53.6913 H         1 UNK         0.0600 
    242 H242       -5.5493  -16.9431  -54.3745 H         1 UNK         0.3800 
    243 H243       -6.0300  -16.2709  -52.8407 H         1 UNK         0.3800 
    244 H244       -2.4720  -19.0435  -51.9847 H         1 UNK         0.0800 
    245 H245       -3.3245  -19.9282  -53.1976 H         1 UNK         0.0800 
    246 H246        1.1694  -18.6964  -53.5423 H         1 UNK         0.0800 
    247 H247       -0.0647  -17.4785  -53.5103 H         1 UNK         0.0800 
@<TRIPOS>BOND
     1    1    2 1    
     2    1  127 1    
     3    1  128 1    
     4    1  129 1    
     5    2    3 2    
     6    2    4 am   BACKBONE|DICT|INTERRES
     7    4    5 1    
     8    4  130 1    
     9    5    6 1    
    10    5   65 1    
    11    5  131 1    
    12    6    7 1    
    13    6  132 1    
    14    6  133 1    
    15    7    8 1    
    16    8    9 1    
    17    8  134 1    
    18    8  135 1    
    19    9   10 ar   
    20    9   14 ar   
    21   10   11 ar   
    22   10  136 1    
    23   11   12 ar   
    24   11  126 1    
    25   12   13 ar   
    26   12  137 1    
    27   13   14 ar   
    28   13   15 1    
    29   14  138 1    
    30   15   16 1    
    31   15  139 1    
    32   15  140 1    
    33   16   17 1    
    34   17   18 1    
    35   17  141 1    
    36   17  142 1    
    37   18   19 1    
    38   18   67 1    
    39   18  143 1    
    40   19   20 am   BACKBONE|DICT|INTERRES
    41   19  144 1    
    42   20   21 2    
    43   20   22 1    
    44   22   23 1    
    45   22   24 1    
    46   22  145 1    
    47   23  146 1    
    48   23  147 1    
    49   23  148 1    
    50   24   25 am   BACKBONE|DICT|INTERRES
    51   24  149 1    
    52   25   26 2    
    53   25   27 1    
    54   27   28 1    
    55   27   29 1    
    56   27  150 1    
    57   28  151 1    
    58   28  152 1    
    59   28  153 1    
    60   29   30 am   BACKBONE|DICT|INTERRES
    61   29  154 1    
    62   30   31 2    
    63   30   32 1    
    64   32   33 1    
    65   32   34 1    
    66   32  155 1    
    67   33  156 1    
    68   33  157 1    
    69   33  158 1    
    70   34   35 am   BACKBONE|DICT|INTERRES
    71   34  159 1    
    72   35   36 2    
    73   35   37 1    
    74   37   38 1    
    75   37   39 1    
    76   37  160 1    
    77   38  161 1    
    78   38  162 1    
    79   38  163 1    
    80   39   40 am   BACKBONE|DICT|INTERRES
    81   39  164 1    
    82   40   41 2    
    83   40   42 1    
    84   42   43 1    
    85   42   44 1    
    86   42  165 1    
    87   43  166 1    
    88   43  167 1    
    89   43  168 1    
    90   44   45 am   BACKBONE|DICT|INTERRES
    91   44  169 1    
    92   45   46 2    
    93   45   47 1    
    94   47   48 1    
    95   47   49 1    
    96   47  170 1    
    97   48  171 1    
    98   48  172 1    
    99   48  173 1    
   100   49   50 am   BACKBONE|DICT|INTERRES
   101   49  174 1    
   102   50   51 2    
   103   50   52 1    
   104   52   53 1    
   105   52   54 1    
   106   52  175 1    
   107   53  176 1    
   108   53  177 1    
   109   53  178 1    
   110   54   55 am   BACKBONE|DICT|INTERRES
   111   54  179 1    
   112   55   56 2    
   113   55   57 1    
   114   57   58 1    
   115   57   59 1    
   116   57  180 1    
   117   58  181 1    
   118   58  182 1    
   119   58  183 1    
   120   59   60 am   BACKBONE|DICT|INTERRES
   121   59  184 1    
   122   60   61 2    
   123   60   62 1    
   124   62   63 1    
   125   62   64 1    
   126   62  185 1    
   127   63  186 1    
   128   63  187 1    
   129   63  188 1    
   130   64   65 am   BACKBONE|DICT|INTERRES
   131   64  189 1    
   132   65   66 2    
   133   67   68 2    
   134   67   69 am   BACKBONE|DICT|INTERRES
   135   69   70 1    
   136   69  190 1    
   137   70   71 1    
   138   70   72 1    
   139   70  191 1    
   140   71  192 1    
   141   71  193 1    
   142   71  194 1    
   143   72   73 2    
   144   72   74 am   BACKBONE|DICT|INTERRES
   145   74   75 1    
   146   74  195 1    
   147   75   76 1    
   148   75   77 1    
   149   75  196 1    
   150   76  197 1    
   151   76  198 1    
   152   76  199 1    
   153   77   78 2    
   154   77   79 am   BACKBONE|DICT|INTERRES
   155   79   80 1    
   156   79  200 1    
   157   80   81 1    
   158   80   82 1    
   159   80  201 1    
   160   81  202 1    
   161   81  203 1    
   162   81  204 1    
   163   82   83 2    
   164   82   84 am   BACKBONE|DICT|INTERRES
   165   84   85 1    
   166   84  205 1    
   167   85   86 1    
   168   85   87 1    
   169   85  206 1    
   170   86  207 1    
   171   86  208 1    
   172   86  209 1    
   173   87   88 2    
   174   87   89 am   BACKBONE|DICT|INTERRES
   175   89   90 1    
   176   89  210 1    
   177   90   91 1    
   178   90   92 1    
   179   90  211 1    
   180   91  212 1    
   181   91  213 1    
   182   91  214 1    
   183   92   93 2    
   184   92   94 am   BACKBONE|DICT|INTERRES
   185   94   95 1    
   186   94  215 1    
   187   95   96 1    
   188   95   97 1    
   189   95  216 1    
   190   96  217 1    
   191   96  218 1    
   192   96  219 1    
   193   97   98 2    
   194   97   99 am   BACKBONE|DICT|INTERRES
   195   99  100 1    
   196   99  220 1    
   197  100  101 1    
   198  100  102 1    
   199  100  221 1    
   200  101  222 1    
   201  101  223 1    
   202  101  224 1    
   203  102  103 2    
   204  102  104 am   BACKBONE|DICT|INTERRES
   205  104  105 1    
   206  104  225 1    
   207  105  106 1    
   208  105  107 1    
   209  105  226 1    
   210  106  227 1    
   211  106  228 1    
   212  106  229 1    
   213  107  108 2    
   214  107  109 am   BACKBONE|DICT|INTERRES
   215  109  110 1    
   216  109  230 1    
   217  110  111 1    
   218  110  112 1    
   219  110  231 1    
   220  111  232 1    
   221  111  233 1    
   222  111  234 1    
   223  112  113 2    
   224  112  114 am   BACKBONE|DICT|INTERRES
   225  114  115 1    
   226  114  235 1    
   227  115  116 1    
   228  115  117 1    
   229  115  236 1    
   230  116  237 1    
   231  116  238 1    
   232  116  239 1    
   233  117  118 2    
   234  117  119 am   BACKBONE|DICT|INTERRES
   235  119  120 1    
   236  119  240 1    
   237  120  121 1    
   238  120  124 1    
   239  120  241 1    
   240  121  122 am   BACKBONE|DICT|INTERRES
   241  121  123 2    
   242  122  242 1    
   243  122  243 1    
   244  124  125 1    
   245  124  244 1    
   246  124  245 1    
   247  125  126 1    
   248  126  246 1    
   249  126  247 1    
@<TRIPOS>SUBSTRUCTURE
     1 UNK         1 GROUP             0       ****    0 ROOT    
