@<TRIPOS>MOLECULE
3R540
247   249    1
SMALL
USER_CHARGES


@<TRIPOS>ATOM
      1 CA          1.6183  -12.5623  -46.3355 C.3       0 UNK        -0.1800 
      2 C           0.2565  -13.1413  -46.6849 C.2       0 UNK         0.5000 
      3 O          -0.6435  -12.4051  -47.0914 O.2       0 UNK        -0.5000 
      4 N           0.1071  -14.4598  -46.5120 N.am      1 UNK        -0.5000 
      5 CA         -1.0918  -15.2801  -46.7231 C.3       1 UNK         0.1400 
      6 C6         -1.6877  -15.2249  -48.1548 C.3       23 UNK        -0.0398 
      7 S7         -0.4973  -15.8171  -49.4038 S.3       23 UNK        -0.2404 
      8 C8         -1.2074  -17.4352  -49.8307 C.3       23 UNK        -0.0205 
      9 C9         -0.2215  -18.2662  -50.6340 C.ar      23 UNK        -0.0193 
     10 C10        -0.1562  -18.1410  -52.0234 C.ar      23 UNK        -0.1150 
     11 C11         0.7571  -18.8997  -52.7606 C.ar      23 UNK        -0.0193 
     12 C12         1.6057  -19.7913  -52.0975 C.ar      23 UNK        -0.1150 
     13 C13         1.5484  -19.9318  -50.7064 C.ar      23 UNK        -0.0193 
     14 C14         0.6299  -19.1621  -49.9835 C.ar      23 UNK        -0.1150 
     15 C15         2.4511  -20.9466  -50.0092 C.3       23 UNK        -0.0205 
     16 S16         3.4450  -20.2342  -48.6551 S.3       23 UNK        -0.2404 
     17 C17         2.3967  -20.5701  -47.1971 C.3       23 UNK        -0.0398 
     18 CA          2.9118  -21.7432  -46.3228 C.3       11 UNK         0.1400 
     19 N           2.5055  -21.5579  -44.9251 N.am      11 UNK        -0.5000 
     20 C           2.9646  -22.2442  -43.8698 C.2       10 UNK         0.5000 
     21 O           3.8772  -23.0681  -43.9296 O.2       10 UNK        -0.5000 
     22 CA          2.2367  -22.0015  -42.5342 C.3       10 UNK         0.1400 
     23 CB          2.8498  -20.8095  -41.7819 C.3       10 UNK        -0.1800 
     24 N           0.8002  -21.7756  -42.7269 N.am      10 UNK        -0.5000 
     25 C          -0.0865  -22.7335  -43.0365 C.2       9 UNK         0.5000 
     26 O           0.2077  -23.9220  -43.1573 O.2       9 UNK        -0.5000 
     27 CA         -1.5372  -22.2857  -43.3023 C.3       9 UNK         0.1400 
     28 CB         -2.3280  -22.1831  -41.9901 C.3       9 UNK        -0.1800 
     29 N          -1.6097  -21.0079  -44.0112 N.am      9 UNK        -0.5000 
     30 C          -1.2569  -20.8307  -45.2913 C.2       8 UNK         0.5000 
     31 O          -0.9079  -21.7461  -46.0363 O.2       8 UNK        -0.5000 
     32 CA         -1.2595  -19.3836  -45.8179 C.3       8 UNK         0.1400 
     33 CB         -2.6158  -19.0442  -46.4440 C.3       8 UNK        -0.1800 
     34 N          -0.9399  -18.3835  -44.7966 N.am      8 UNK        -0.5000 
     35 C           0.2259  -18.3146  -44.1441 C.2       7 UNK         0.5000 
     36 O           1.1306  -19.1399  -44.2796 O.2       7 UNK        -0.5000 
     37 CA          0.3775  -17.1726  -43.1259 C.3       7 UNK         0.1400 
     38 CB         -0.0824  -17.6491  -41.7395 C.3       7 UNK        -0.1800 
     39 N           1.7506  -16.6831  -43.0216 N.am      7 UNK        -0.5000 
     40 C           2.4590  -16.1299  -44.0161 C.2       6 UNK         0.5000 
     41 O           2.0390  -15.9834  -45.1653 O.2       6 UNK        -0.5000 
     42 CA          3.8430  -15.5964  -43.6202 C.3       6 UNK         0.1400 
     43 CB          4.5732  -14.8630  -44.7621 C.3       6 UNK        -0.1800 
     44 N           3.6839  -14.7075  -42.4720 N.am      6 UNK        -0.5000 
     45 C           4.6011  -14.4975  -41.5202 C.2       5 UNK         0.5000 
     46 O           5.7049  -15.0454  -41.5172 O.2       5 UNK        -0.5000 
     47 CA          4.2192  -13.5493  -40.3594 C.3       5 UNK         0.1400 
     48 CB          5.4202  -12.7234  -39.8516 C.3       5 UNK        -0.1800 
     49 N           3.0644  -12.6832  -40.6347 N.am      5 UNK        -0.5000 
     50 C           2.9664  -11.7120  -41.5562 C.2       4 UNK         0.5000 
     51 O           3.8840  -11.3863  -42.3108 O.2       4 UNK        -0.5000 
     52 CA          1.5968  -11.0009  -41.6471 C.3       4 UNK         0.1400 
     53 CB          1.3763  -10.3018  -43.0047 C.3       4 UNK        -0.1800 
     54 N           0.4513  -11.8681  -41.3321 N.am      4 UNK        -0.5000 
     55 C           0.1024  -13.0044  -41.9549 C.2       3 UNK         0.5000 
     56 O           0.7731  -13.5290  -42.8447 O.2       3 UNK        -0.5000 
     57 CA         -1.2008  -13.6974  -41.5031 C.3       3 UNK         0.1400 
     58 CB         -1.8777  -13.0604  -40.2682 C.3       3 UNK        -0.1800 
     59 N          -2.1446  -13.8229  -42.6167 N.am      3 UNK        -0.5000 
     60 C          -2.7072  -12.8281  -43.3174 C.2       2 UNK         0.5000 
     61 O          -2.5578  -11.6315  -43.0632 O.2       2 UNK        -0.5000 
     62 CA         -3.5398  -13.2629  -44.5386 C.3       2 UNK         0.1400 
     63 CB         -4.3794  -12.1158  -45.1285 C.3       2 UNK        -0.1800 
     64 N          -2.6505  -13.7730  -45.5775 N.am      2 UNK        -0.5000 
     65 C          -2.1513  -15.0115  -45.6383 C.2       1 UNK         0.5000 
     66 O          -2.4556  -15.9090  -44.8491 O.2       1 UNK        -0.5000 
     67 C           2.4590  -23.1100  -46.8977 C.2       11 UNK         0.5000 
     68 O           3.0111  -23.5571  -47.9028 O.2       11 UNK        -0.5000 
     69 N           1.4669  -23.7401  -46.2494 N.am      12 UNK        -0.5000 
     70 CA          0.8082  -24.9974  -46.6105 C.3       12 UNK         0.1400 
     71 CB          1.8040  -26.1761  -46.6377 C.3       12 UNK        -0.1800 
     72 C          -0.0379  -24.8719  -47.8937 C.2       12 UNK         0.5000 
     73 O          -0.0902  -25.8027  -48.6986 O.2       12 UNK        -0.5000 
     74 N          -0.7240  -23.7297  -48.0373 N.am      13 UNK        -0.5000 
     75 CA         -1.6653  -23.4322  -49.1190 C.3       13 UNK         0.1400 
     76 CB         -1.5022  -21.9629  -49.5404 C.3       13 UNK        -0.1800 
     77 C          -3.1217  -23.7509  -48.7238 C.2       13 UNK         0.5000 
     78 O          -4.0463  -23.1755  -49.3022 O.2       13 UNK        -0.5000 
     79 N          -3.3085  -24.6437  -47.7390 N.am      14 UNK        -0.5000 
     80 CA         -4.5900  -25.1433  -47.2254 C.3       14 UNK         0.1400 
     81 CB         -5.2758  -26.0322  -48.2844 C.3       14 UNK        -0.1800 
     82 C          -5.5005  -24.0114  -46.7068 C.2       14 UNK         0.5000 
     83 O          -6.6787  -23.9522  -47.0571 O.2       14 UNK        -0.5000 
     84 N          -4.9080  -23.0919  -45.9287 N.am      15 UNK        -0.5000 
     85 CA         -5.5247  -21.8633  -45.4063 C.3       15 UNK         0.1400 
     86 CB         -6.6093  -22.1926  -44.3601 C.3       15 UNK        -0.1800 
     87 C          -6.0249  -20.9242  -46.5288 C.2       15 UNK         0.5000 
     88 O          -7.0665  -20.2822  -46.3903 O.2       15 UNK        -0.5000 
     89 N          -5.2504  -20.8845  -47.6222 N.am      16 UNK        -0.5000 
     90 CA         -5.4426  -20.1265  -48.8612 C.3       16 UNK         0.1400 
     91 CB         -5.6561  -18.6193  -48.6055 C.3       16 UNK        -0.1800 
     92 C          -6.4961  -20.7252  -49.8136 C.2       16 UNK         0.5000 
     93 O          -6.8327  -20.0820  -50.8081 O.2       16 UNK        -0.5000 
     94 N          -6.9621  -21.9556  -49.5537 N.am      17 UNK        -0.5000 
     95 CA         -7.8401  -22.6927  -50.4656 C.3       17 UNK         0.1400 
     96 CB         -8.5004  -23.8648  -49.7262 C.3       17 UNK        -0.1800 
     97 C          -7.0972  -23.1917  -51.7200 C.2       17 UNK         0.5000 
     98 O          -7.6919  -23.2254  -52.7978 O.2       17 UNK        -0.5000 
     99 N          -5.8120  -23.5464  -51.5702 N.am      18 UNK        -0.5000 
    100 CA        -4.9525  -24.0032  -52.6653 C.3       18 UNK         0.1400 
    101 CB        -3.9798  -25.0708  -52.1428 C.3       18 UNK        -0.1800 
    102 C         -4.1837  -22.8471  -53.3313 C.2       18 UNK         0.5000 
    103 O         -3.6107  -23.0500  -54.4009 O.2       18 UNK        -0.5000 
    104 N         -4.2016  -21.6483  -52.7268 N.am      19 UNK        -0.5000 
    105 CA        -3.5430  -20.4377  -53.2373 C.3       19 UNK         0.1400 
    106 CB        -3.6204  -19.3251  -52.1821 C.3       19 UNK        -0.1800 
    107 C         -4.0982  -19.9434  -54.5903 C.2       19 UNK         0.5000 
    108 O         -3.4142  -19.2056  -55.2980 O.2       19 UNK        -0.5000 
    109 N         -5.3082  -20.3899  -54.9531 N.am      20 UNK        -0.5000 
    110 CA        -5.9235  -20.1798  -56.2634 C.3       20 UNK         0.1400 
    111 CB        -7.3877  -20.6404  -56.1963 C.3       20 UNK        -0.1800 
    112 C         -5.1850  -20.8937  -57.4174 C.2       20 UNK         0.5000 
    113 O         -5.3515  -20.4933  -58.5700 O.2       20 UNK        -0.5000 
    114 N         -4.3902  -21.9286  -57.1033 N.am      21 UNK        -0.5000 
    115 CA        -3.6055  -22.6955  -58.0731 C.3       21 UNK         0.1400 
    116 CB        -3.3937  -24.1187  -57.5311 C.3       21 UNK        -0.1800 
    117 C         -2.2521  -22.0423  -58.4212 C.2       21 UNK         0.5000 
    118 O         -1.5957  -22.5057  -59.3556 O.2       21 UNK        -0.5000 
    119 N         -1.8410  -21.0072  -57.6743 N.am      22 UNK        -0.5000 
    120 CA        -0.6014  -20.2468  -57.9030 C.3       22 UNK         0.1400 
    121 C         -0.5937  -19.5031  -59.2693 C.2       22 UNK         0.5000 
    122 N          0.5404  -19.4649  -59.9559 N.am      22 UNK        -0.7600 
    123 O         -1.5919  -18.9221  -59.6898 O.2       22 UNK        -0.5000 
    124 C124       -0.3223  -19.2419  -56.7582 C.3       23 UNK        -0.0398 
    125 S125       -0.1111  -20.0363  -55.1296 S.3       23 UNK        -0.2404 
    126 C126        0.8341  -18.7416  -54.2704 C.3       23 UNK        -0.0205 
    127 H127        2.3670  -12.8896  -47.0567 H         1 UNK         0.0600 
    128 H128        1.9258  -12.8895  -45.3424 H         1 UNK         0.0600 
    129 H129        1.5899  -11.4726  -46.3399 H         1 UNK         0.0600 
    130 H130        0.8930  -14.9798  -46.1217 H         1 UNK         0.3000 
    131 H131       -0.7518  -16.3037  -46.5664 H         1 UNK         0.0600 
    132 H132       -1.9871  -14.2105  -48.4203 H         1 UNK         0.0800 
    133 H133       -2.5965  -15.8262  -48.2161 H         1 UNK         0.0800 
    134 H134       -1.4804  -17.9695  -48.9211 H         1 UNK         0.0800 
    135 H135       -2.1296  -17.2898  -50.3950 H         1 UNK         0.0800 
    136 H136       -0.8117  -17.4464  -52.5296 H         1 UNK         0.1150 
    137 H137        2.3052  -20.3826  -52.6717 H         1 UNK         0.1150 
    138 H138        0.5713  -19.2528  -48.9110 H         1 UNK         0.1150 
    139 H139        3.1452  -21.3845  -50.7279 H         1 UNK         0.0800 
    140 H140        1.8483  -21.7759  -49.6393 H         1 UNK         0.0800 
    141 H141        2.3954  -19.6453  -46.6182 H         1 UNK         0.0800 
    142 H142        1.3591  -20.7339  -47.4891 H         1 UNK         0.0800 
    143 H143        4.0037  -21.7340  -46.3345 H         1 UNK         0.0600 
    144 H144        1.8227  -20.8257  -44.7481 H         1 UNK         0.3000 
    145 H145        2.3658  -22.8932  -41.9168 H         1 UNK         0.0600 
    146 H146        2.3588  -20.6551  -40.8210 H         1 UNK         0.0600 
    147 H147        2.7721  -19.8829  -42.3507 H         1 UNK         0.0600 
    148 H148        3.9082  -20.9806  -41.5816 H         1 UNK         0.0600 
    149 H149        0.4920  -20.8148  -42.7091 H         1 UNK         0.3000 
    150 H150       -2.0105  -23.0492  -43.9235 H         1 UNK         0.0600 
    151 H151       -2.3064  -23.1286  -41.4465 H         1 UNK         0.0600 
    152 H152       -3.3744  -21.9423  -42.1790 H         1 UNK         0.0600 
    153 H153       -1.9199  -21.4158  -41.3310 H         1 UNK         0.0600 
    154 H154       -1.8902  -20.2009  -43.4740 H         1 UNK         0.3000 
    155 H155       -0.4978  -19.3140  -46.5964 H         1 UNK         0.0600 
    156 H156       -2.8219  -19.6986  -47.2896 H         1 UNK         0.0600 
    157 H157       -2.6383  -18.0214  -46.8169 H         1 UNK         0.0600 
    158 H158       -3.4315  -19.1512  -45.7281 H         1 UNK         0.0600 
    159 H159       -1.6351  -17.6591  -44.6389 H         1 UNK         0.3000 
    160 H160       -0.2437  -16.3317  -43.4372 H         1 UNK         0.0600 
    161 H161        0.4934  -18.5110  -41.3993 H         1 UNK         0.0600 
    162 H162       -1.1334  -17.9407  -41.7536 H         1 UNK         0.0600 
    163 H163        0.0257  -16.8649  -40.9909 H         1 UNK         0.0600 
    164 H164        2.1881  -16.7675  -42.1166 H         1 UNK         0.3000 
    165 H165        4.4384  -16.4652  -43.3322 H         1 UNK         0.0600 
    166 H166        5.5783  -14.5679  -44.4611 H         1 UNK         0.0600 
    167 H167        4.6727  -15.5026  -45.6398 H         1 UNK         0.0600 
    168 H168        4.0401  -13.9625  -45.0661 H         1 UNK         0.0600 
    169 H169        2.7919  -14.2263  -42.4178 H         1 UNK         0.3000 
    170 H170        3.9090  -14.2016  -39.5421 H         1 UNK         0.0600 
    171 H171        6.2153  -13.3729  -39.4838 H         1 UNK         0.0600 
    172 H172        5.8475  -12.1015  -40.6385 H         1 UNK         0.0600 
    173 H173        5.1308  -12.0714  -39.0276 H         1 UNK         0.0600 
    174 H174        2.2436  -12.8685  -40.0755 H         1 UNK         0.3000 
    175 H175        1.6130  -10.2260  -40.8795 H         1 UNK         0.0600 
    176 H176        1.3939  -11.0126  -43.8300 H         1 UNK         0.0600 
    177 H177        0.4163   -9.7861  -43.0304 H         1 UNK         0.0600 
    178 H178        2.1492   -9.5567  -43.1959 H         1 UNK         0.0600 
    179 H179       -0.1647  -11.5253  -40.6081 H         1 UNK         0.3000 
    180 H180       -0.9189  -14.7131  -41.2275 H         1 UNK         0.0600 
    181 H181       -2.7640  -13.6254  -39.9791 H         1 UNK         0.0600 
    182 H182       -2.1905  -12.0314  -40.4474 H         1 UNK         0.0600 
    183 H183       -1.2074  -13.0606  -39.4078 H         1 UNK         0.0600 
    184 H184       -2.2908  -14.7627  -42.9637 H         1 UNK         0.3000 
    185 H185       -4.2247  -14.0514  -44.2191 H         1 UNK         0.0600 
    186 H186       -4.9927  -12.4653  -45.9592 H         1 UNK         0.0600 
    187 H187       -5.0540  -11.7003  -44.3789 H         1 UNK         0.0600 
    188 H188       -3.7522  -11.3024  -45.4958 H         1 UNK         0.0600 
    189 H189       -2.2411  -13.0814  -46.1996 H         1 UNK         0.3000 
    190 H190        1.0806  -23.2737  -45.4406 H         1 UNK         0.3000 
    191 H191        0.0986  -25.1978  -45.8065 H         1 UNK         0.0600 
    192 H192        1.2785  -27.1265  -46.7361 H         1 UNK         0.0600 
    193 H193        2.3852  -26.2214  -45.7166 H         1 UNK         0.0600 
    194 H194        2.5013  -26.1040  -47.4725 H         1 UNK         0.0600 
    195 H195       -0.6587  -23.0256  -47.3037 H         1 UNK         0.3000 
    196 H196       -1.4324  -24.0499  -49.9880 H         1 UNK         0.0600 
    197 H197       -1.7111  -21.2777  -48.7197 H         1 UNK         0.0600 
    198 H198       -2.1671  -21.7086  -50.3663 H         1 UNK         0.0600 
    199 H199       -0.4885  -21.7760  -49.8860 H         1 UNK         0.0600 
    200 H200       -2.4830  -25.0511  -47.3257 H         1 UNK         0.3000 
    201 H201       -4.3623  -25.7715  -46.3632 H         1 UNK         0.0600 
    202 H202       -5.5355  -25.4697  -49.1810 H         1 UNK         0.0600 
    203 H203       -6.1949  -26.4712  -47.8944 H         1 UNK         0.0600 
    204 H204       -4.6271  -26.8546  -48.5856 H         1 UNK         0.0600 
    205 H205       -3.9293  -23.2200  -45.7156 H         1 UNK         0.3000 
    206 H206       -4.7315  -21.3192  -44.8913 H         1 UNK         0.0600 
    207 H207       -6.2174  -22.8436  -43.5786 H         1 UNK         0.0600 
    208 H208       -6.9714  -21.2860  -43.8740 H         1 UNK         0.0600 
    209 H209       -7.4706  -22.6878  -44.8093 H         1 UNK         0.0600 
    210 H210       -4.4722  -21.5282  -47.6500 H         1 UNK         0.3000 
    211 H211       -4.4945  -20.2243  -49.3901 H         1 UNK         0.0600 
    212 H212       -6.6412  -18.4142  -48.1864 H         1 UNK         0.0600 
    213 H213       -5.5776  -18.0529  -49.5342 H         1 UNK         0.0600 
    214 H214       -4.9102  -18.2178  -47.9214 H         1 UNK         0.0600 
    215 H215       -6.6485  -22.4433  -48.7234 H         1 UNK         0.3000 
    216 H216       -8.6341  -22.0190  -50.7948 H         1 UNK         0.0600 
    217 H217       -9.0264  -23.5243  -48.8341 H         1 UNK         0.0600 
    218 H218       -7.7699  -24.6129  -49.4198 H         1 UNK         0.0600 
    219 H219       -9.2299  -24.3649  -50.3643 H         1 UNK         0.0600 
    220 H220       -5.3714  -23.4598  -50.6576 H         1 UNK         0.3000 
    221 H221       -5.5662  -24.4712  -53.4378 H         1 UNK         0.0600 
    222 H222       -3.4372  -25.5352  -52.9671 H         1 UNK         0.0600 
    223 H223       -3.2380  -24.6464  -51.4696 H         1 UNK         0.0600 
    224 H224       -4.5059  -25.8642  -51.6117 H         1 UNK         0.0600 
    225 H225       -4.7209  -21.5587  -51.8671 H         1 UNK         0.3000 
    226 H226       -2.4900  -20.6795  -53.3925 H         1 UNK         0.0600 
    227 H227       -3.1185  -19.6180  -51.2608 H         1 UNK         0.0600 
    228 H228       -3.1313  -18.4183  -52.5392 H         1 UNK         0.0600 
    229 H229       -4.6512  -19.0634  -51.9453 H         1 UNK         0.0600 
    230 H230       -5.8091  -20.9830  -54.3078 H         1 UNK         0.3000 
    231 H231       -5.9084  -19.1091  -56.4771 H         1 UNK         0.0600 
    232 H232       -7.8940  -20.4770  -57.1486 H         1 UNK         0.0600 
    233 H233       -7.9411  -20.0877  -55.4367 H         1 UNK         0.0600 
    234 H234       -7.4644  -21.7029  -55.9609 H         1 UNK         0.0600 
    235 H235       -4.2796  -22.1973  -56.1310 H         1 UNK         0.3000 
    236 H236       -4.1748  -22.7762  -59.0015 H         1 UNK         0.0600 
    237 H237       -2.7502  -24.1232  -56.6511 H         1 UNK         0.0600 
    238 H238       -4.3404  -24.5858  -57.2593 H         1 UNK         0.0600 
    239 H239       -2.9216  -24.7544  -58.2811 H         1 UNK         0.0600 
    240 H240       -2.4397  -20.6680  -56.9341 H         1 UNK         0.3000 
    241 H241        0.2147  -20.9720  -57.9155 H         1 UNK         0.0600 
    242 H242        0.5636  -18.9729  -60.8359 H         1 UNK         0.3800 
    243 H243        1.3743  -19.9286  -59.6286 H         1 UNK         0.3800 
    244 H244       -1.1298  -18.5113  -56.6842 H         1 UNK         0.0800 
    245 H245        0.5844  -18.6739  -56.9756 H         1 UNK         0.0800 
    246 H246        0.4522  -17.7603  -54.5573 H         1 UNK         0.0800 
    247 H247        1.8744  -18.7746  -54.5976 H         1 UNK         0.0800 
@<TRIPOS>BOND
     1    1    2 1    
     2    1  127 1    
     3    1  128 1    
     4    1  129 1    
     5    2    3 2    
     6    2    4 am   BACKBONE|DICT|INTERRES
     7    4    5 1    
     8    4  130 1    
     9    5    6 1    
    10    5   65 1    
    11    5  131 1    
    12    6    7 1    
    13    6  132 1    
    14    6  133 1    
    15    7    8 1    
    16    8    9 1    
    17    8  134 1    
    18    8  135 1    
    19    9   10 ar   
    20    9   14 ar   
    21   10   11 ar   
    22   10  136 1    
    23   11   12 ar   
    24   11  126 1    
    25   12   13 ar   
    26   12  137 1    
    27   13   14 ar   
    28   13   15 1    
    29   14  138 1    
    30   15   16 1    
    31   15  139 1    
    32   15  140 1    
    33   16   17 1    
    34   17   18 1    
    35   17  141 1    
    36   17  142 1    
    37   18   19 1    
    38   18   67 1    
    39   18  143 1    
    40   19   20 am   BACKBONE|DICT|INTERRES
    41   19  144 1    
    42   20   21 2    
    43   20   22 1    
    44   22   23 1    
    45   22   24 1    
    46   22  145 1    
    47   23  146 1    
    48   23  147 1    
    49   23  148 1    
    50   24   25 am   BACKBONE|DICT|INTERRES
    51   24  149 1    
    52   25   26 2    
    53   25   27 1    
    54   27   28 1    
    55   27   29 1    
    56   27  150 1    
    57   28  151 1    
    58   28  152 1    
    59   28  153 1    
    60   29   30 am   BACKBONE|DICT|INTERRES
    61   29  154 1    
    62   30   31 2    
    63   30   32 1    
    64   32   33 1    
    65   32   34 1    
    66   32  155 1    
    67   33  156 1    
    68   33  157 1    
    69   33  158 1    
    70   34   35 am   BACKBONE|DICT|INTERRES
    71   34  159 1    
    72   35   36 2    
    73   35   37 1    
    74   37   38 1    
    75   37   39 1    
    76   37  160 1    
    77   38  161 1    
    78   38  162 1    
    79   38  163 1    
    80   39   40 am   BACKBONE|DICT|INTERRES
    81   39  164 1    
    82   40   41 2    
    83   40   42 1    
    84   42   43 1    
    85   42   44 1    
    86   42  165 1    
    87   43  166 1    
    88   43  167 1    
    89   43  168 1    
    90   44   45 am   BACKBONE|DICT|INTERRES
    91   44  169 1    
    92   45   46 2    
    93   45   47 1    
    94   47   48 1    
    95   47   49 1    
    96   47  170 1    
    97   48  171 1    
    98   48  172 1    
    99   48  173 1    
   100   49   50 am   BACKBONE|DICT|INTERRES
   101   49  174 1    
   102   50   51 2    
   103   50   52 1    
   104   52   53 1    
   105   52   54 1    
   106   52  175 1    
   107   53  176 1    
   108   53  177 1    
   109   53  178 1    
   110   54   55 am   BACKBONE|DICT|INTERRES
   111   54  179 1    
   112   55   56 2    
   113   55   57 1    
   114   57   58 1    
   115   57   59 1    
   116   57  180 1    
   117   58  181 1    
   118   58  182 1    
   119   58  183 1    
   120   59   60 am   BACKBONE|DICT|INTERRES
   121   59  184 1    
   122   60   61 2    
   123   60   62 1    
   124   62   63 1    
   125   62   64 1    
   126   62  185 1    
   127   63  186 1    
   128   63  187 1    
   129   63  188 1    
   130   64   65 am   BACKBONE|DICT|INTERRES
   131   64  189 1    
   132   65   66 2    
   133   67   68 2    
   134   67   69 am   BACKBONE|DICT|INTERRES
   135   69   70 1    
   136   69  190 1    
   137   70   71 1    
   138   70   72 1    
   139   70  191 1    
   140   71  192 1    
   141   71  193 1    
   142   71  194 1    
   143   72   73 2    
   144   72   74 am   BACKBONE|DICT|INTERRES
   145   74   75 1    
   146   74  195 1    
   147   75   76 1    
   148   75   77 1    
   149   75  196 1    
   150   76  197 1    
   151   76  198 1    
   152   76  199 1    
   153   77   78 2    
   154   77   79 am   BACKBONE|DICT|INTERRES
   155   79   80 1    
   156   79  200 1    
   157   80   81 1    
   158   80   82 1    
   159   80  201 1    
   160   81  202 1    
   161   81  203 1    
   162   81  204 1    
   163   82   83 2    
   164   82   84 am   BACKBONE|DICT|INTERRES
   165   84   85 1    
   166   84  205 1    
   167   85   86 1    
   168   85   87 1    
   169   85  206 1    
   170   86  207 1    
   171   86  208 1    
   172   86  209 1    
   173   87   88 2    
   174   87   89 am   BACKBONE|DICT|INTERRES
   175   89   90 1    
   176   89  210 1    
   177   90   91 1    
   178   90   92 1    
   179   90  211 1    
   180   91  212 1    
   181   91  213 1    
   182   91  214 1    
   183   92   93 2    
   184   92   94 am   BACKBONE|DICT|INTERRES
   185   94   95 1    
   186   94  215 1    
   187   95   96 1    
   188   95   97 1    
   189   95  216 1    
   190   96  217 1    
   191   96  218 1    
   192   96  219 1    
   193   97   98 2    
   194   97   99 am   BACKBONE|DICT|INTERRES
   195   99  100 1    
   196   99  220 1    
   197  100  101 1    
   198  100  102 1    
   199  100  221 1    
   200  101  222 1    
   201  101  223 1    
   202  101  224 1    
   203  102  103 2    
   204  102  104 am   BACKBONE|DICT|INTERRES
   205  104  105 1    
   206  104  225 1    
   207  105  106 1    
   208  105  107 1    
   209  105  226 1    
   210  106  227 1    
   211  106  228 1    
   212  106  229 1    
   213  107  108 2    
   214  107  109 am   BACKBONE|DICT|INTERRES
   215  109  110 1    
   216  109  230 1    
   217  110  111 1    
   218  110  112 1    
   219  110  231 1    
   220  111  232 1    
   221  111  233 1    
   222  111  234 1    
   223  112  113 2    
   224  112  114 am   BACKBONE|DICT|INTERRES
   225  114  115 1    
   226  114  235 1    
   227  115  116 1    
   228  115  117 1    
   229  115  236 1    
   230  116  237 1    
   231  116  238 1    
   232  116  239 1    
   233  117  118 2    
   234  117  119 am   BACKBONE|DICT|INTERRES
   235  119  120 1    
   236  119  240 1    
   237  120  121 1    
   238  120  124 1    
   239  120  241 1    
   240  121  122 am   BACKBONE|DICT|INTERRES
   241  121  123 2    
   242  122  242 1    
   243  122  243 1    
   244  124  125 1    
   245  124  244 1    
   246  124  245 1    
   247  125  126 1    
   248  126  246 1    
   249  126  247 1    
@<TRIPOS>SUBSTRUCTURE
     1 UNK         1 GROUP             0       ****    0 ROOT    
