@<TRIPOS>MOLECULE
3R540
247   249    1
SMALL
USER_CHARGES


@<TRIPOS>ATOM
      1 CA          4.4587  -16.7674  -45.3133 C.3       0 UNK        -0.1800 
      2 C           4.0076  -15.9129  -46.4888 C.2       0 UNK         0.5000 
      3 O           4.2649  -14.7089  -46.5063 O.2       0 UNK        -0.5000 
      4 N           3.3442  -16.5364  -47.4711 N.am      1 UNK        -0.5000 
      5 CA          2.7943  -15.9064  -48.6771 C.3       1 UNK         0.1400 
      6 C6          3.9083  -15.3188  -49.5966 C.3       23 UNK        -0.0398 
      7 S7          3.4340  -15.2333  -51.3612 S.3       23 UNK        -0.2404 
      8 C8          4.2011  -16.7402  -52.0385 C.3       23 UNK        -0.0205 
      9 C9          3.5386  -17.9931  -51.4897 C.ar      23 UNK        -0.0193 
     10 C10         2.3460  -18.4616  -52.0481 C.ar      23 UNK        -0.1150 
     11 C11         1.7002  -19.5790  -51.5095 C.ar      23 UNK        -0.0193 
     12 C12         2.2663  -20.2353  -50.4129 C.ar      23 UNK        -0.1150 
     13 C13         3.4702  -19.7884  -49.8629 C.ar      23 UNK        -0.0193 
     14 C14         4.1049  -18.6705  -50.4073 C.ar      23 UNK        -0.1150 
     15 C15         4.0820  -20.5073  -48.6761 C.3       23 UNK        -0.0205 
     16 S16         3.3607  -19.9089  -47.1206 S.3       23 UNK        -0.2404 
     17 C17         4.3145  -20.8754  -45.9046 C.3       23 UNK        -0.0398 
     18 CA          3.6002  -22.1273  -45.3389 C.3       11 UNK         0.1400 
     19 N           2.4307  -21.8148  -44.5095 N.am      11 UNK        -0.5000 
     20 C           1.9515  -22.6587  -43.5821 C.2       10 UNK         0.5000 
     21 O           2.4452  -23.7616  -43.3439 O.2       10 UNK        -0.5000 
     22 CA          0.7073  -22.2205  -42.7933 C.3       10 UNK         0.1400 
     23 CB          1.0893  -21.2298  -41.6832 C.3       10 UNK        -0.1800 
     24 N          -0.3433  -21.6556  -43.6387 N.am      10 UNK        -0.5000 
     25 C          -1.0114  -22.3419  -44.5772 C.2       9 UNK         0.5000 
     26 O          -0.8050  -23.5276  -44.8328 O.2       9 UNK        -0.5000 
     27 CA         -2.0715  -21.5750  -45.3872 C.3       9 UNK         0.1400 
     28 CB         -3.3918  -21.4846  -44.6087 C.3       9 UNK        -0.1800 
     29 N          -1.6323  -20.2349  -45.7717 N.am      9 UNK        -0.5000 
     30 C          -0.5949  -19.9870  -46.5847 C.2       8 UNK         0.5000 
     31 O           0.0781  -20.8677  -47.1194 O.2       8 UNK        -0.5000 
     32 CA         -0.2210  -18.5087  -46.7924 C.3       8 UNK         0.1400 
     33 CB         -1.2226  -17.8265  -47.7335 C.3       8 UNK        -0.1800 
     34 N          -0.1525  -17.7646  -45.5350 N.am      8 UNK        -0.5000 
     35 C           0.6528  -18.0606  -44.5045 C.2       7 UNK         0.5000 
     36 O           1.4684  -18.9829  -44.5016 O.2       7 UNK        -0.5000 
     37 CA          0.4690  -17.2168  -43.2330 C.3       7 UNK         0.1400 
     38 CB          1.1185  -15.8318  -43.3848 C.3       7 UNK        -0.1800 
     39 N          -0.9437  -17.0733  -42.8766 N.am      7 UNK        -0.5000 
     40 C          -1.7238  -18.0799  -42.4543 C.2       6 UNK         0.5000 
     41 O          -1.3291  -19.2340  -42.3026 O.2       6 UNK        -0.5000 
     42 CA         -3.2040  -17.7522  -42.1878 C.3       6 UNK         0.1400 
     43 CB         -3.3833  -17.1601  -40.7821 C.3       6 UNK        -0.1800 
     44 N          -3.7612  -16.8307  -43.1762 N.am      6 UNK        -0.5000 
     45 C          -3.9149  -17.1162  -44.4771 C.2       5 UNK         0.5000 
     46 O          -3.6533  -18.2118  -44.9719 O.2       5 UNK        -0.5000 
     47 CA         -4.3745  -15.9541  -45.3780 C.3       5 UNK         0.1400 
     48 CB         -5.9058  -15.8478  -45.4050 C.3       5 UNK        -0.1800 
     49 N          -3.7950  -14.6675  -44.9769 N.am      5 UNK        -0.5000 
     50 C          -2.4818  -14.4085  -45.0062 C.2       4 UNK         0.5000 
     51 O          -1.6421  -15.2062  -45.4294 O.2       4 UNK        -0.5000 
     52 CA         -2.0225  -13.0788  -44.3966 C.3       4 UNK         0.1400 
     53 CB         -1.9552  -13.1943  -42.8603 C.3       4 UNK        -0.1800 
     54 N          -0.7108  -12.7629  -44.9484 N.am      4 UNK        -0.5000 
     55 C          -0.0458  -11.6077  -44.8271 C.2       3 UNK         0.5000 
     56 O          -0.4479  -10.6453  -44.1723 O.2       3 UNK        -0.5000 
     57 CA          1.2838  -11.4995  -45.5999 C.3       3 UNK         0.1400 
     58 CB          2.4449  -12.0473  -44.7560 C.3       3 UNK        -0.1800 
     59 N           1.2419  -12.2175  -46.8736 N.am      3 UNK        -0.5000 
     60 C           0.4691  -11.8918  -47.9178 C.2       2 UNK         0.5000 
     61 O          -0.1901  -10.8516  -47.9617 O.2       2 UNK        -0.5000 
     62 CA          0.3925  -12.8874  -49.0989 C.3       2 UNK         0.1400 
     63 CB          0.3211  -12.1653  -50.4560 C.3       2 UNK        -0.1800 
     64 N           1.4627  -13.8868  -49.1650 N.am      2 UNK        -0.5000 
     65 C           1.6576  -14.9136  -48.3290 C.2       1 UNK         0.5000 
     66 O           0.9844  -15.0836  -47.3111 O.2       1 UNK        -0.5000 
     67 C           3.2918  -23.1899  -46.4161 C.2       11 UNK         0.5000 
     68 O           4.1636  -24.0065  -46.7177 O.2       11 UNK        -0.5000 
     69 N           2.0629  -23.1868  -46.9573 N.am      12 UNK        -0.5000 
     70 CA          1.5742  -24.2102  -47.8851 C.3       12 UNK         0.1400 
     71 CB          0.2748  -23.7255  -48.5445 C.3       12 UNK        -0.1800 
     72 C           1.3418  -25.5714  -47.2020 C.2       12 UNK         0.5000 
     73 O           1.4627  -26.6064  -47.8582 O.2       12 UNK        -0.5000 
     74 N           0.9862  -25.5386  -45.9096 N.am      13 UNK        -0.5000 
     75 CA          0.6744  -26.6379  -44.9896 C.3       13 UNK         0.1400 
     76 CB          1.8565  -27.6143  -44.8425 C.3       13 UNK        -0.1800 
     77 C          -0.6357  -27.3713  -45.3303 C.2       13 UNK         0.5000 
     78 O          -1.4990  -27.5094  -44.4631 O.2       13 UNK        -0.5000 
     79 N          -0.7723  -27.8073  -46.5873 N.am      14 UNK        -0.5000 
     80 CA         -1.9801  -28.4215  -47.1383 C.3       14 UNK         0.1400 
     81 CB         -1.5884  -29.2678  -48.3594 C.3       14 UNK        -0.1800 
     82 C          -3.0496  -27.3823  -47.5287 C.2       14 UNK         0.5000 
     83 O          -4.2228  -27.7422  -47.6333 O.2       14 UNK        -0.5000 
     84 N          -2.6238  -26.1268  -47.7448 N.am      15 UNK        -0.5000 
     85 CA         -3.4138  -24.9933  -48.2356 C.3       15 UNK         0.1400 
     86 CB         -4.4281  -24.5309  -47.1654 C.3       15 UNK        -0.1800 
     87 C          -4.0225  -25.2933  -49.6242 C.2       15 UNK         0.5000 
     88 O          -3.2856  -25.7331  -50.5090 O.2       15 UNK        -0.5000 
     89 N          -5.3319  -25.0514  -49.7933 N.am      16 UNK        -0.5000 
     90 CA         -6.1330  -25.3159  -50.9980 C.3       16 UNK         0.1400 
     91 CB         -6.2396  -26.8340  -51.2569 C.3       16 UNK        -0.1800 
     92 C          -5.6726  -24.5241  -52.2433 C.2       16 UNK         0.5000 
     93 O          -5.7892  -25.0123  -53.3695 O.2       16 UNK        -0.5000 
     94 N          -5.1604  -23.3082  -52.0155 N.am      17 UNK        -0.5000 
     95 CA         -4.7483  -22.3615  -53.0506 C.3       17 UNK         0.1400 
     96 CB         -3.8499  -21.2975  -52.4014 C.3       17 UNK        -0.1800 
     97 C          -5.9558  -21.7147  -53.7603 C.2       17 UNK         0.5000 
     98 O          -7.0727  -21.7393  -53.2362 O.2       17 UNK        -0.5000 
     99 N          -5.7016  -21.1284  -54.9390 N.am      18 UNK        -0.5000 
    100 CA        -6.7020  -20.4709  -55.7909 C.3       18 UNK         0.1400 
    101 CB        -6.0616  -20.1478  -57.1498 C.3       18 UNK        -0.1800 
    102 C         -7.3237  -19.1999  -55.1743 C.2       18 UNK         0.5000 
    103 O         -8.4390  -18.8283  -55.5421 O.2       18 UNK        -0.5000 
    104 N         -6.6015  -18.5735  -54.2420 N.am      19 UNK        -0.5000 
    105 CA        -7.0580  -17.4941  -53.3777 C.3       19 UNK         0.1400 
    106 CB        -6.5375  -16.1507  -53.9110 C.3       19 UNK        -0.1800 
    107 C         -6.5051  -17.7850  -51.9779 C.2       19 UNK         0.5000 
    108 O         -5.4440  -18.4041  -51.8686 O.2       19 UNK        -0.5000 
    109 N         -7.2108  -17.3290  -50.9356 N.am      20 UNK        -0.5000 
    110 CA        -6.9109  -17.6256  -49.5288 C.3       20 UNK         0.1400 
    111 CB        -7.9988  -17.0031  -48.6402 C.3       20 UNK        -0.1800 
    112 C         -5.5125  -17.1763  -49.0617 C.2       20 UNK         0.5000 
    113 O         -4.9049  -17.8578  -48.2386 O.2       20 UNK        -0.5000 
    114 N         -5.0292  -16.0569  -49.6137 N.am      21 UNK        -0.5000 
    115 CA        -3.6987  -15.4983  -49.3664 C.3       21 UNK         0.1400 
    116 CB        -3.8484  -13.9962  -49.0682 C.3       21 UNK        -0.1800 
    117 C         -2.7261  -15.7624  -50.5349 C.2       21 UNK         0.5000 
    118 O         -1.6704  -15.1325  -50.5860 O.2       21 UNK        -0.5000 
    119 N         -3.0897  -16.6735  -51.4495 N.am      22 UNK        -0.5000 
    120 CA        -2.3664  -17.0098  -52.6881 C.3       22 UNK         0.1400 
    121 C         -2.3410  -15.8498  -53.7338 C.2       22 UNK         0.5000 
    122 N         -1.6899  -16.0374  -54.8750 N.am      22 UNK        -0.7600 
    123 O         -2.9444  -14.7934  -53.5580 O.2       22 UNK        -0.5000 
    124 C124       -0.9590  -17.6201  -52.4213 C.3       23 UNK        -0.0398 
    125 S125       -1.0415  -19.1721  -51.4631 S.3       23 UNK        -0.2404 
    126 C126        0.3957  -20.0827  -52.1094 C.3       23 UNK        -0.0205 
    127 H127        3.7741  -17.5974  -45.1406 H         1 UNK         0.0600 
    128 H128        4.5016  -16.1716  -44.4017 H         1 UNK         0.0600 
    129 H129        5.4520  -17.1735  -45.5033 H         1 UNK         0.0600 
    130 H130        3.1570  -17.5266  -47.3790 H         1 UNK         0.3000 
    131 H131        2.3047  -16.7202  -49.2133 H         1 UNK         0.0600 
    132 H132        4.2116  -14.3258  -49.2601 H         1 UNK         0.0800 
    133 H133        4.8110  -15.9257  -49.5218 H         1 UNK         0.0800 
    134 H134        5.2707  -16.7398  -51.8225 H         1 UNK         0.0800 
    135 H135        4.1104  -16.7254  -53.1256 H         1 UNK         0.0800 
    136 H136        1.9132  -17.9420  -52.8906 H         1 UNK         0.1150 
    137 H137        1.7693  -21.0920  -49.9812 H         1 UNK         0.1150 
    138 H138        5.0292  -18.3162  -49.9733 H         1 UNK         0.1150 
    139 H139        3.9185  -21.5810  -48.7743 H         1 UNK         0.0800 
    140 H140        5.1626  -20.3571  -48.6609 H         1 UNK         0.0800 
    141 H141        4.5635  -20.2053  -45.0808 H         1 UNK         0.0800 
    142 H142        5.2731  -21.1598  -46.3417 H         1 UNK         0.0800 
    143 H143        4.3313  -22.5934  -44.6740 H         1 UNK         0.0600 
    144 H144        1.9925  -20.9073  -44.6470 H         1 UNK         0.3000 
    145 H145        0.2960  -23.1113  -42.3139 H         1 UNK         0.0600 
    146 H146        0.2411  -21.0253  -41.0301 H         1 UNK         0.0600 
    147 H147        1.8879  -21.6308  -41.0578 H         1 UNK         0.0600 
    148 H148        1.4364  -20.2803  -42.0906 H         1 UNK         0.0600 
    149 H149       -0.5965  -20.6895  -43.4573 H         1 UNK         0.3000 
    150 H150       -2.2576  -22.1384  -46.3039 H         1 UNK         0.0600 
    151 H151       -3.7432  -22.4749  -44.3166 H         1 UNK         0.0600 
    152 H152       -4.1743  -21.0269  -45.2142 H         1 UNK         0.0600 
    153 H153       -3.2826  -20.8916  -43.6999 H         1 UNK         0.0600 
    154 H154       -2.1657  -19.4546  -45.3990 H         1 UNK         0.3000 
    155 H155        0.7645  -18.4689  -47.2584 H         1 UNK         0.0600 
    156 H156       -2.2228  -17.7994  -47.3013 H         1 UNK         0.0600 
    157 H157       -1.2917  -18.3581  -48.6815 H         1 UNK         0.0600 
    158 H158       -0.9264  -16.8021  -47.9558 H         1 UNK         0.0600 
    159 H159       -0.7550  -16.9497  -45.4613 H         1 UNK         0.3000 
    160 H160        0.9704  -17.7343  -42.4124 H         1 UNK         0.0600 
    161 H161        0.7012  -15.2733  -44.2222 H         1 UNK         0.0600 
    162 H162        2.1894  -15.9258  -43.5629 H         1 UNK         0.0600 
    163 H163        0.9929  -15.2327  -42.4831 H         1 UNK         0.0600 
    164 H164       -1.3619  -16.1701  -43.0345 H         1 UNK         0.3000 
    165 H165       -3.7670  -18.6866  -42.2406 H         1 UNK         0.0600 
    166 H166       -4.4368  -16.9965  -40.5545 H         1 UNK         0.0600 
    167 H167       -2.9889  -17.8356  -40.0217 H         1 UNK         0.0600 
    168 H168       -2.8642  -16.2067  -40.6753 H         1 UNK         0.0600 
    169 H169       -4.0062  -15.9071  -42.8529 H         1 UNK         0.3000 
    170 H170       -4.0305  -16.1751  -46.3871 H         1 UNK         0.0600 
    171 H171       -6.3542  -16.8021  -45.6837 H         1 UNK         0.0600 
    172 H172       -6.3098  -15.5667  -44.4318 H         1 UNK         0.0600 
    173 H173       -6.2359  -15.1092  -46.1357 H         1 UNK         0.0600 
    174 H174       -4.4326  -13.9730  -44.6148 H         1 UNK         0.3000 
    175 H175       -2.7271  -12.2961  -44.6842 H         1 UNK         0.0600 
    176 H176       -1.2162  -13.9309  -42.5443 H         1 UNK         0.0600 
    177 H177       -1.6924  -12.2432  -42.3981 H         1 UNK         0.0600 
    178 H178       -2.9175  -13.4929  -42.4432 H         1 UNK         0.0600 
    179 H179       -0.3225  -13.5048  -45.5213 H         1 UNK         0.3000 
    180 H180        1.4713  -10.4437  -45.8058 H         1 UNK         0.0600 
    181 H181        2.5147  -11.5255  -43.8007 H         1 UNK         0.0600 
    182 H182        3.3989  -11.9192  -45.2680 H         1 UNK         0.0600 
    183 H183        2.3220  -13.1102  -44.5431 H         1 UNK         0.0600 
    184 H184        1.7003  -13.1196  -46.8996 H         1 UNK         0.3000 
    185 H185       -0.5424  -13.4304  -48.9609 H         1 UNK         0.0600 
    186 H186        0.1897  -12.8766  -51.2721 H         1 UNK         0.0600 
    187 H187       -0.5243  -11.4774  -50.4966 H         1 UNK         0.0600 
    188 H188        1.2266  -11.5898  -50.6518 H         1 UNK         0.0600 
    189 H189        2.0627  -13.8279  -49.9767 H         1 UNK         0.3000 
    190 H190        1.4180  -22.4396  -46.7192 H         1 UNK         0.3000 
    191 H191        2.3223  -24.3528  -48.6676 H         1 UNK         0.0600 
    192 H192       -0.4946  -23.5203  -47.7999 H         1 UNK         0.0600 
    193 H193       -0.1202  -24.4710  -49.2361 H         1 UNK         0.0600 
    194 H194        0.4369  -22.8109  -49.1135 H         1 UNK         0.0600 
    195 H195        0.8130  -24.6215  -45.5124 H         1 UNK         0.3000 
    196 H196        0.5239  -26.1636  -44.0183 H         1 UNK         0.0600 
    197 H197        1.6476  -28.3619  -44.0766 H         1 UNK         0.0600 
    198 H198        2.7636  -27.0879  -44.5449 H         1 UNK         0.0600 
    199 H199        2.0676  -28.1491  -45.7687 H         1 UNK         0.0600 
    200 H200       -0.0017  -27.6349  -47.2279 H         1 UNK         0.3000 
    201 H201       -2.4170  -29.0841  -46.3881 H         1 UNK         0.0600 
    202 H202       -0.8732  -30.0444  -48.0880 H         1 UNK         0.0600 
    203 H203       -1.1399  -28.6571  -49.1443 H         1 UNK         0.0600 
    204 H204       -2.4603  -29.7644  -48.7873 H         1 UNK         0.0600 
    205 H205       -1.6351  -25.9579  -47.6418 H         1 UNK         0.3000 
    206 H206       -2.7132  -24.1730  -48.3914 H         1 UNK         0.0600 
    207 H207       -3.9261  -24.3353  -46.2176 H         1 UNK         0.0600 
    208 H208       -4.9209  -23.6036  -47.4597 H         1 UNK         0.0600 
    209 H209       -5.1999  -25.2783  -46.9785 H         1 UNK         0.0600 
    210 H210       -5.8467  -24.6898  -49.0027 H         1 UNK         0.3000 
    211 H211       -7.1381  -24.9549  -50.7756 H         1 UNK         0.0600 
    212 H212       -5.2823  -27.2624  -51.5552 H         1 UNK         0.0600 
    213 H213       -6.9549  -27.0474  -52.0520 H         1 UNK         0.0600 
    214 H214       -6.5794  -27.3627  -50.3663 H         1 UNK         0.0600 
    215 H215       -5.1301  -22.9751  -51.0640 H         1 UNK         0.3000 
    216 H216       -4.1629  -22.8990  -53.7996 H         1 UNK         0.0600 
    217 H217       -3.5393  -20.5397  -53.1217 H         1 UNK         0.0600 
    218 H218       -2.9427  -21.7454  -51.9953 H         1 UNK         0.0600 
    219 H219       -4.3589  -20.7846  -51.5850 H         1 UNK         0.0600 
    220 H220       -4.7579  -21.1478  -55.2983 H         1 UNK         0.3000 
    221 H221       -7.5153  -21.1803  -55.9573 H         1 UNK         0.0600 
    222 H222       -5.2229  -19.4582  -57.0452 H         1 UNK         0.0600 
    223 H223       -5.6969  -21.0507  -57.6399 H         1 UNK         0.0600 
    224 H224       -6.7847  -19.6848  -57.8228 H         1 UNK         0.0600 
    225 H225       -5.7274  -18.9893  -53.9479 H         1 UNK         0.3000 
    226 H226       -8.1490  -17.4784  -53.3301 H         1 UNK         0.0600 
    227 H227       -6.9166  -15.9530  -54.9138 H         1 UNK         0.0600 
    228 H228       -6.8555  -15.3251  -53.2735 H         1 UNK         0.0600 
    229 H229       -5.4482  -16.1312  -53.9566 H         1 UNK         0.0600 
    230 H230       -8.0606  -16.8118  -51.1103 H         1 UNK         0.3000 
    231 H231       -6.9563  -18.7102  -49.4103 H         1 UNK         0.0600 
    232 H232       -8.9882  -17.3751  -48.9066 H         1 UNK         0.0600 
    233 H233       -8.0137  -15.9157  -48.7234 H         1 UNK         0.0600 
    234 H234       -7.8345  -17.2502  -47.5910 H         1 UNK         0.0600 
    235 H235       -5.5968  -15.5774  -50.2977 H         1 UNK         0.3000 
    236 H236       -3.2502  -15.9625  -48.4894 H         1 UNK         0.0600 
    237 H237       -2.8934  -13.5512  -48.7896 H         1 UNK         0.0600 
    238 H238       -4.2272  -13.4510  -49.9333 H         1 UNK         0.0600 
    239 H239       -4.5327  -13.8277  -48.2364 H         1 UNK         0.0600 
    240 H240       -3.9648  -17.1694  -51.3234 H         1 UNK         0.3000 
    241 H241       -2.9746  -17.7832  -53.1583 H         1 UNK         0.0600 
    242 H242       -1.6895  -15.2945  -55.5567 H         1 UNK         0.3800 
    243 H243       -1.2161  -16.9001  -55.0900 H         1 UNK         0.3800 
    244 H244       -0.4583  -17.8403  -53.3635 H         1 UNK         0.0800 
    245 H245       -0.3139  -16.9145  -51.8965 H         1 UNK         0.0800 
    246 H246        0.2654  -21.1404  -51.8755 H         1 UNK         0.0800 
    247 H247        0.4277  -20.0191  -53.1979 H         1 UNK         0.0800 
@<TRIPOS>BOND
     1    1    2 1    
     2    1  127 1    
     3    1  128 1    
     4    1  129 1    
     5    2    3 2    
     6    2    4 am   BACKBONE|DICT|INTERRES
     7    4    5 1    
     8    4  130 1    
     9    5    6 1    
    10    5   65 1    
    11    5  131 1    
    12    6    7 1    
    13    6  132 1    
    14    6  133 1    
    15    7    8 1    
    16    8    9 1    
    17    8  134 1    
    18    8  135 1    
    19    9   10 ar   
    20    9   14 ar   
    21   10   11 ar   
    22   10  136 1    
    23   11   12 ar   
    24   11  126 1    
    25   12   13 ar   
    26   12  137 1    
    27   13   14 ar   
    28   13   15 1    
    29   14  138 1    
    30   15   16 1    
    31   15  139 1    
    32   15  140 1    
    33   16   17 1    
    34   17   18 1    
    35   17  141 1    
    36   17  142 1    
    37   18   19 1    
    38   18   67 1    
    39   18  143 1    
    40   19   20 am   BACKBONE|DICT|INTERRES
    41   19  144 1    
    42   20   21 2    
    43   20   22 1    
    44   22   23 1    
    45   22   24 1    
    46   22  145 1    
    47   23  146 1    
    48   23  147 1    
    49   23  148 1    
    50   24   25 am   BACKBONE|DICT|INTERRES
    51   24  149 1    
    52   25   26 2    
    53   25   27 1    
    54   27   28 1    
    55   27   29 1    
    56   27  150 1    
    57   28  151 1    
    58   28  152 1    
    59   28  153 1    
    60   29   30 am   BACKBONE|DICT|INTERRES
    61   29  154 1    
    62   30   31 2    
    63   30   32 1    
    64   32   33 1    
    65   32   34 1    
    66   32  155 1    
    67   33  156 1    
    68   33  157 1    
    69   33  158 1    
    70   34   35 am   BACKBONE|DICT|INTERRES
    71   34  159 1    
    72   35   36 2    
    73   35   37 1    
    74   37   38 1    
    75   37   39 1    
    76   37  160 1    
    77   38  161 1    
    78   38  162 1    
    79   38  163 1    
    80   39   40 am   BACKBONE|DICT|INTERRES
    81   39  164 1    
    82   40   41 2    
    83   40   42 1    
    84   42   43 1    
    85   42   44 1    
    86   42  165 1    
    87   43  166 1    
    88   43  167 1    
    89   43  168 1    
    90   44   45 am   BACKBONE|DICT|INTERRES
    91   44  169 1    
    92   45   46 2    
    93   45   47 1    
    94   47   48 1    
    95   47   49 1    
    96   47  170 1    
    97   48  171 1    
    98   48  172 1    
    99   48  173 1    
   100   49   50 am   BACKBONE|DICT|INTERRES
   101   49  174 1    
   102   50   51 2    
   103   50   52 1    
   104   52   53 1    
   105   52   54 1    
   106   52  175 1    
   107   53  176 1    
   108   53  177 1    
   109   53  178 1    
   110   54   55 am   BACKBONE|DICT|INTERRES
   111   54  179 1    
   112   55   56 2    
   113   55   57 1    
   114   57   58 1    
   115   57   59 1    
   116   57  180 1    
   117   58  181 1    
   118   58  182 1    
   119   58  183 1    
   120   59   60 am   BACKBONE|DICT|INTERRES
   121   59  184 1    
   122   60   61 2    
   123   60   62 1    
   124   62   63 1    
   125   62   64 1    
   126   62  185 1    
   127   63  186 1    
   128   63  187 1    
   129   63  188 1    
   130   64   65 am   BACKBONE|DICT|INTERRES
   131   64  189 1    
   132   65   66 2    
   133   67   68 2    
   134   67   69 am   BACKBONE|DICT|INTERRES
   135   69   70 1    
   136   69  190 1    
   137   70   71 1    
   138   70   72 1    
   139   70  191 1    
   140   71  192 1    
   141   71  193 1    
   142   71  194 1    
   143   72   73 2    
   144   72   74 am   BACKBONE|DICT|INTERRES
   145   74   75 1    
   146   74  195 1    
   147   75   76 1    
   148   75   77 1    
   149   75  196 1    
   150   76  197 1    
   151   76  198 1    
   152   76  199 1    
   153   77   78 2    
   154   77   79 am   BACKBONE|DICT|INTERRES
   155   79   80 1    
   156   79  200 1    
   157   80   81 1    
   158   80   82 1    
   159   80  201 1    
   160   81  202 1    
   161   81  203 1    
   162   81  204 1    
   163   82   83 2    
   164   82   84 am   BACKBONE|DICT|INTERRES
   165   84   85 1    
   166   84  205 1    
   167   85   86 1    
   168   85   87 1    
   169   85  206 1    
   170   86  207 1    
   171   86  208 1    
   172   86  209 1    
   173   87   88 2    
   174   87   89 am   BACKBONE|DICT|INTERRES
   175   89   90 1    
   176   89  210 1    
   177   90   91 1    
   178   90   92 1    
   179   90  211 1    
   180   91  212 1    
   181   91  213 1    
   182   91  214 1    
   183   92   93 2    
   184   92   94 am   BACKBONE|DICT|INTERRES
   185   94   95 1    
   186   94  215 1    
   187   95   96 1    
   188   95   97 1    
   189   95  216 1    
   190   96  217 1    
   191   96  218 1    
   192   96  219 1    
   193   97   98 2    
   194   97   99 am   BACKBONE|DICT|INTERRES
   195   99  100 1    
   196   99  220 1    
   197  100  101 1    
   198  100  102 1    
   199  100  221 1    
   200  101  222 1    
   201  101  223 1    
   202  101  224 1    
   203  102  103 2    
   204  102  104 am   BACKBONE|DICT|INTERRES
   205  104  105 1    
   206  104  225 1    
   207  105  106 1    
   208  105  107 1    
   209  105  226 1    
   210  106  227 1    
   211  106  228 1    
   212  106  229 1    
   213  107  108 2    
   214  107  109 am   BACKBONE|DICT|INTERRES
   215  109  110 1    
   216  109  230 1    
   217  110  111 1    
   218  110  112 1    
   219  110  231 1    
   220  111  232 1    
   221  111  233 1    
   222  111  234 1    
   223  112  113 2    
   224  112  114 am   BACKBONE|DICT|INTERRES
   225  114  115 1    
   226  114  235 1    
   227  115  116 1    
   228  115  117 1    
   229  115  236 1    
   230  116  237 1    
   231  116  238 1    
   232  116  239 1    
   233  117  118 2    
   234  117  119 am   BACKBONE|DICT|INTERRES
   235  119  120 1    
   236  119  240 1    
   237  120  121 1    
   238  120  124 1    
   239  120  241 1    
   240  121  122 am   BACKBONE|DICT|INTERRES
   241  121  123 2    
   242  122  242 1    
   243  122  243 1    
   244  124  125 1    
   245  124  244 1    
   246  124  245 1    
   247  125  126 1    
   248  126  246 1    
   249  126  247 1    
@<TRIPOS>SUBSTRUCTURE
     1 UNK         1 GROUP             0       ****    0 ROOT    
