@<TRIPOS>MOLECULE
3R540
247   249    1
SMALL
USER_CHARGES


@<TRIPOS>ATOM
      1 CA         -1.6720  -12.7709  -46.0695 C.3       0 UNK        -0.1800 
      2 C          -0.6532  -11.9668  -46.8607 C.2       0 UNK         0.5000 
      3 O          -1.0167  -10.9829  -47.5064 O.2       0 UNK        -0.5000 
      4 N           0.6222  -12.3686  -46.8083 N.am      1 UNK        -0.5000 
      5 CA          1.7398  -11.6964  -47.4776 C.3       1 UNK         0.1400 
      6 C6          2.8672  -12.6886  -47.8561 C.3       23 UNK        -0.0398 
      7 S7          2.3411  -13.8468  -49.1622 S.3       23 UNK        -0.2404 
      8 C8          1.9774  -15.3283  -48.1731 C.3       23 UNK        -0.0205 
      9 C9          1.2588  -16.3875  -48.9925 C.ar      23 UNK        -0.0193 
     10 C10        -0.0483  -16.1643  -49.4349 C.ar      23 UNK        -0.1150 
     11 C11        -0.7383  -17.1326  -50.1700 C.ar      23 UNK        -0.0193 
     12 C12        -0.0901  -18.3413  -50.4642 C.ar      23 UNK        -0.1150 
     13 C13         1.2185  -18.5787  -50.0285 C.ar      23 UNK        -0.0193 
     14 C14         1.8869  -17.5977  -49.2926 C.ar      23 UNK        -0.1150 
     15 C15         1.9259  -19.8834  -50.3711 C.3       23 UNK        -0.0205 
     16 S16         1.9711  -21.0374  -48.9622 S.3       23 UNK        -0.2404 
     17 C17         0.2128  -21.4897  -48.8485 C.3       23 UNK        -0.0398 
     18 CA         -0.0662  -22.6405  -47.8570 C.3       11 UNK         0.1400 
     19 N           0.2676  -22.2935  -46.4689 N.am      11 UNK        -0.5000 
     20 C           0.2448  -23.1651  -45.4492 C.2       10 UNK         0.5000 
     21 O          -0.0295  -24.3575  -45.5778 O.2       10 UNK        -0.5000 
     22 CA          0.5191  -22.6119  -44.0404 C.3       10 UNK         0.1400 
     23 CB          2.0179  -22.3518  -43.8280 C.3       10 UNK        -0.1800 
     24 N          -0.2494  -21.4007  -43.7560 N.am      10 UNK        -0.5000 
     25 C          -1.5878  -21.3503  -43.6935 C.2       9 UNK         0.5000 
     26 O          -2.3140  -22.3354  -43.8213 O.2       9 UNK        -0.5000 
     27 CA         -2.2300  -19.9638  -43.5006 C.3       9 UNK         0.1400 
     28 CB         -2.2390  -19.5654  -42.0179 C.3       9 UNK        -0.1800 
     29 N          -1.5763  -18.9186  -44.2878 N.am      9 UNK        -0.5000 
     30 C          -1.4977  -18.9097  -45.6266 C.2       8 UNK         0.5000 
     31 O          -1.9978  -19.7660  -46.3540 O.2       8 UNK        -0.5000 
     32 CA         -0.6698  -17.7810  -46.2566 C.3       8 UNK         0.1400 
     33 CB         -1.4821  -16.4799  -46.3159 C.3       8 UNK        -0.1800 
     34 N           0.5884  -17.5587  -45.5430 N.am      8 UNK        -0.5000 
     35 C           1.5718  -18.4679  -45.4663 C.2       7 UNK         0.5000 
     36 O           1.5311  -19.5698  -46.0114 O.2       7 UNK        -0.5000 
     37 CA          2.7709  -18.1108  -44.5722 C.3       7 UNK         0.1400 
     38 CB          3.7295  -17.1494  -45.2892 C.3       7 UNK        -0.1800 
     39 N           2.3486  -17.5254  -43.3001 N.am      7 UNK        -0.5000 
     40 C           1.6786  -18.1920  -42.3487 C.2       6 UNK         0.5000 
     41 O           1.3925  -19.3855  -42.4244 O.2       6 UNK        -0.5000 
     42 CA          1.2153  -17.3814  -41.1248 C.3       6 UNK         0.1400 
     43 CB          2.2959  -17.3891  -40.0337 C.3       6 UNK        -0.1800 
     44 N           0.8685  -15.9973  -41.4501 N.am      6 UNK        -0.5000 
     45 C          -0.1314  -15.6230  -42.2623 C.2       5 UNK         0.5000 
     46 O          -0.8874  -16.4151  -42.8251 O.2       5 UNK        -0.5000 
     47 CA         -0.2733  -14.1118  -42.5217 C.3       5 UNK         0.1400 
     48 CB         -1.2058  -13.4655  -41.4881 C.3       5 UNK        -0.1800 
     49 N           1.0212  -13.4288  -42.5012 N.am      5 UNK        -0.5000 
     50 C           1.9608  -13.5442  -43.4473 C.2       4 UNK         0.5000 
     51 O           1.7795  -14.1215  -44.5229 O.2       4 UNK        -0.5000 
     52 CA          3.3230  -12.9113  -43.1052 C.3       4 UNK         0.1400 
     53 CB          4.4439  -13.3048  -44.0810 C.3       4 UNK        -0.1800 
     54 N           3.2263  -11.4545  -43.0277 N.am      4 UNK        -0.5000 
     55 C           2.8157  -10.7743  -41.9470 C.2       3 UNK         0.5000 
     56 O           2.4604  -11.3223  -40.9019 O.2       3 UNK        -0.5000 
     57 CA          2.7856   -9.2353  -42.0369 C.3       3 UNK         0.1400 
     58 CB          4.0695   -8.6391  -41.4402 C.3       3 UNK        -0.1800 
     59 N           2.6211   -8.7375  -43.4025 N.am      3 UNK        -0.5000 
     60 C           1.4898   -8.8277  -44.1126 C.2       2 UNK         0.5000 
     61 O           0.4409   -9.2971  -43.6680 O.2       2 UNK        -0.5000 
     62 CA          1.5323   -8.3491  -45.5777 C.3       2 UNK         0.1400 
     63 CB          2.7627   -7.4843  -45.9361 C.3       2 UNK        -0.1800 
     64 N           1.4087   -9.4907  -46.4862 N.am      2 UNK        -0.5000 
     65 C           2.2287  -10.5480  -46.5742 C.2       1 UNK         0.5000 
     66 O           3.2806  -10.6567  -45.9410 O.2       1 UNK        -0.5000 
     67 C          -1.5300  -23.1081  -48.0010 C.2       11 UNK         0.5000 
     68 O          -1.7939  -24.0778  -48.7192 O.2       11 UNK        -0.5000 
     69 N          -2.4453  -22.4228  -47.2994 N.am      12 UNK        -0.5000 
     70 CA         -3.8662  -22.7493  -47.2314 C.3       12 UNK         0.1400 
     71 CB         -4.6241  -21.6720  -46.4413 C.3       12 UNK        -0.1800 
     72 C          -4.1135  -24.1449  -46.6363 C.2       12 UNK         0.5000 
     73 O          -4.7987  -24.9590  -47.2568 O.2       12 UNK        -0.5000 
     74 N          -3.5112  -24.4035  -45.4675 N.am      13 UNK        -0.5000 
     75 CA         -3.5850  -25.6766  -44.7521 C.3       13 UNK         0.1400 
     76 CB         -2.9476  -25.5158  -43.3637 C.3       13 UNK        -0.1800 
     77 C          -2.9319  -26.8458  -45.5108 C.2       13 UNK         0.5000 
     78 O          -3.4249  -27.9705  -45.4147 O.2       13 UNK        -0.5000 
     79 N          -1.8429  -26.5659  -46.2413 N.am      14 UNK        -0.5000 
     80 CA         -1.1037  -27.5427  -47.0366 C.3       14 UNK         0.1400 
     81 CB          0.2166  -26.9313  -47.5335 C.3       14 UNK        -0.1800 
     82 C          -1.9263  -28.1065  -48.2069 C.2       14 UNK         0.5000 
     83 O          -2.1027  -29.3239  -48.2820 O.2       14 UNK        -0.5000 
     84 N          -2.4034  -27.2268  -49.0995 N.am      15 UNK        -0.5000 
     85 CA         -3.0862  -27.6255  -50.3349 C.3       15 UNK         0.1400 
     86 CB         -2.0772  -28.2612  -51.3214 C.3       15 UNK        -0.1800 
     87 C          -3.8570  -26.4625  -50.9847 C.2       15 UNK         0.5000 
     88 O          -3.9251  -26.4031  -52.2136 O.2       15 UNK        -0.5000 
     89 N          -4.3920  -25.5286  -50.1805 N.am      16 UNK        -0.5000 
     90 CA         -5.1222  -24.3244  -50.6201 C.3       16 UNK         0.1400 
     91 CB         -6.4564  -24.7125  -51.2919 C.3       16 UNK        -0.1800 
     92 C          -4.2837  -23.3743  -51.5097 C.2       16 UNK         0.5000 
     93 O          -4.8481  -22.5899  -52.2709 O.2       16 UNK        -0.5000 
     94 N          -2.9483  -23.4948  -51.4411 N.am      17 UNK        -0.5000 
     95 CA         -1.9612  -22.9103  -52.3571 C.3       17 UNK         0.1400 
     96 CB         -1.8941  -21.3874  -52.1688 C.3       17 UNK        -0.1800 
     97 C          -2.1737  -23.3093  -53.8376 C.2       17 UNK         0.5000 
     98 O          -1.8273  -22.5405  -54.7373 O.2       17 UNK        -0.5000 
     99 N          -2.7466  -24.5015  -54.0653 N.am      18 UNK        -0.5000 
    100 CA        -3.1221  -25.0694  -55.3595 C.3       18 UNK         0.1400 
    101 CB        -1.8614  -25.4827  -56.1528 C.3       18 UNK        -0.1800 
    102 C         -4.0871  -24.1399  -56.1267 C.2       18 UNK         0.5000 
    103 O         -5.1912  -23.8831  -55.6439 O.2       18 UNK        -0.5000 
    104 N         -3.6602  -23.6472  -57.2958 N.am      19 UNK        -0.5000 
    105 CA        -4.4376  -22.7808  -58.1819 C.3       19 UNK         0.1400 
    106 CB        -3.7360  -22.7214  -59.5480 C.3       19 UNK        -0.1800 
    107 C         -4.6766  -21.3575  -57.6380 C.2       19 UNK         0.5000 
    108 O         -5.5779  -20.6796  -58.1339 O.2       19 UNK        -0.5000 
    109 N         -3.8780  -20.9140  -56.6545 N.am      20 UNK        -0.5000 
    110 CA        -3.9844  -19.5758  -56.0649 C.3       20 UNK         0.1400 
    111 CB        -2.6814  -19.2295  -55.3314 C.3       20 UNK        -0.1800 
    112 C         -5.2095  -19.3992  -55.1442 C.2       20 UNK         0.5000 
    113 O         -5.6614  -18.2662  -54.9735 O.2       20 UNK        -0.5000 
    114 N         -5.7361  -20.5087  -54.5996 N.am      21 UNK        -0.5000 
    115 CA        -6.9370  -20.5974  -53.7580 C.3       21 UNK         0.1400 
    116 CB        -8.1997  -20.2995  -54.5937 C.3       21 UNK        -0.1800 
    117 C         -6.8464  -19.7449  -52.4718 C.2       21 UNK         0.5000 
    118 O         -7.7912  -19.0307  -52.1278 O.2       21 UNK        -0.5000 
    119 N         -5.6969  -19.8264  -51.7942 N.am      22 UNK        -0.5000 
    120 CA        -5.4237  -19.1534  -50.5159 C.3       22 UNK         0.1400 
    121 C         -6.1418  -19.8622  -49.3359 C.2       22 UNK         0.5000 
    122 N         -6.5928  -19.1141  -48.3383 N.am      22 UNK        -0.7600 
    123 O         -6.2609  -21.0849  -49.2971 O.2       22 UNK        -0.5000 
    124 C124       -3.9028  -19.0300  -50.2387 C.3       23 UNK        -0.0398 
    125 S125       -3.0448  -18.0996  -51.5602 S.3       23 UNK        -0.2404 
    126 C126       -2.1563  -16.7932  -50.6416 C.3       23 UNK        -0.0205 
    127 H127       -2.5025  -13.0647  -46.7113 H         1 UNK         0.0600 
    128 H128       -2.0651  -12.1750  -45.2459 H         1 UNK         0.0600 
    129 H129       -1.2280  -13.6741  -45.6579 H         1 UNK         0.0600 
    130 H130        0.8827  -13.1339  -46.1966 H         1 UNK         0.3000 
    131 H131        1.3868  -11.2408  -48.4057 H         1 UNK         0.0600 
    132 H132        3.2029  -13.2519  -46.9861 H         1 UNK         0.0800 
    133 H133        3.7402  -12.1510  -48.2299 H         1 UNK         0.0800 
    134 H134        2.9142  -15.7195  -47.7762 H         1 UNK         0.0800 
    135 H135        1.3619  -15.0630  -47.3135 H         1 UNK         0.0800 
    136 H136       -0.5291  -15.2232  -49.2064 H         1 UNK         0.1150 
    137 H137       -0.5886  -19.1009  -51.0441 H         1 UNK         0.1150 
    138 H138        2.8960  -17.7821  -48.9516 H         1 UNK         0.1150 
    139 H139        1.4516  -20.3673  -51.2263 H         1 UNK         0.0800 
    140 H140        2.9500  -19.6660  -50.6775 H         1 UNK         0.0800 
    141 H141       -0.0941  -21.7877  -49.8500 H         1 UNK         0.0800 
    142 H142       -0.3660  -20.6025  -48.5845 H         1 UNK         0.0800 
    143 H143        0.5651  -23.4860  -48.1387 H         1 UNK         0.0600 
    144 H144        0.5396  -21.3306  -46.2925 H         1 UNK         0.3000 
    145 H145        0.2084  -23.3739  -43.3225 H         1 UNK         0.0600 
    146 H146        2.2222  -22.0459  -42.8019 H         1 UNK         0.0600 
    147 H147        2.6008  -23.2533  -44.0205 H         1 UNK         0.0600 
    148 H148        2.3930  -21.5716  -44.4897 H         1 UNK         0.0600 
    149 H149        0.2838  -20.5545  -43.5825 H         1 UNK         0.3000 
    150 H150       -3.2659  -20.0272  -43.8389 H         1 UNK         0.0600 
    151 H151       -2.7862  -20.2970  -41.4223 H         1 UNK         0.0600 
    152 H152       -2.7206  -18.5984  -41.8707 H         1 UNK         0.0600 
    153 H153       -1.2299  -19.5026  -41.6118 H         1 UNK         0.0600 
    154 H154       -1.1657  -18.1460  -43.7725 H         1 UNK         0.3000 
    155 H155       -0.4274  -18.0834  -47.2769 H         1 UNK         0.0600 
    156 H156       -1.7825  -16.1403  -45.3248 H         1 UNK         0.0600 
    157 H157       -2.3898  -16.6169  -46.9049 H         1 UNK         0.0600 
    158 H158       -0.9107  -15.6816  -46.7846 H         1 UNK         0.0600 
    159 H159        0.6802  -16.6944  -45.0296 H         1 UNK         0.3000 
    160 H160        3.3133  -19.0346  -44.3595 H         1 UNK         0.0600 
    161 H161        3.2669  -16.1793  -45.4691 H         1 UNK         0.0600 
    162 H162        4.0381  -17.5531  -46.2545 H         1 UNK         0.0600 
    163 H163        4.6331  -16.9850  -44.7022 H         1 UNK         0.0600 
    164 H164        2.5260  -16.5416  -43.1680 H         1 UNK         0.3000 
    165 H165        0.3221  -17.8646  -40.7245 H         1 UNK         0.0600 
    166 H166        1.9488  -16.8865  -39.1308 H         1 UNK         0.0600 
    167 H167        2.5604  -18.4099  -39.7543 H         1 UNK         0.0600 
    168 H168        3.2087  -16.8927  -40.3657 H         1 UNK         0.0600 
    169 H169        1.4342  -15.2779  -41.0253 H         1 UNK         0.3000 
    170 H170       -0.7196  -13.9857  -43.5070 H         1 UNK         0.0600 
    171 H171       -2.1862  -13.9438  -41.4943 H         1 UNK         0.0600 
    172 H172       -0.8061  -13.5464  -40.4765 H         1 UNK         0.0600 
    173 H173       -1.3590  -12.4080  -41.7048 H         1 UNK         0.0600 
    174 H174        1.2421  -12.8786  -41.6786 H         1 UNK         0.3000 
    175 H175        3.6137  -13.3013  -42.1273 H         1 UNK         0.0600 
    176 H176        4.2825  -12.8972  -45.0755 H         1 UNK         0.0600 
    177 H177        5.4099  -12.9413  -43.7306 H         1 UNK         0.0600 
    178 H178        4.5221  -14.3881  -44.1752 H         1 UNK         0.0600 
    179 H179        3.4278  -10.9482  -43.8836 H         1 UNK         0.3000 
    180 H180        1.9396   -8.8877  -41.4402 H         1 UNK         0.0600 
    181 H181        4.9532   -8.9399  -42.0045 H         1 UNK         0.0600 
    182 H182        4.2106   -8.9676  -40.4096 H         1 UNK         0.0600 
    183 H183        4.0313   -7.5497  -41.4300 H         1 UNK         0.0600 
    184 H184        3.4436   -8.3627  -43.8528 H         1 UNK         0.3000 
    185 H185        0.6434   -7.7341  -45.7256 H         1 UNK         0.0600 
    186 H186        2.8275   -6.6090  -45.2885 H         1 UNK         0.0600 
    187 H187        3.7018   -8.0314  -45.8501 H         1 UNK         0.0600 
    188 H188        2.6916   -7.1183  -46.9603 H         1 UNK         0.0600 
    189 H189        0.5276   -9.5561  -46.9837 H         1 UNK         0.3000 
    190 H190       -2.1511  -21.5986  -46.7807 H         1 UNK         0.3000 
    191 H191       -4.2394  -22.7302  -48.2520 H         1 UNK         0.0600 
    192 H192       -4.4793  -20.6859  -46.8816 H         1 UNK         0.0600 
    193 H193       -5.6959  -21.8727  -46.4447 H         1 UNK         0.0600 
    194 H194       -4.3037  -21.6231  -45.4019 H         1 UNK         0.0600 
    195 H195       -2.9767  -23.6649  -45.0162 H         1 UNK         0.3000 
    196 H196       -4.6406  -25.9203  -44.6164 H         1 UNK         0.0600 
    197 H197       -2.9988  -26.4468  -42.7977 H         1 UNK         0.0600 
    198 H198       -3.4616  -24.7517  -42.7804 H         1 UNK         0.0600 
    199 H199       -1.8971  -25.2306  -43.4361 H         1 UNK         0.0600 
    200 H200       -1.4568  -25.6280  -46.2012 H         1 UNK         0.3000 
    201 H201       -0.8520  -28.3787  -46.3805 H         1 UNK         0.0600 
    202 H202        0.8664  -26.6698  -46.6985 H         1 UNK         0.0600 
    203 H203        0.0517  -26.0297  -48.1232 H         1 UNK         0.0600 
    204 H204        0.7643  -27.6375  -48.1589 H         1 UNK         0.0600 
    205 H205       -2.2245  -26.2371  -48.9666 H         1 UNK         0.3000 
    206 H206       -3.8390  -28.3754  -50.0840 H         1 UNK         0.0600 
    207 H207       -1.5820  -29.1332  -50.8955 H         1 UNK         0.0600 
    208 H208       -2.5718  -28.6013  -52.2321 H         1 UNK         0.0600 
    209 H209       -1.3045  -27.5488  -51.6125 H         1 UNK         0.0600 
    210 H210       -4.3166  -25.6374  -49.1742 H         1 UNK         0.3000 
    211 H211       -5.3848  -23.7677  -49.7245 H         1 UNK         0.0600 
    212 H212       -6.3019  -25.1893  -52.2603 H         1 UNK         0.0600 
    213 H213       -7.0772  -23.8315  -51.4599 H         1 UNK         0.0600 
    214 H214       -7.0297  -25.3962  -50.6660 H         1 UNK         0.0600 
    215 H215       -2.5744  -24.1113  -50.7296 H         1 UNK         0.3000 
    216 H216       -0.9944  -23.3236  -52.0671 H         1 UNK         0.0600 
    217 H217       -1.0602  -20.9539  -52.7218 H         1 UNK         0.0600 
    218 H218       -1.7623  -21.1284  -51.1223 H         1 UNK         0.0600 
    219 H219       -2.8084  -20.9066  -52.5129 H         1 UNK         0.0600 
    220 H220       -3.0605  -25.0446  -53.2656 H         1 UNK         0.3000 
    221 H221       -3.6863  -25.9775  -55.1422 H         1 UNK         0.0600 
    222 H222       -1.2212  -24.6322  -56.3890 H         1 UNK         0.0600 
    223 H223       -1.2630  -26.1931  -55.5822 H         1 UNK         0.0600 
    224 H224       -2.1281  -25.9731  -57.0899 H         1 UNK         0.0600 
    225 H225       -2.7278  -23.8842  -57.6023 H         1 UNK         0.3000 
    226 H226       -5.4185  -23.2394  -58.3237 H         1 UNK         0.0600 
    227 H227       -3.6369  -23.7151  -59.9852 H         1 UNK         0.0600 
    228 H228       -4.3034  -22.1136  -60.2542 H         1 UNK         0.0600 
    229 H229       -2.7387  -22.2869  -59.4688 H         1 UNK         0.0600 
    230 H230       -3.1666  -21.5286  -56.2765 H         1 UNK         0.3000 
    231 H231       -4.0965  -18.8577  -56.8802 H         1 UNK         0.0600 
    232 H232       -1.8294  -19.2450  -56.0110 H         1 UNK         0.0600 
    233 H233       -2.4775  -19.9305  -54.5263 H         1 UNK         0.0600 
    234 H234       -2.7307  -18.2324  -54.8920 H         1 UNK         0.0600 
    235 H235       -5.2763  -21.3907  -54.7842 H         1 UNK         0.3000 
    236 H236       -7.0076  -21.6355  -53.4316 H         1 UNK         0.0600 
    237 H237       -9.1046  -20.4824  -54.0132 H         1 UNK         0.0600 
    238 H238       -8.2294  -19.2622  -54.9286 H         1 UNK         0.0600 
    239 H239       -8.2465  -20.9378  -55.4761 H         1 UNK         0.0600 
    240 H240       -5.0243  -20.5213  -52.0952 H         1 UNK         0.3000 
    241 H241       -5.8267  -18.1409  -50.5870 H         1 UNK         0.0600 
    242 H242       -7.0551  -19.5641  -47.5645 H         1 UNK         0.3800 
    243 H243       -6.5105  -18.1094  -48.3469 H         1 UNK         0.3800 
    244 H244       -3.4545  -20.0184  -50.1448 H         1 UNK         0.0800 
    245 H245       -3.7303  -18.5362  -49.2809 H         1 UNK         0.0800 
    246 H246       -2.7576  -16.4722  -49.7900 H         1 UNK         0.0800 
    247 H247       -2.0852  -15.9274  -51.3014 H         1 UNK         0.0800 
@<TRIPOS>BOND
     1    1    2 1    
     2    1  127 1    
     3    1  128 1    
     4    1  129 1    
     5    2    3 2    
     6    2    4 am   BACKBONE|DICT|INTERRES
     7    4    5 1    
     8    4  130 1    
     9    5    6 1    
    10    5   65 1    
    11    5  131 1    
    12    6    7 1    
    13    6  132 1    
    14    6  133 1    
    15    7    8 1    
    16    8    9 1    
    17    8  134 1    
    18    8  135 1    
    19    9   10 ar   
    20    9   14 ar   
    21   10   11 ar   
    22   10  136 1    
    23   11   12 ar   
    24   11  126 1    
    25   12   13 ar   
    26   12  137 1    
    27   13   14 ar   
    28   13   15 1    
    29   14  138 1    
    30   15   16 1    
    31   15  139 1    
    32   15  140 1    
    33   16   17 1    
    34   17   18 1    
    35   17  141 1    
    36   17  142 1    
    37   18   19 1    
    38   18   67 1    
    39   18  143 1    
    40   19   20 am   BACKBONE|DICT|INTERRES
    41   19  144 1    
    42   20   21 2    
    43   20   22 1    
    44   22   23 1    
    45   22   24 1    
    46   22  145 1    
    47   23  146 1    
    48   23  147 1    
    49   23  148 1    
    50   24   25 am   BACKBONE|DICT|INTERRES
    51   24  149 1    
    52   25   26 2    
    53   25   27 1    
    54   27   28 1    
    55   27   29 1    
    56   27  150 1    
    57   28  151 1    
    58   28  152 1    
    59   28  153 1    
    60   29   30 am   BACKBONE|DICT|INTERRES
    61   29  154 1    
    62   30   31 2    
    63   30   32 1    
    64   32   33 1    
    65   32   34 1    
    66   32  155 1    
    67   33  156 1    
    68   33  157 1    
    69   33  158 1    
    70   34   35 am   BACKBONE|DICT|INTERRES
    71   34  159 1    
    72   35   36 2    
    73   35   37 1    
    74   37   38 1    
    75   37   39 1    
    76   37  160 1    
    77   38  161 1    
    78   38  162 1    
    79   38  163 1    
    80   39   40 am   BACKBONE|DICT|INTERRES
    81   39  164 1    
    82   40   41 2    
    83   40   42 1    
    84   42   43 1    
    85   42   44 1    
    86   42  165 1    
    87   43  166 1    
    88   43  167 1    
    89   43  168 1    
    90   44   45 am   BACKBONE|DICT|INTERRES
    91   44  169 1    
    92   45   46 2    
    93   45   47 1    
    94   47   48 1    
    95   47   49 1    
    96   47  170 1    
    97   48  171 1    
    98   48  172 1    
    99   48  173 1    
   100   49   50 am   BACKBONE|DICT|INTERRES
   101   49  174 1    
   102   50   51 2    
   103   50   52 1    
   104   52   53 1    
   105   52   54 1    
   106   52  175 1    
   107   53  176 1    
   108   53  177 1    
   109   53  178 1    
   110   54   55 am   BACKBONE|DICT|INTERRES
   111   54  179 1    
   112   55   56 2    
   113   55   57 1    
   114   57   58 1    
   115   57   59 1    
   116   57  180 1    
   117   58  181 1    
   118   58  182 1    
   119   58  183 1    
   120   59   60 am   BACKBONE|DICT|INTERRES
   121   59  184 1    
   122   60   61 2    
   123   60   62 1    
   124   62   63 1    
   125   62   64 1    
   126   62  185 1    
   127   63  186 1    
   128   63  187 1    
   129   63  188 1    
   130   64   65 am   BACKBONE|DICT|INTERRES
   131   64  189 1    
   132   65   66 2    
   133   67   68 2    
   134   67   69 am   BACKBONE|DICT|INTERRES
   135   69   70 1    
   136   69  190 1    
   137   70   71 1    
   138   70   72 1    
   139   70  191 1    
   140   71  192 1    
   141   71  193 1    
   142   71  194 1    
   143   72   73 2    
   144   72   74 am   BACKBONE|DICT|INTERRES
   145   74   75 1    
   146   74  195 1    
   147   75   76 1    
   148   75   77 1    
   149   75  196 1    
   150   76  197 1    
   151   76  198 1    
   152   76  199 1    
   153   77   78 2    
   154   77   79 am   BACKBONE|DICT|INTERRES
   155   79   80 1    
   156   79  200 1    
   157   80   81 1    
   158   80   82 1    
   159   80  201 1    
   160   81  202 1    
   161   81  203 1    
   162   81  204 1    
   163   82   83 2    
   164   82   84 am   BACKBONE|DICT|INTERRES
   165   84   85 1    
   166   84  205 1    
   167   85   86 1    
   168   85   87 1    
   169   85  206 1    
   170   86  207 1    
   171   86  208 1    
   172   86  209 1    
   173   87   88 2    
   174   87   89 am   BACKBONE|DICT|INTERRES
   175   89   90 1    
   176   89  210 1    
   177   90   91 1    
   178   90   92 1    
   179   90  211 1    
   180   91  212 1    
   181   91  213 1    
   182   91  214 1    
   183   92   93 2    
   184   92   94 am   BACKBONE|DICT|INTERRES
   185   94   95 1    
   186   94  215 1    
   187   95   96 1    
   188   95   97 1    
   189   95  216 1    
   190   96  217 1    
   191   96  218 1    
   192   96  219 1    
   193   97   98 2    
   194   97   99 am   BACKBONE|DICT|INTERRES
   195   99  100 1    
   196   99  220 1    
   197  100  101 1    
   198  100  102 1    
   199  100  221 1    
   200  101  222 1    
   201  101  223 1    
   202  101  224 1    
   203  102  103 2    
   204  102  104 am   BACKBONE|DICT|INTERRES
   205  104  105 1    
   206  104  225 1    
   207  105  106 1    
   208  105  107 1    
   209  105  226 1    
   210  106  227 1    
   211  106  228 1    
   212  106  229 1    
   213  107  108 2    
   214  107  109 am   BACKBONE|DICT|INTERRES
   215  109  110 1    
   216  109  230 1    
   217  110  111 1    
   218  110  112 1    
   219  110  231 1    
   220  111  232 1    
   221  111  233 1    
   222  111  234 1    
   223  112  113 2    
   224  112  114 am   BACKBONE|DICT|INTERRES
   225  114  115 1    
   226  114  235 1    
   227  115  116 1    
   228  115  117 1    
   229  115  236 1    
   230  116  237 1    
   231  116  238 1    
   232  116  239 1    
   233  117  118 2    
   234  117  119 am   BACKBONE|DICT|INTERRES
   235  119  120 1    
   236  119  240 1    
   237  120  121 1    
   238  120  124 1    
   239  120  241 1    
   240  121  122 am   BACKBONE|DICT|INTERRES
   241  121  123 2    
   242  122  242 1    
   243  122  243 1    
   244  124  125 1    
   245  124  244 1    
   246  124  245 1    
   247  125  126 1    
   248  126  246 1    
   249  126  247 1    
@<TRIPOS>SUBSTRUCTURE
     1 UNK         1 GROUP             0       ****    0 ROOT    
