@<TRIPOS>MOLECULE
3R540
247   249    1
SMALL
USER_CHARGES


@<TRIPOS>ATOM
      1 CA         -1.5046  -15.8715  -47.3789 C.3       0 UNK        -0.1800 
      2 C          -0.3388  -15.2532  -46.6262 C.2       0 UNK         0.5000 
      3 O          -0.2307  -14.0287  -46.5577 O.2       0 UNK        -0.5000 
      4 N           0.5325  -16.0905  -46.0474 N.am      1 UNK        -0.5000 
      5 CA          1.7035  -15.6657  -45.2695 C.3       1 UNK         0.1400 
      6 C6          2.6774  -16.8225  -44.9014 C.3       23 UNK        -0.0398 
      7 S7          2.8413  -18.1718  -46.1236 S.3       23 UNK        -0.2404 
      8 C8          3.2968  -17.3161  -47.6629 C.3       23 UNK        -0.0205 
      9 C9          2.5316  -17.9059  -48.8366 C.ar      23 UNK        -0.0193 
     10 C10         1.3903  -17.2690  -49.3319 C.ar      23 UNK        -0.1150 
     11 C11         0.6741  -17.8187  -50.3994 C.ar      23 UNK        -0.0193 
     12 C12         1.1146  -19.0102  -50.9800 C.ar      23 UNK        -0.1150 
     13 C13         2.2494  -19.6604  -50.4876 C.ar      23 UNK        -0.0193 
     14 C14         2.9567  -19.1013  -49.4203 C.ar      23 UNK        -0.1150 
     15 C15         2.7141  -20.9698  -51.1004 C.3       23 UNK        -0.0205 
     16 S16         2.2287  -22.3925  -50.0764 S.3       23 UNK        -0.2404 
     17 C17         0.4346  -22.4909  -50.3890 C.3       23 UNK        -0.0398 
     18 CA         -0.3852  -22.5753  -49.0818 C.3       11 UNK         0.1400 
     19 N          -0.2933  -21.3683  -48.2409 N.am      11 UNK        -0.5000 
     20 C          -0.6935  -21.3432  -46.9614 C.2       10 UNK         0.5000 
     21 O          -1.1452  -22.3324  -46.3777 O.2       10 UNK        -0.5000 
     22 CA         -0.6520  -20.0039  -46.2160 C.3       10 UNK         0.1400 
     23 CB         -2.0399  -19.3353  -46.2583 C.3       10 UNK        -0.1800 
     24 N          -0.2533  -20.3055  -44.8457 N.am      10 UNK        -0.5000 
     25 C           0.0460  -19.4444  -43.8697 C.2       9 UNK         0.5000 
     26 O          -0.0972  -18.2220  -43.9533 O.2       9 UNK        -0.5000 
     27 CA          0.6438  -20.0738  -42.6009 C.3       9 UNK         0.1400 
     28 CB          2.0115  -20.7209  -42.9032 C.3       9 UNK        -0.1800 
     29 N           0.8128  -19.0714  -41.5525 N.am      9 UNK        -0.5000 
     30 C           0.9117  -19.3330  -40.2443 C.2       8 UNK         0.5000 
     31 O           0.7983  -20.4647  -39.7686 O.2       8 UNK        -0.5000 
     32 CA          1.2474  -18.1384  -39.3249 C.3       8 UNK         0.1400 
     33 CB          1.1085  -18.4800  -37.8302 C.3       8 UNK        -0.1800 
     34 N           2.6091  -17.6550  -39.5722 N.am      8 UNK        -0.5000 
     35 C           2.9471  -16.8597  -40.5916 C.2       7 UNK         0.5000 
     36 O           2.1298  -16.4276  -41.4021 O.2       7 UNK        -0.5000 
     37 CA          4.4303  -16.5200  -40.7738 C.3       7 UNK         0.1400 
     38 CB          5.1478  -17.6704  -41.5075 C.3       7 UNK        -0.1800 
     39 N           4.5145  -15.2864  -41.5525 N.am      7 UNK        -0.5000 
     40 C           5.6095  -14.5440  -41.7512 C.2       6 UNK         0.5000 
     41 O           6.7118  -14.8065  -41.2687 O.2       6 UNK        -0.5000 
     42 CA          5.4488  -13.2932  -42.6328 C.3       6 UNK         0.1400 
     43 CB          5.5976  -13.6548  -44.1190 C.3       6 UNK        -0.1800 
     44 N           4.1559  -12.6421  -42.4358 N.am      6 UNK        -0.5000 
     45 C           3.8949  -11.7106  -41.5106 C.2       5 UNK         0.5000 
     46 O           4.7286  -11.3065  -40.6978 O.2       5 UNK        -0.5000 
     47 CA          2.4596  -11.1388  -41.5033 C.3       5 UNK         0.1400 
     48 CB          2.3534   -9.7660  -40.8078 C.3       5 UNK        -0.1800 
     49 N           1.8539  -11.1023  -42.8391 N.am      5 UNK        -0.5000 
     50 C           2.2456  -10.3991  -43.9130 C.2       4 UNK         0.5000 
     51 O           3.1665   -9.5817  -43.9032 O.2       4 UNK        -0.5000 
     52 CA          1.4956  -10.6713  -45.2360 C.3       4 UNK         0.1400 
     53 CB          2.3818  -11.4818  -46.1958 C.3       4 UNK        -0.1800 
     54 N           0.2316  -11.3883  -45.0494 N.am      4 UNK        -0.5000 
     55 C          -0.8923  -10.8471  -44.5583 C.2       3 UNK         0.5000 
     56 O          -1.0197   -9.6506  -44.2972 O.2       3 UNK        -0.5000 
     57 CA         -2.0493  -11.8193  -44.2634 C.3       3 UNK         0.1400 
     58 CB         -2.9224  -12.0358  -45.5089 C.3       3 UNK        -0.1800 
     59 N          -1.5611  -13.1097  -43.7706 N.am      3 UNK        -0.5000 
     60 C          -1.0607  -13.3079  -42.5421 C.2       2 UNK         0.5000 
     61 O          -1.0158  -12.4357  -41.6750 O.2       2 UNK        -0.5000 
     62 CA         -0.4718  -14.6970  -42.2416 C.3       2 UNK         0.1400 
     63 CB         -1.5481  -15.6421  -41.6883 C.3       2 UNK        -0.1800 
     64 N           0.1467  -15.3149  -43.4120 N.am      2 UNK        -0.5000 
     65 C           1.2772  -14.9010  -44.0018 C.2       1 UNK         0.5000 
     66 O           1.9521  -13.9506  -43.6090 O.2       1 UNK        -0.5000 
     67 C          -1.8472  -22.9738  -49.3797 C.2       11 UNK         0.5000 
     68 O          -2.1052  -24.1437  -49.6573 O.2       11 UNK        -0.5000 
     69 N          -2.7879  -22.0276  -49.2419 N.am      12 UNK        -0.5000 
     70 CA         -4.2315  -22.2602  -49.3114 C.3       12 UNK         0.1400 
     71 CB         -4.9589  -20.9185  -49.1413 C.3       12 UNK        -0.1800 
     72 C          -4.7560  -23.2732  -48.2727 C.2       12 UNK         0.5000 
     73 O          -5.7519  -23.9473  -48.5343 O.2       12 UNK        -0.5000 
     74 N          -4.0740  -23.3740  -47.1225 N.am      13 UNK        -0.5000 
     75 CA         -4.3631  -24.3614  -46.0835 C.3       13 UNK         0.1400 
     76 CB         -3.8404  -23.8355  -44.7375 C.3       13 UNK        -0.1800 
     77 C          -3.7539  -25.7422  -46.3971 C.2       13 UNK         0.5000 
     78 O          -4.2140  -26.7396  -45.8399 O.2       13 UNK        -0.5000 
     79 N          -2.7306  -25.7830  -47.2622 N.am      14 UNK        -0.5000 
     80 CA         -2.0287  -27.0017  -47.6570 C.3       14 UNK         0.1400 
     81 CB         -0.5713  -26.6673  -48.0150 C.3       14 UNK        -0.1800 
     82 C          -2.7275  -27.7195  -48.8232 C.2       14 UNK         0.5000 
     83 O          -2.7669  -28.9510  -48.8231 O.2       14 UNK        -0.5000 
     84 N          -3.2686  -26.9615  -49.7877 N.am      15 UNK        -0.5000 
     85 CA         -3.9488  -27.5049  -50.9600 C.3       15 UNK         0.1400 
     86 CB         -2.9151  -27.8579  -52.0452 C.3       15 UNK        -0.1800 
     87 C          -4.9748  -26.5087  -51.5112 C.2       15 UNK         0.5000 
     88 O          -4.6914  -25.3120  -51.5949 O.2       15 UNK        -0.5000 
     89 N          -6.1183  -27.0365  -51.9683 N.am      16 UNK        -0.5000 
     90 CA         -7.1647  -26.2829  -52.6661 C.3       16 UNK         0.1400 
     91 CB         -8.4220  -27.1559  -52.7897 C.3       16 UNK        -0.1800 
     92 C          -6.7161  -25.7814  -54.0534 C.2       16 UNK         0.5000 
     93 O          -7.1840  -24.7371  -54.5057 O.2       16 UNK        -0.5000 
     94 N          -5.7848  -26.5110  -54.6851 N.am      17 UNK        -0.5000 
     95 CA         -5.1306  -26.1233  -55.9357 C.3       17 UNK         0.1400 
     96 CB         -4.3144  -27.3105  -56.4684 C.3       17 UNK        -0.1800 
     97 C          -4.2353  -24.8808  -55.7714 C.2       17 UNK         0.5000 
     98 O          -4.1537  -24.0660  -56.6900 O.2       17 UNK        -0.5000 
     99 N          -3.6070  -24.7408  -54.5952 N.am      18 UNK        -0.5000 
    100 CA        -2.8282  -23.5626  -54.2212 C.3       18 UNK         0.1400 
    101 CB        -1.8330  -23.9260  -53.1138 C.3       18 UNK        -0.1800 
    102 C         -3.7332  -22.3970  -53.7908 C.2       18 UNK         0.5000 
    103 O         -3.4181  -21.2505  -54.1047 O.2       18 UNK        -0.5000 
    104 N         -4.8643  -22.7008  -53.1349 N.am      19 UNK        -0.5000 
    105 CA        -5.8903  -21.7330  -52.7225 C.3       19 UNK         0.1400 
    106 CB        -6.9685  -22.4446  -51.8888 C.3       19 UNK        -0.1800 
    107 C         -6.5502  -20.9773  -53.8937 C.2       19 UNK         0.5000 
    108 O         -7.0635  -19.8780  -53.6902 O.2       19 UNK        -0.5000 
    109 N         -6.5139  -21.5628  -55.0987 N.am      20 UNK        -0.5000 
    110 CA        -6.9597  -20.9328  -56.3418 C.3       20 UNK         0.1400 
    111 CB        -7.0180  -21.9947  -57.4499 C.3       20 UNK        -0.1800 
    112 C         -6.0711  -19.7459  -56.7706 C.2       20 UNK         0.5000 
    113 O         -6.5709  -18.8267  -57.4204 O.2       20 UNK        -0.5000 
    114 N         -4.7845  -19.7801  -56.3959 N.am      21 UNK        -0.5000 
    115 CA        -3.8254  -18.6967  -56.6068 C.3       21 UNK         0.1400 
    116 CB        -2.4609  -19.2928  -56.9896 C.3       21 UNK        -0.1800 
    117 C         -3.7105  -17.8290  -55.3429 C.2       21 UNK         0.5000 
    118 O         -3.8113  -16.6039  -55.4272 O.2       21 UNK        -0.5000 
    119 N         -3.5226  -18.4829  -54.1905 N.am      22 UNK        -0.5000 
    120 CA        -3.4499  -17.8858  -52.8526 C.3       22 UNK         0.1400 
    121 C         -4.8580  -17.4863  -52.3194 C.2       22 UNK         0.5000 
    122 N         -5.5141  -16.5234  -52.9528 N.am      22 UNK        -0.7600 
    123 O         -5.3651  -18.0410  -51.3491 O.2       22 UNK        -0.5000 
    124 C124       -2.6287  -18.7985  -51.9001 C.3       23 UNK        -0.0398 
    125 S125       -2.0924  -17.9496  -50.3749 S.3       23 UNK        -0.2404 
    126 C126       -0.5680  -17.1205  -50.9290 C.3       23 UNK        -0.0205 
    127 H127       -1.6970  -15.3188  -48.2984 H         1 UNK         0.0600 
    128 H128       -2.4062  -15.8457  -46.7674 H         1 UNK         0.0600 
    129 H129       -1.2956  -16.9060  -47.6476 H         1 UNK         0.0600 
    130 H130        0.3818  -17.0891  -46.0782 H         1 UNK         0.3000 
    131 H131        2.2527  -14.9552  -45.8897 H         1 UNK         0.0600 
    132 H132        3.6714  -16.4208  -44.7024 H         1 UNK         0.0800 
    133 H133        2.3730  -17.3033  -43.9707 H         1 UNK         0.0800 
    134 H134        3.1057  -16.2459  -47.5933 H         1 UNK         0.0800 
    135 H135        4.3702  -17.4220  -47.8262 H         1 UNK         0.0800 
    136 H136        1.0615  -16.3416  -48.8881 H         1 UNK         0.1150 
    137 H137        0.5694  -19.4335  -51.8112 H         1 UNK         0.1150 
    138 H138        3.8316  -19.6053  -49.0336 H         1 UNK         0.1150 
    139 H139        2.3219  -21.0907  -52.1115 H         1 UNK         0.0800 
    140 H140        3.8009  -20.9583  -51.1952 H         1 UNK         0.0800 
    141 H141        0.2794  -23.3877  -50.9915 H         1 UNK         0.0800 
    142 H142        0.0991  -21.6533  -51.0003 H         1 UNK         0.0800 
    143 H143        0.0305  -23.4019  -48.5006 H         1 UNK         0.0600 
    144 H144        0.0923  -20.5395  -48.6720 H         1 UNK         0.3000 
    145 H145        0.0939  -19.3530  -46.6753 H         1 UNK         0.0600 
    146 H146       -2.0433  -18.3762  -45.7417 H         1 UNK         0.0600 
    147 H147       -2.3533  -19.1484  -47.2861 H         1 UNK         0.0600 
    148 H148       -2.8007  -19.9634  -45.7929 H         1 UNK         0.0600 
    149 H149       -0.1424  -21.2982  -44.6797 H         1 UNK         0.3000 
    150 H150       -0.0541  -20.8392  -42.2552 H         1 UNK         0.0600 
    151 H151        2.7308  -19.9818  -43.2591 H         1 UNK         0.0600 
    152 H152        1.9306  -21.4944  -43.6675 H         1 UNK         0.0600 
    153 H153        2.4333  -21.1946  -42.0168 H         1 UNK         0.0600 
    154 H154        0.9127  -18.1147  -41.8780 H         1 UNK         0.3000 
    155 H155        0.5336  -17.3418  -39.5466 H         1 UNK         0.0600 
    156 H156        1.8105  -19.2570  -37.5250 H         1 UNK         0.0600 
    157 H157        0.1030  -18.8364  -37.6029 H         1 UNK         0.0600 
    158 H158        1.2890  -17.6031  -37.2083 H         1 UNK         0.0600 
    159 H159        3.3307  -18.0136  -38.9635 H         1 UNK         0.3000 
    160 H160        4.8811  -16.3583  -39.7928 H         1 UNK         0.0600 
    161 H161        4.7316  -17.8310  -42.5030 H         1 UNK         0.0600 
    162 H162        5.0518  -18.6075  -40.9579 H         1 UNK         0.0600 
    163 H163        6.2138  -17.4735  -41.6191 H         1 UNK         0.0600 
    164 H164        3.6291  -14.9945  -41.9504 H         1 UNK         0.3000 
    165 H165        6.2488  -12.5960  -42.3746 H         1 UNK         0.0600 
    166 H166        6.5486  -14.1545  -44.3080 H         1 UNK         0.0600 
    167 H167        4.8022  -14.3200  -44.4544 H         1 UNK         0.0600 
    168 H168        5.5689  -12.7618  -44.7439 H         1 UNK         0.0600 
    169 H169        3.3864  -12.9636  -43.0190 H         1 UNK         0.3000 
    170 H170        1.8613  -11.8446  -40.9254 H         1 UNK         0.0600 
    171 H171        2.6595   -9.8327  -39.7632 H         1 UNK         0.0600 
    172 H172        2.9864   -9.0179  -41.2856 H         1 UNK         0.0600 
    173 H173        1.3278   -9.3970  -40.8211 H         1 UNK         0.0600 
    174 H174        1.1141  -11.7742  -42.9880 H         1 UNK         0.3000 
    175 H175        1.2821   -9.7060  -45.6993 H         1 UNK         0.0600 
    176 H176        1.8765  -11.6599  -47.1453 H         1 UNK         0.0600 
    177 H177        3.3088  -10.9506  -46.4148 H         1 UNK         0.0600 
    178 H178        2.6525  -12.4499  -45.7743 H         1 UNK         0.0600 
    179 H179        0.2246  -12.3708  -45.2997 H         1 UNK         0.3000 
    180 H180       -2.6745  -11.3691  -43.4892 H         1 UNK         0.0600 
    181 H181       -2.3563  -12.4678  -46.3341 H         1 UNK         0.0600 
    182 H182       -3.3385  -11.0904  -45.8593 H         1 UNK         0.0600 
    183 H183       -3.7601  -12.6990  -45.2931 H         1 UNK         0.0600 
    184 H184       -1.5164  -13.8650  -44.4392 H         1 UNK         0.3000 
    185 H185        0.2959  -14.5664  -41.4767 H         1 UNK         0.0600 
    186 H186       -2.0114  -15.2260  -40.7928 H         1 UNK         0.0600 
    187 H187       -2.3391  -15.8219  -42.4173 H         1 UNK         0.0600 
    188 H188       -1.1200  -16.6068  -41.4156 H         1 UNK         0.0600 
    189 H189       -0.2779  -16.1673  -43.7614 H         1 UNK         0.3000 
    190 H190       -2.4934  -21.0904  -49.0124 H         1 UNK         0.3000 
    191 H191       -4.4426  -22.6625  -50.3021 H         1 UNK         0.0600 
    192 H192       -4.6410  -20.1936  -49.8879 H         1 UNK         0.0600 
    193 H193       -6.0373  -21.0411  -49.2490 H         1 UNK         0.0600 
    194 H194       -4.7746  -20.4831  -48.1583 H         1 UNK         0.0600 
    195 H195       -3.2519  -22.8008  -46.9797 H         1 UNK         0.3000 
    196 H196       -5.4448  -24.4860  -45.9996 H         1 UNK         0.0600 
    197 H197       -4.0996  -24.5168  -43.9262 H         1 UNK         0.0600 
    198 H198       -4.2732  -22.8643  -44.4970 H         1 UNK         0.0600 
    199 H199       -2.7552  -23.7285  -44.7395 H         1 UNK         0.0600 
    200 H200       -2.4564  -24.9339  -47.7382 H         1 UNK         0.3000 
    201 H201       -2.0071  -27.6878  -46.8074 H         1 UNK         0.0600 
    202 H202       -0.0042  -27.5779  -48.2116 H         1 UNK         0.0600 
    203 H203       -0.4997  -26.0446  -48.9064 H         1 UNK         0.0600 
    204 H204       -0.0733  -26.1441  -47.1985 H         1 UNK         0.0600 
    205 H205       -3.1883  -25.9495  -49.7492 H         1 UNK         0.3000 
    206 H206       -4.4844  -28.4126  -50.6732 H         1 UNK         0.0600 
    207 H207       -2.2231  -28.6251  -51.6979 H         1 UNK         0.0600 
    208 H208       -3.3995  -28.2442  -52.9427 H         1 UNK         0.0600 
    209 H209       -2.3266  -26.9867  -52.3358 H         1 UNK         0.0600 
    210 H210       -6.2749  -28.0294  -51.8683 H         1 UNK         0.3000 
    211 H211       -7.4139  -25.4109  -52.0592 H         1 UNK         0.0600 
    212 H212       -8.2315  -28.0583  -53.3720 H         1 UNK         0.0600 
    213 H213       -9.2280  -26.6108  -53.2830 H         1 UNK         0.0600 
    214 H214       -8.7896  -27.4591  -51.8092 H         1 UNK         0.0600 
    215 H215       -5.4738  -27.3689  -54.2549 H         1 UNK         0.3000 
    216 H216       -5.9057  -25.8820  -56.6664 H         1 UNK         0.0600 
    217 H217       -3.8299  -27.0580  -57.4126 H         1 UNK         0.0600 
    218 H218       -4.9511  -28.1759  -56.6528 H         1 UNK         0.0600 
    219 H219       -3.5333  -27.6103  -55.7685 H         1 UNK         0.0600 
    220 H220       -3.7521  -25.4347  -53.8771 H         1 UNK         0.3000 
    221 H221       -2.2524  -23.2296  -55.0877 H         1 UNK         0.0600 
    222 H222       -2.3388  -24.3085  -52.2291 H         1 UNK         0.0600 
    223 H223       -1.1274  -24.6857  -53.4500 H         1 UNK         0.0600 
    224 H224       -1.2550  -23.0516  -52.8151 H         1 UNK         0.0600 
    225 H225       -5.0153  -23.6650  -52.8618 H         1 UNK         0.3000 
    226 H226       -5.3994  -20.9902  -52.0918 H         1 UNK         0.0600 
    227 H227       -7.6013  -21.7167  -51.3798 H         1 UNK         0.0600 
    228 H228       -7.6210  -23.0545  -52.5125 H         1 UNK         0.0600 
    229 H229       -6.5400  -23.0925  -51.1256 H         1 UNK         0.0600 
    230 H230       -6.1288  -22.4946  -55.1684 H         1 UNK         0.3000 
    231 H231       -7.9702  -20.5508  -56.1825 H         1 UNK         0.0600 
    232 H232       -6.0292  -22.3940  -57.6764 H         1 UNK         0.0600 
    233 H233       -7.4195  -21.5731  -58.3722 H         1 UNK         0.0600 
    234 H234       -7.6602  -22.8288  -57.1658 H         1 UNK         0.0600 
    235 H235       -4.4681  -20.5544  -55.8259 H         1 UNK         0.3000 
    236 H236       -4.1523  -18.0557  -57.4282 H         1 UNK         0.0600 
    237 H237       -2.5291  -19.8623  -57.9166 H         1 UNK         0.0600 
    238 H238       -1.7216  -18.5060  -57.1448 H         1 UNK         0.0600 
    239 H239       -2.0747  -19.9593  -56.2175 H         1 UNK         0.0600 
    240 H240       -3.4736  -19.4998  -54.2130 H         1 UNK         0.3000 
    241 H241       -2.8904  -16.9533  -52.9484 H         1 UNK         0.0600 
    242 H242       -5.1194  -16.1137  -53.7899 H         1 UNK         0.3800 
    243 H243       -6.4320  -16.2529  -52.6373 H         1 UNK         0.3800 
    244 H244       -1.7407  -19.1702  -52.4122 H         1 UNK         0.0800 
    245 H245       -3.2000  -19.6877  -51.6330 H         1 UNK         0.0800 
    246 H246       -0.5939  -16.0858  -50.5842 H         1 UNK         0.0800 
    247 H247       -0.5278  -17.0711  -52.0179 H         1 UNK         0.0800 
@<TRIPOS>BOND
     1    1    2 1    
     2    1  127 1    
     3    1  128 1    
     4    1  129 1    
     5    2    3 2    
     6    2    4 am   BACKBONE|DICT|INTERRES
     7    4    5 1    
     8    4  130 1    
     9    5    6 1    
    10    5   65 1    
    11    5  131 1    
    12    6    7 1    
    13    6  132 1    
    14    6  133 1    
    15    7    8 1    
    16    8    9 1    
    17    8  134 1    
    18    8  135 1    
    19    9   10 ar   
    20    9   14 ar   
    21   10   11 ar   
    22   10  136 1    
    23   11   12 ar   
    24   11  126 1    
    25   12   13 ar   
    26   12  137 1    
    27   13   14 ar   
    28   13   15 1    
    29   14  138 1    
    30   15   16 1    
    31   15  139 1    
    32   15  140 1    
    33   16   17 1    
    34   17   18 1    
    35   17  141 1    
    36   17  142 1    
    37   18   19 1    
    38   18   67 1    
    39   18  143 1    
    40   19   20 am   BACKBONE|DICT|INTERRES
    41   19  144 1    
    42   20   21 2    
    43   20   22 1    
    44   22   23 1    
    45   22   24 1    
    46   22  145 1    
    47   23  146 1    
    48   23  147 1    
    49   23  148 1    
    50   24   25 am   BACKBONE|DICT|INTERRES
    51   24  149 1    
    52   25   26 2    
    53   25   27 1    
    54   27   28 1    
    55   27   29 1    
    56   27  150 1    
    57   28  151 1    
    58   28  152 1    
    59   28  153 1    
    60   29   30 am   BACKBONE|DICT|INTERRES
    61   29  154 1    
    62   30   31 2    
    63   30   32 1    
    64   32   33 1    
    65   32   34 1    
    66   32  155 1    
    67   33  156 1    
    68   33  157 1    
    69   33  158 1    
    70   34   35 am   BACKBONE|DICT|INTERRES
    71   34  159 1    
    72   35   36 2    
    73   35   37 1    
    74   37   38 1    
    75   37   39 1    
    76   37  160 1    
    77   38  161 1    
    78   38  162 1    
    79   38  163 1    
    80   39   40 am   BACKBONE|DICT|INTERRES
    81   39  164 1    
    82   40   41 2    
    83   40   42 1    
    84   42   43 1    
    85   42   44 1    
    86   42  165 1    
    87   43  166 1    
    88   43  167 1    
    89   43  168 1    
    90   44   45 am   BACKBONE|DICT|INTERRES
    91   44  169 1    
    92   45   46 2    
    93   45   47 1    
    94   47   48 1    
    95   47   49 1    
    96   47  170 1    
    97   48  171 1    
    98   48  172 1    
    99   48  173 1    
   100   49   50 am   BACKBONE|DICT|INTERRES
   101   49  174 1    
   102   50   51 2    
   103   50   52 1    
   104   52   53 1    
   105   52   54 1    
   106   52  175 1    
   107   53  176 1    
   108   53  177 1    
   109   53  178 1    
   110   54   55 am   BACKBONE|DICT|INTERRES
   111   54  179 1    
   112   55   56 2    
   113   55   57 1    
   114   57   58 1    
   115   57   59 1    
   116   57  180 1    
   117   58  181 1    
   118   58  182 1    
   119   58  183 1    
   120   59   60 am   BACKBONE|DICT|INTERRES
   121   59  184 1    
   122   60   61 2    
   123   60   62 1    
   124   62   63 1    
   125   62   64 1    
   126   62  185 1    
   127   63  186 1    
   128   63  187 1    
   129   63  188 1    
   130   64   65 am   BACKBONE|DICT|INTERRES
   131   64  189 1    
   132   65   66 2    
   133   67   68 2    
   134   67   69 am   BACKBONE|DICT|INTERRES
   135   69   70 1    
   136   69  190 1    
   137   70   71 1    
   138   70   72 1    
   139   70  191 1    
   140   71  192 1    
   141   71  193 1    
   142   71  194 1    
   143   72   73 2    
   144   72   74 am   BACKBONE|DICT|INTERRES
   145   74   75 1    
   146   74  195 1    
   147   75   76 1    
   148   75   77 1    
   149   75  196 1    
   150   76  197 1    
   151   76  198 1    
   152   76  199 1    
   153   77   78 2    
   154   77   79 am   BACKBONE|DICT|INTERRES
   155   79   80 1    
   156   79  200 1    
   157   80   81 1    
   158   80   82 1    
   159   80  201 1    
   160   81  202 1    
   161   81  203 1    
   162   81  204 1    
   163   82   83 2    
   164   82   84 am   BACKBONE|DICT|INTERRES
   165   84   85 1    
   166   84  205 1    
   167   85   86 1    
   168   85   87 1    
   169   85  206 1    
   170   86  207 1    
   171   86  208 1    
   172   86  209 1    
   173   87   88 2    
   174   87   89 am   BACKBONE|DICT|INTERRES
   175   89   90 1    
   176   89  210 1    
   177   90   91 1    
   178   90   92 1    
   179   90  211 1    
   180   91  212 1    
   181   91  213 1    
   182   91  214 1    
   183   92   93 2    
   184   92   94 am   BACKBONE|DICT|INTERRES
   185   94   95 1    
   186   94  215 1    
   187   95   96 1    
   188   95   97 1    
   189   95  216 1    
   190   96  217 1    
   191   96  218 1    
   192   96  219 1    
   193   97   98 2    
   194   97   99 am   BACKBONE|DICT|INTERRES
   195   99  100 1    
   196   99  220 1    
   197  100  101 1    
   198  100  102 1    
   199  100  221 1    
   200  101  222 1    
   201  101  223 1    
   202  101  224 1    
   203  102  103 2    
   204  102  104 am   BACKBONE|DICT|INTERRES
   205  104  105 1    
   206  104  225 1    
   207  105  106 1    
   208  105  107 1    
   209  105  226 1    
   210  106  227 1    
   211  106  228 1    
   212  106  229 1    
   213  107  108 2    
   214  107  109 am   BACKBONE|DICT|INTERRES
   215  109  110 1    
   216  109  230 1    
   217  110  111 1    
   218  110  112 1    
   219  110  231 1    
   220  111  232 1    
   221  111  233 1    
   222  111  234 1    
   223  112  113 2    
   224  112  114 am   BACKBONE|DICT|INTERRES
   225  114  115 1    
   226  114  235 1    
   227  115  116 1    
   228  115  117 1    
   229  115  236 1    
   230  116  237 1    
   231  116  238 1    
   232  116  239 1    
   233  117  118 2    
   234  117  119 am   BACKBONE|DICT|INTERRES
   235  119  120 1    
   236  119  240 1    
   237  120  121 1    
   238  120  124 1    
   239  120  241 1    
   240  121  122 am   BACKBONE|DICT|INTERRES
   241  121  123 2    
   242  122  242 1    
   243  122  243 1    
   244  124  125 1    
   245  124  244 1    
   246  124  245 1    
   247  125  126 1    
   248  126  246 1    
   249  126  247 1    
@<TRIPOS>SUBSTRUCTURE
     1 UNK         1 GROUP             0       ****    0 ROOT    
