@<TRIPOS>MOLECULE
3R540
247   249    1
SMALL
USER_CHARGES


@<TRIPOS>ATOM
      1 CA          6.1595  -12.8957  -44.6536 C.3       0 UNK        -0.1800 
      2 C           5.0667  -13.8318  -45.1476 C.2       0 UNK         0.5000 
      3 O           3.8940  -13.6086  -44.8533 O.2       0 UNK        -0.5000 
      4 N           5.4432  -14.8678  -45.9093 N.am      1 UNK        -0.5000 
      5 CA          4.5502  -15.8844  -46.4815 C.3       1 UNK         0.1400 
      6 C6          5.3734  -16.9813  -47.2070 C.3       23 UNK        -0.0398 
      7 S7          4.4032  -18.4381  -47.7293 S.3       23 UNK        -0.2404 
      8 C8          4.4753  -18.3079  -49.5474 C.3       23 UNK        -0.0205 
      9 C9          3.1240  -18.5966  -50.1801 C.ar      23 UNK        -0.0193 
     10 C10         2.0846  -17.6794  -50.0217 C.ar      23 UNK        -0.1150 
     11 C11         0.8329  -17.9098  -50.5904 C.ar      23 UNK        -0.0193 
     12 C12         0.6252  -19.0660  -51.3433 C.ar      23 UNK        -0.1150 
     13 C13         1.6571  -19.9922  -51.5192 C.ar      23 UNK        -0.0193 
     14 C14         2.9064  -19.7548  -50.9332 C.ar      23 UNK        -0.1150 
     15 C15         1.4155  -21.2404  -52.3545 C.3       23 UNK        -0.0205 
     16 S16         1.4727  -22.7679  -51.3680 S.3       23 UNK        -0.2404 
     17 C17         0.0778  -22.5528  -50.2086 C.3       23 UNK        -0.0398 
     18 CA          0.3929  -23.2235  -48.8518 C.3       11 UNK         0.1400 
     19 N           1.5140  -22.5822  -48.1623 N.am      11 UNK        -0.5000 
     20 C           2.3021  -23.2007  -47.2741 C.2       10 UNK         0.5000 
     21 O           2.1787  -24.3846  -46.9598 O.2       10 UNK        -0.5000 
     22 CA          3.3606  -22.3251  -46.5757 C.3       10 UNK         0.1400 
     23 CB          4.6198  -22.2062  -47.4474 C.3       10 UNK        -0.1800 
     24 N           2.8735  -20.9807  -46.2453 N.am      10 UNK        -0.5000 
     25 C           1.8078  -20.7203  -45.4772 C.2       9 UNK         0.5000 
     26 O           1.1108  -21.6052  -44.9741 O.2       9 UNK        -0.5000 
     27 CA          1.4219  -19.2351  -45.3166 C.3       9 UNK         0.1400 
     28 CB          0.7643  -18.7193  -46.6071 C.3       9 UNK        -0.1800 
     29 N           0.4878  -19.0064  -44.2144 N.am      9 UNK        -0.5000 
     30 C           0.7183  -19.2249  -42.9149 C.2       8 UNK         0.5000 
     31 O           1.8188  -19.5613  -42.4745 O.2       8 UNK        -0.5000 
     32 CA         -0.4653  -19.0742  -41.9266 C.3       8 UNK         0.1400 
     33 CB         -0.2430  -17.8919  -40.9631 C.3       8 UNK        -0.1800 
     34 N          -1.8235  -19.0204  -42.5006 N.am      8 UNK        -0.5000 
     35 C          -2.3445  -18.1026  -43.3270 C.2       7 UNK         0.5000 
     36 O          -1.6954  -17.1848  -43.8227 O.2       7 UNK        -0.5000 
     37 CA         -3.8381  -18.2325  -43.6548 C.3       7 UNK         0.1400 
     38 CB         -4.6931  -17.5949  -42.5485 C.3       7 UNK        -0.1800 
     39 N          -4.1122  -17.5486  -44.9160 N.am      7 UNK        -0.5000 
     40 C          -4.7991  -18.0599  -45.9433 C.2       6 UNK         0.5000 
     41 O          -5.3255  -19.1731  -45.9173 O.2       6 UNK        -0.5000 
     42 CA         -4.9504  -17.1933  -47.2130 C.3       6 UNK         0.1400 
     43 CB         -6.4040  -16.7227  -47.3762 C.3       6 UNK        -0.1800 
     44 N          -4.0711  -16.0227  -47.2860 N.am      6 UNK        -0.5000 
     45 C          -2.7413  -16.0618  -47.4434 C.2       5 UNK         0.5000 
     46 O          -2.0950  -17.1088  -47.4405 O.2       5 UNK        -0.5000 
     47 CA         -2.0097  -14.7211  -47.6776 C.3       5 UNK         0.1400 
     48 CB         -2.9421  -13.4958  -47.8269 C.3       5 UNK        -0.1800 
     49 N          -0.9783  -14.4653  -46.6702 N.am      5 UNK        -0.5000 
     50 C          -1.1652  -14.2607  -45.3577 C.2       4 UNK         0.5000 
     51 O          -2.2645  -14.3040  -44.8023 O.2       4 UNK        -0.5000 
     52 CA          0.0823  -13.8614  -44.5410 C.3       4 UNK         0.1400 
     53 CB          0.8379  -15.0924  -44.0190 C.3       4 UNK        -0.1800 
     54 N           1.0119  -13.0252  -45.3016 N.am      4 UNK        -0.5000 
     55 C           0.7645  -11.7733  -45.7126 C.2       3 UNK         0.5000 
     56 O          -0.2706  -11.1583  -45.4537 O.2       3 UNK        -0.5000 
     57 CA          1.8525  -11.0944  -46.5654 C.3       3 UNK         0.1400 
     58 CB          2.8411  -10.3213  -45.6787 C.3       3 UNK        -0.1800 
     59 N           2.5867  -12.0509  -47.3952 N.am      3 UNK        -0.5000 
     60 C           2.0992  -12.6107  -48.5115 C.2       2 UNK         0.5000 
     61 O           0.9967  -12.3366  -48.9844 O.2       2 UNK        -0.5000 
     62 CA          2.9858  -13.6576  -49.2143 C.3       2 UNK         0.1400 
     63 CB          3.8222  -13.0031  -50.3235 C.3       2 UNK        -0.1800 
     64 N           3.8787  -14.3737  -48.2997 N.am      2 UNK        -0.5000 
     65 C           3.4613  -15.2578  -47.3823 C.2       1 UNK         0.5000 
     66 O           2.2762  -15.5377  -47.2001 O.2       1 UNK        -0.5000 
     67 C          -0.8638  -23.3150  -47.9621 C.2       11 UNK         0.5000 
     68 O          -1.7458  -24.1154  -48.2685 O.2       11 UNK        -0.5000 
     69 N          -0.9469  -22.5314  -46.8758 N.am      12 UNK        -0.5000 
     70 CA         -2.0389  -22.6147  -45.9012 C.3       12 UNK         0.1400 
     71 CB         -2.1651  -21.3041  -45.1131 C.3       12 UNK        -0.1800 
     72 C          -1.8478  -23.8108  -44.9593 C.2       12 UNK         0.5000 
     73 O          -2.8261  -24.4791  -44.6296 O.2       12 UNK        -0.5000 
     74 N          -0.5879  -24.1153  -44.6160 N.am      13 UNK        -0.5000 
     75 CA         -0.1931  -25.3377  -43.9100 C.3       13 UNK         0.1400 
     76 CB          1.2921  -25.2457  -43.5302 C.3       13 UNK        -0.1800 
     77 C          -0.4769  -26.6162  -44.7286 C.2       13 UNK         0.5000 
     78 O          -0.7830  -27.6570  -44.1468 O.2       13 UNK        -0.5000 
     79 N          -0.4153  -26.4988  -46.0627 N.am      14 UNK        -0.5000 
     80 CA         -0.7969  -27.5363  -47.0243 C.3       14 UNK         0.1400 
     81 CB         -0.0121  -27.3074  -48.3265 C.3       14 UNK        -0.1800 
     82 C          -2.3150  -27.5756  -47.3130 C.2       14 UNK         0.5000 
     83 O          -2.7595  -28.4705  -48.0325 O.2       14 UNK        -0.5000 
     84 N          -3.0748  -26.6065  -46.7766 N.am      15 UNK        -0.5000 
     85 CA         -4.5172  -26.3846  -46.9485 C.3       15 UNK         0.1400 
     86 CB         -5.3304  -27.5615  -46.3709 C.3       15 UNK        -0.1800 
     87 C          -4.9366  -26.0181  -48.3908 C.2       15 UNK         0.5000 
     88 O          -6.1062  -26.1718  -48.7462 O.2       15 UNK        -0.5000 
     89 N          -3.9884  -25.5161  -49.1908 N.am      16 UNK        -0.5000 
     90 CA         -4.1881  -25.0905  -50.5749 C.3       16 UNK         0.1400 
     91 CB         -2.9284  -25.4325  -51.3845 C.3       16 UNK        -0.1800 
     92 C          -4.5034  -23.5887  -50.6831 C.2       16 UNK         0.5000 
     93 O          -5.1336  -23.1760  -51.6587 O.2       16 UNK        -0.5000 
     94 N          -4.0910  -22.7885  -49.6857 N.am      17 UNK        -0.5000 
     95 CA         -4.2552  -21.3272  -49.6695 C.3       17 UNK         0.1400 
     96 CB         -3.3773  -20.6903  -48.5872 C.3       17 UNK        -0.1800 
     97 C          -5.7106  -20.8298  -49.5601 C.2       17 UNK         0.5000 
     98 O          -5.9527  -19.6360  -49.7295 O.2       17 UNK        -0.5000 
     99 N          -6.6610  -21.7469  -49.3330 N.am      18 UNK        -0.5000 
    100 CA        -8.0963  -21.5050  -49.4865 C.3       18 UNK         0.1400 
    101 CB        -8.8671  -22.7351  -48.9845 C.3       18 UNK        -0.1800 
    102 C         -8.4868  -21.1749  -50.9440 C.2       18 UNK         0.5000 
    103 O         -9.4402  -20.4254  -51.1578 O.2       18 UNK        -0.5000 
    104 N         -7.7297  -21.7182  -51.9082 N.am      19 UNK        -0.5000 
    105 CA        -7.8139  -21.3875  -53.3280 C.3       19 UNK         0.1400 
    106 CB        -7.8129  -22.6839  -54.1541 C.3       19 UNK        -0.1800 
    107 C         -6.6375  -20.4818  -53.7268 C.2       19 UNK         0.5000 
    108 O         -6.8534  -19.4228  -54.3176 O.2       19 UNK        -0.5000 
    109 N         -5.4114  -20.8935  -53.3748 N.am      20 UNK        -0.5000 
    110 CA        -4.1600  -20.1957  -53.6759 C.3       20 UNK         0.1400 
    111 CB        -3.0224  -21.2332  -53.7376 C.3       20 UNK        -0.1800 
    112 C         -3.8765  -19.0696  -52.6607 C.2       20 UNK         0.5000 
    113 O         -2.8450  -19.0892  -51.9905 O.2       20 UNK        -0.5000 
    114 N         -4.8103  -18.1184  -52.5391 N.am      21 UNK        -0.5000 
    115 CA        -4.7819  -17.0350  -51.5490 C.3       21 UNK         0.1400 
    116 CB        -6.1585  -16.3541  -51.5204 C.3       21 UNK        -0.1800 
    117 C         -3.6614  -15.9964  -51.7610 C.2       21 UNK         0.5000 
    118 O         -3.3819  -15.2293  -50.8413 O.2       21 UNK        -0.5000 
    119 N         -3.0676  -15.9858  -52.9618 N.am      22 UNK        -0.5000 
    120 CA        -1.8998  -15.2182  -53.4387 C.3       22 UNK         0.1400 
    121 C         -1.9618  -13.6604  -53.3675 C.2       22 UNK         0.5000 
    122 N         -2.8660  -13.0582  -52.6095 N.am      22 UNK        -0.7600 
    123 O         -1.1972  -12.9866  -54.0531 O.2       22 UNK        -0.5000 
    124 C124       -0.5442  -15.8038  -52.9450 C.3       23 UNK        -0.0398 
    125 S125       -0.0559  -15.3568  -51.2414 S.3       23 UNK        -0.2404 
    126 C126       -0.2944  -16.9234  -50.3461 C.3       23 UNK        -0.0205 
    127 H127        6.1650  -12.8699  -43.5640 H         1 UNK         0.0600 
    128 H128        5.9792  -11.8844  -45.0182 H         1 UNK         0.0600 
    129 H129        7.1472  -13.2093  -44.9921 H         1 UNK         0.0600 
    130 H130        6.4260  -14.9862  -46.1107 H         1 UNK         0.3000 
    131 H131        4.0339  -16.3557  -45.6422 H         1 UNK         0.0600 
    132 H132        6.1436  -17.3545  -46.5305 H         1 UNK         0.0800 
    133 H133        5.9160  -16.5605  -48.0544 H         1 UNK         0.0800 
    134 H134        5.2362  -18.9936  -49.9230 H         1 UNK         0.0800 
    135 H135        4.7845  -17.3078  -49.8532 H         1 UNK         0.0800 
    136 H136        2.2431  -16.7852  -49.4410 H         1 UNK         0.1150 
    137 H137       -0.3423  -19.2492  -51.7864 H         1 UNK         0.1150 
    138 H138        3.7048  -20.4712  -51.0670 H         1 UNK         0.1150 
    139 H139        0.4542  -21.1868  -52.8684 H         1 UNK         0.0800 
    140 H140        2.1759  -21.2967  -53.1344 H         1 UNK         0.0800 
    141 H141       -0.8070  -22.9909  -50.6721 H         1 UNK         0.0800 
    142 H142       -0.1456  -21.4949  -50.0674 H         1 UNK         0.0800 
    143 H143        0.6773  -24.2557  -49.0664 H         1 UNK         0.0600 
    144 H144        1.6924  -21.6134  -48.3826 H         1 UNK         0.3000 
    145 H145        3.6327  -22.8184  -45.6404 H         1 UNK         0.0600 
    146 H146        5.4067  -21.6559  -46.9312 H         1 UNK         0.0600 
    147 H147        5.0197  -23.1908  -47.6932 H         1 UNK         0.0600 
    148 H148        4.4127  -21.6914  -48.3868 H         1 UNK         0.0600 
    149 H149        3.3863  -20.2074  -46.6505 H         1 UNK         0.3000 
    150 H150        2.3290  -18.6597  -45.1220 H         1 UNK         0.0600 
    151 H151       -0.1690  -19.2408  -46.8234 H         1 UNK         0.0600 
    152 H152        1.4167  -18.8492  -47.4699 H         1 UNK         0.0600 
    153 H153        0.5389  -17.6548  -46.5361 H         1 UNK         0.0600 
    154 H154       -0.4211  -18.6366  -44.4621 H         1 UNK         0.3000 
    155 H155       -0.4476  -19.9837  -41.3242 H         1 UNK         0.0600 
    156 H156       -0.2907  -16.9326  -41.4760 H         1 UNK         0.0600 
    157 H157        0.7326  -17.9550  -40.4795 H         1 UNK         0.0600 
    158 H158       -0.9943  -17.8837  -40.1735 H         1 UNK         0.0600 
    159 H159       -2.4386  -19.7518  -42.1728 H         1 UNK         0.3000 
    160 H160       -4.0828  -19.2932  -43.7281 H         1 UNK         0.0600 
    161 H161       -4.4673  -16.5344  -42.4281 H         1 UNK         0.0600 
    162 H162       -4.5190  -18.0799  -41.5872 H         1 UNK         0.0600 
    163 H163       -5.7563  -17.6873  -42.7713 H         1 UNK         0.0600 
    164 H164       -3.6210  -16.6715  -45.0414 H         1 UNK         0.3000 
    165 H165       -4.7131  -17.8321  -48.0639 H         1 UNK         0.0600 
    166 H166       -6.5425  -16.1855  -48.3144 H         1 UNK         0.0600 
    167 H167       -7.0897  -17.5711  -47.3893 H         1 UNK         0.0600 
    168 H168       -6.7077  -16.0651  -46.5608 H         1 UNK         0.0600 
    169 H169       -4.5229  -15.1203  -47.2790 H         1 UNK         0.3000 
    170 H170       -1.4832  -14.8252  -48.6252 H         1 UNK         0.0600 
    171 H171       -3.6437  -13.6324  -48.6504 H         1 UNK         0.0600 
    172 H172       -3.5214  -13.2979  -46.9250 H         1 UNK         0.0600 
    173 H173       -2.3643  -12.5984  -48.0497 H         1 UNK         0.0600 
    174 H174       -0.0261  -14.4528  -47.0110 H         1 UNK         0.3000 
    175 H175       -0.2535  -13.2813  -43.6791 H         1 UNK         0.0600 
    176 H176        0.2364  -15.6266  -43.2877 H         1 UNK         0.0600 
    177 H177        1.0815  -15.7918  -44.8190 H         1 UNK         0.0600 
    178 H178        1.7663  -14.8117  -43.5219 H         1 UNK         0.0600 
    179 H179        1.9207  -13.4284  -45.5005 H         1 UNK         0.3000 
    180 H180        1.3582  -10.3751  -47.2221 H         1 UNK         0.0600 
    181 H181        3.3608  -10.9780  -44.9810 H         1 UNK         0.0600 
    182 H182        2.3227   -9.5644  -45.0888 H         1 UNK         0.0600 
    183 H183        3.5916   -9.8068  -46.2791 H         1 UNK         0.0600 
    184 H184        3.4845  -12.3572  -47.0510 H         1 UNK         0.3000 
    185 H185        2.3211  -14.3873  -49.6795 H         1 UNK         0.0600 
    186 H186        3.1822  -12.4848  -51.0390 H         1 UNK         0.0600 
    187 H187        4.5250  -12.2726  -49.9211 H         1 UNK         0.0600 
    188 H188        4.3910  -13.7484  -50.8799 H         1 UNK         0.0600 
    189 H189        4.8646  -14.1684  -48.3703 H         1 UNK         0.3000 
    190 H190       -0.1583  -21.9529  -46.6175 H         1 UNK         0.3000 
    191 H191       -2.9765  -22.7720  -46.4374 H         1 UNK         0.0600 
    192 H192       -2.1903  -20.4356  -45.7712 H         1 UNK         0.0600 
    193 H193       -3.0883  -21.3021  -44.5338 H         1 UNK         0.0600 
    194 H194       -1.3449  -21.1720  -44.4098 H         1 UNK         0.0600 
    195 H195        0.1535  -23.4762  -44.8822 H         1 UNK         0.3000 
    196 H196       -0.7781  -25.3971  -42.9898 H         1 UNK         0.0600 
    197 H197        1.6028  -26.1206  -42.9579 H         1 UNK         0.0600 
    198 H198        1.4883  -24.3672  -42.9151 H         1 UNK         0.0600 
    199 H199        1.9313  -25.1864  -44.4111 H         1 UNK         0.0600 
    200 H200       -0.1138  -25.6154  -46.4478 H         1 UNK         0.3000 
    201 H201       -0.5129  -28.5115  -46.6235 H         1 UNK         0.0600 
    202 H202       -0.1616  -28.1347  -49.0213 H         1 UNK         0.0600 
    203 H203        1.0592  -27.2316  -48.1382 H         1 UNK         0.0600 
    204 H204       -0.3308  -26.3978  -48.8345 H         1 UNK         0.0600 
    205 H205       -2.6166  -25.9296  -46.1800 H         1 UNK         0.3000 
    206 H206       -4.7526  -25.5058  -46.3470 H         1 UNK         0.0600 
    207 H207       -5.0219  -27.7899  -45.3507 H         1 UNK         0.0600 
    208 H208       -6.3945  -27.3251  -46.3404 H         1 UNK         0.0600 
    209 H209       -5.2156  -28.4666  -46.9678 H         1 UNK         0.0600 
    210 H210       -3.0657  -25.3474  -48.7996 H         1 UNK         0.3000 
    211 H211       -5.0275  -25.6342  -51.0132 H         1 UNK         0.0600 
    212 H212       -2.0384  -24.9628  -50.9668 H         1 UNK         0.0600 
    213 H213       -3.0232  -25.1013  -52.4196 H         1 UNK         0.0600 
    214 H214       -2.7566  -26.5089  -51.4019 H         1 UNK         0.0600 
    215 H215       -3.5562  -23.2029  -48.9332 H         1 UNK         0.3000 
    216 H216       -3.8828  -20.9759  -50.6278 H         1 UNK         0.0600 
    217 H217       -3.3859  -19.6039  -48.6725 H         1 UNK         0.0600 
    218 H218       -2.3378  -20.9926  -48.6872 H         1 UNK         0.0600 
    219 H219       -3.7313  -20.9403  -47.5886 H         1 UNK         0.0600 
    220 H220       -6.3742  -22.7032  -49.1871 H         1 UNK         0.3000 
    221 H221       -8.3660  -20.6484  -48.8651 H         1 UNK         0.0600 
    222 H222       -8.6165  -23.6291  -49.5573 H         1 UNK         0.0600 
    223 H223       -8.6488  -22.9364  -47.9356 H         1 UNK         0.0600 
    224 H224       -9.9438  -22.5819  -49.0683 H         1 UNK         0.0600 
    225 H225       -6.9511  -22.3081  -51.6364 H         1 UNK         0.3000 
    226 H226       -8.7398  -20.8507  -53.5447 H         1 UNK         0.0600 
    227 H227       -7.8539  -22.4664  -55.2221 H         1 UNK         0.0600 
    228 H228       -6.9189  -23.2823  -53.9734 H         1 UNK         0.0600 
    229 H229       -8.6793  -23.3004  -53.9144 H         1 UNK         0.0600 
    230 H230       -5.3183  -21.7631  -52.8567 H         1 UNK         0.3000 
    231 H231       -4.2375  -19.7317  -54.6613 H         1 UNK         0.0600 
    232 H232       -2.8787  -21.7364  -52.7808 H         1 UNK         0.0600 
    233 H233       -2.0760  -20.7615  -54.0051 H         1 UNK         0.0600 
    234 H234       -3.2265  -21.9971  -54.4878 H         1 UNK         0.0600 
    235 H235       -5.6418  -18.1965  -53.1139 H         1 UNK         0.3000 
    236 H236       -4.6056  -17.4830  -50.5694 H         1 UNK         0.0600 
    237 H237       -6.9405  -17.0649  -51.2516 H         1 UNK         0.0600 
    238 H238       -6.1845  -15.5511  -50.7827 H         1 UNK         0.0600 
    239 H239       -6.4129  -15.9210  -52.4884 H         1 UNK         0.0600 
    240 H240       -3.4385  -16.6377  -53.6366 H         1 UNK         0.3000 
    241 H241       -1.9203  -15.4135  -54.5117 H         1 UNK         0.0600 
    242 H242       -2.9110  -12.0525  -52.5751 H         1 UNK         0.3800 
    243 H243       -3.3900  -13.6219  -51.9498 H         1 UNK         0.3800 
    244 H244       -0.5524  -16.8895  -53.0473 H         1 UNK         0.0800 
    245 H245        0.2557  -15.4618  -53.6033 H         1 UNK         0.0800 
    246 H246       -0.3165  -16.7101  -49.2786 H         1 UNK         0.0800 
    247 H247       -1.2638  -17.3573  -50.5933 H         1 UNK         0.0800 
@<TRIPOS>BOND
     1    1    2 1    
     2    1  127 1    
     3    1  128 1    
     4    1  129 1    
     5    2    3 2    
     6    2    4 am   BACKBONE|DICT|INTERRES
     7    4    5 1    
     8    4  130 1    
     9    5    6 1    
    10    5   65 1    
    11    5  131 1    
    12    6    7 1    
    13    6  132 1    
    14    6  133 1    
    15    7    8 1    
    16    8    9 1    
    17    8  134 1    
    18    8  135 1    
    19    9   10 ar   
    20    9   14 ar   
    21   10   11 ar   
    22   10  136 1    
    23   11   12 ar   
    24   11  126 1    
    25   12   13 ar   
    26   12  137 1    
    27   13   14 ar   
    28   13   15 1    
    29   14  138 1    
    30   15   16 1    
    31   15  139 1    
    32   15  140 1    
    33   16   17 1    
    34   17   18 1    
    35   17  141 1    
    36   17  142 1    
    37   18   19 1    
    38   18   67 1    
    39   18  143 1    
    40   19   20 am   BACKBONE|DICT|INTERRES
    41   19  144 1    
    42   20   21 2    
    43   20   22 1    
    44   22   23 1    
    45   22   24 1    
    46   22  145 1    
    47   23  146 1    
    48   23  147 1    
    49   23  148 1    
    50   24   25 am   BACKBONE|DICT|INTERRES
    51   24  149 1    
    52   25   26 2    
    53   25   27 1    
    54   27   28 1    
    55   27   29 1    
    56   27  150 1    
    57   28  151 1    
    58   28  152 1    
    59   28  153 1    
    60   29   30 am   BACKBONE|DICT|INTERRES
    61   29  154 1    
    62   30   31 2    
    63   30   32 1    
    64   32   33 1    
    65   32   34 1    
    66   32  155 1    
    67   33  156 1    
    68   33  157 1    
    69   33  158 1    
    70   34   35 am   BACKBONE|DICT|INTERRES
    71   34  159 1    
    72   35   36 2    
    73   35   37 1    
    74   37   38 1    
    75   37   39 1    
    76   37  160 1    
    77   38  161 1    
    78   38  162 1    
    79   38  163 1    
    80   39   40 am   BACKBONE|DICT|INTERRES
    81   39  164 1    
    82   40   41 2    
    83   40   42 1    
    84   42   43 1    
    85   42   44 1    
    86   42  165 1    
    87   43  166 1    
    88   43  167 1    
    89   43  168 1    
    90   44   45 am   BACKBONE|DICT|INTERRES
    91   44  169 1    
    92   45   46 2    
    93   45   47 1    
    94   47   48 1    
    95   47   49 1    
    96   47  170 1    
    97   48  171 1    
    98   48  172 1    
    99   48  173 1    
   100   49   50 am   BACKBONE|DICT|INTERRES
   101   49  174 1    
   102   50   51 2    
   103   50   52 1    
   104   52   53 1    
   105   52   54 1    
   106   52  175 1    
   107   53  176 1    
   108   53  177 1    
   109   53  178 1    
   110   54   55 am   BACKBONE|DICT|INTERRES
   111   54  179 1    
   112   55   56 2    
   113   55   57 1    
   114   57   58 1    
   115   57   59 1    
   116   57  180 1    
   117   58  181 1    
   118   58  182 1    
   119   58  183 1    
   120   59   60 am   BACKBONE|DICT|INTERRES
   121   59  184 1    
   122   60   61 2    
   123   60   62 1    
   124   62   63 1    
   125   62   64 1    
   126   62  185 1    
   127   63  186 1    
   128   63  187 1    
   129   63  188 1    
   130   64   65 am   BACKBONE|DICT|INTERRES
   131   64  189 1    
   132   65   66 2    
   133   67   68 2    
   134   67   69 am   BACKBONE|DICT|INTERRES
   135   69   70 1    
   136   69  190 1    
   137   70   71 1    
   138   70   72 1    
   139   70  191 1    
   140   71  192 1    
   141   71  193 1    
   142   71  194 1    
   143   72   73 2    
   144   72   74 am   BACKBONE|DICT|INTERRES
   145   74   75 1    
   146   74  195 1    
   147   75   76 1    
   148   75   77 1    
   149   75  196 1    
   150   76  197 1    
   151   76  198 1    
   152   76  199 1    
   153   77   78 2    
   154   77   79 am   BACKBONE|DICT|INTERRES
   155   79   80 1    
   156   79  200 1    
   157   80   81 1    
   158   80   82 1    
   159   80  201 1    
   160   81  202 1    
   161   81  203 1    
   162   81  204 1    
   163   82   83 2    
   164   82   84 am   BACKBONE|DICT|INTERRES
   165   84   85 1    
   166   84  205 1    
   167   85   86 1    
   168   85   87 1    
   169   85  206 1    
   170   86  207 1    
   171   86  208 1    
   172   86  209 1    
   173   87   88 2    
   174   87   89 am   BACKBONE|DICT|INTERRES
   175   89   90 1    
   176   89  210 1    
   177   90   91 1    
   178   90   92 1    
   179   90  211 1    
   180   91  212 1    
   181   91  213 1    
   182   91  214 1    
   183   92   93 2    
   184   92   94 am   BACKBONE|DICT|INTERRES
   185   94   95 1    
   186   94  215 1    
   187   95   96 1    
   188   95   97 1    
   189   95  216 1    
   190   96  217 1    
   191   96  218 1    
   192   96  219 1    
   193   97   98 2    
   194   97   99 am   BACKBONE|DICT|INTERRES
   195   99  100 1    
   196   99  220 1    
   197  100  101 1    
   198  100  102 1    
   199  100  221 1    
   200  101  222 1    
   201  101  223 1    
   202  101  224 1    
   203  102  103 2    
   204  102  104 am   BACKBONE|DICT|INTERRES
   205  104  105 1    
   206  104  225 1    
   207  105  106 1    
   208  105  107 1    
   209  105  226 1    
   210  106  227 1    
   211  106  228 1    
   212  106  229 1    
   213  107  108 2    
   214  107  109 am   BACKBONE|DICT|INTERRES
   215  109  110 1    
   216  109  230 1    
   217  110  111 1    
   218  110  112 1    
   219  110  231 1    
   220  111  232 1    
   221  111  233 1    
   222  111  234 1    
   223  112  113 2    
   224  112  114 am   BACKBONE|DICT|INTERRES
   225  114  115 1    
   226  114  235 1    
   227  115  116 1    
   228  115  117 1    
   229  115  236 1    
   230  116  237 1    
   231  116  238 1    
   232  116  239 1    
   233  117  118 2    
   234  117  119 am   BACKBONE|DICT|INTERRES
   235  119  120 1    
   236  119  240 1    
   237  120  121 1    
   238  120  124 1    
   239  120  241 1    
   240  121  122 am   BACKBONE|DICT|INTERRES
   241  121  123 2    
   242  122  242 1    
   243  122  243 1    
   244  124  125 1    
   245  124  244 1    
   246  124  245 1    
   247  125  126 1    
   248  126  246 1    
   249  126  247 1    
@<TRIPOS>SUBSTRUCTURE
     1 UNK         1 GROUP             0       ****    0 ROOT    
