@<TRIPOS>MOLECULE
3R540
247   249    1
SMALL
USER_CHARGES


@<TRIPOS>ATOM
      1 CA         -1.3162  -11.9435  -50.3593 C.3       0 UNK        -0.1800 
      2 C          -0.9208  -12.7381  -49.1241 C.2       0 UNK         0.5000 
      3 O          -1.1057  -12.2668  -48.0017 O.2       0 UNK        -0.5000 
      4 N          -0.3946  -13.9530  -49.3160 N.am      1 UNK        -0.5000 
      5 CA          0.0286  -14.8562  -48.2390 C.3       1 UNK         0.1400 
      6 C6          0.8394  -16.0609  -48.7686 C.3       23 UNK        -0.0398 
      7 S7          2.3629  -15.5254  -49.6092 S.3       23 UNK        -0.2404 
      8 C8          3.3612  -17.0494  -49.5484 C.3       23 UNK        -0.0205 
      9 C9          2.9363  -18.1564  -50.5125 C.ar      23 UNK        -0.0193 
     10 C10         2.3137  -17.8916  -51.7410 C.ar      23 UNK        -0.1150 
     11 C11         2.0328  -18.9287  -52.6375 C.ar      23 UNK        -0.0193 
     12 C12         2.3772  -20.2401  -52.2961 C.ar      23 UNK        -0.1150 
     13 C13         2.9953  -20.5202  -51.0755 C.ar      23 UNK        -0.0193 
     14 C14         3.2654  -19.4757  -50.1887 C.ar      23 UNK        -0.1150 
     15 C15         3.4278  -21.9414  -50.7470 C.3       23 UNK        -0.0205 
     16 S16         2.0476  -22.9658  -50.1559 S.3       23 UNK        -0.2404 
     17 C17         1.8554  -22.3787  -48.4399 C.3       23 UNK        -0.0398 
     18 CA          2.6228  -23.2550  -47.4157 C.3       11 UNK         0.1400 
     19 N           2.8227  -22.5682  -46.1385 N.am      11 UNK        -0.5000 
     20 C           3.7590  -22.8902  -45.2337 C.2       10 UNK         0.5000 
     21 O           4.6290  -23.7395  -45.4292 O.2       10 UNK        -0.5000 
     22 CA          3.7253  -22.1537  -43.8778 C.3       10 UNK         0.1400 
     23 CB          4.7230  -20.9856  -43.8726 C.3       10 UNK        -0.1800 
     24 N           2.3984  -21.6500  -43.5240 N.am      10 UNK        -0.5000 
     25 C           1.3492  -22.4162  -43.1933 C.2       9 UNK         0.5000 
     26 O           1.4122  -23.6370  -43.0474 O.2       9 UNK        -0.5000 
     27 CA         -0.0068  -21.6972  -43.0479 C.3       9 UNK         0.1400 
     28 CB         -0.2070  -21.1964  -41.6102 C.3       9 UNK        -0.1800 
     29 N          -0.1642  -20.5784  -43.9822 N.am      9 UNK        -0.5000 
     30 C          -0.1422  -20.6900  -45.3182 C.2       8 UNK         0.5000 
     31 O          -0.0179  -21.7579  -45.9132 O.2       8 UNK        -0.5000 
     32 CA         -0.2151  -19.3903  -46.1300 C.3       8 UNK         0.1400 
     33 CB         -1.6639  -18.9125  -46.2448 C.3       8 UNK        -0.1800 
     34 N           0.6176  -18.3399  -45.5466 N.am      8 UNK        -0.5000 
     35 C           1.9559  -18.3177  -45.6287 C.2       7 UNK         0.5000 
     36 O           2.6098  -19.1302  -46.2816 O.2       7 UNK        -0.5000 
     37 CA          2.6888  -17.2247  -44.8264 C.3       7 UNK         0.1400 
     38 CB          2.8575  -15.9436  -45.6542 C.3       7 UNK        -0.1800 
     39 N           2.0064  -16.8898  -43.5779 N.am      7 UNK        -0.5000 
     40 C           1.9200  -17.7042  -42.5181 C.2       6 UNK         0.5000 
     41 O           2.4288  -18.8238  -42.4721 O.2       6 UNK        -0.5000 
     42 CA          1.0791  -17.1930  -41.3339 C.3       6 UNK         0.1400 
     43 CB          1.9290  -16.3143  -40.4048 C.3       6 UNK        -0.1800 
     44 N          -0.1039  -16.4420  -41.7613 N.am      6 UNK        -0.5000 
     45 C          -1.1186  -16.9498  -42.4712 C.2       5 UNK         0.5000 
     46 O          -1.1593  -18.1198  -42.8506 O.2       5 UNK        -0.5000 
     47 CA         -2.2547  -15.9923  -42.8648 C.3       5 UNK         0.1400 
     48 CB         -3.2015  -15.7149  -41.6830 C.3       5 UNK        -0.1800 
     49 N          -1.7919  -14.7538  -43.4975 N.am      5 UNK        -0.5000 
     50 C          -1.1377  -13.7068  -42.9755 C.2       4 UNK         0.5000 
     51 O          -0.7521  -13.6469  -41.8074 O.2       4 UNK        -0.5000 
     52 CA         -0.8635  -12.5268  -43.9314 C.3       4 UNK         0.1400 
     53 CB          0.5320  -12.6557  -44.5608 C.3       4 UNK        -0.1800 
     54 N          -1.8652  -12.4167  -44.9967 N.am      4 UNK        -0.5000 
     55 C          -3.1392  -12.0413  -44.8057 C.2       3 UNK         0.5000 
     56 O          -3.5787  -11.6354  -43.7293 O.2       3 UNK        -0.5000 
     57 CA         -4.0916  -12.1811  -46.0071 C.3       3 UNK         0.1400 
     58 CB         -4.0594  -10.9256  -46.8924 C.3       3 UNK        -0.1800 
     59 N          -3.7795  -13.3673  -46.8080 N.am      3 UNK        -0.5000 
     60 C          -4.1244  -14.6163  -46.4603 C.2       2 UNK         0.5000 
     61 O          -4.7977  -14.8844  -45.4655 O.2       2 UNK        -0.5000 
     62 CA         -3.6163  -15.7667  -47.3501 C.3       2 UNK         0.1400 
     63 CB         -4.6506  -16.1216  -48.4282 C.3       2 UNK        -0.1800 
     64 N          -2.3352  -15.4834  -47.9976 N.am      2 UNK        -0.5000 
     65 C          -1.1623  -15.3147  -47.3727 C.2       1 UNK         0.5000 
     66 O          -1.0110  -15.4576  -46.1601 O.2       1 UNK        -0.5000 
     67 C           1.9398  -24.6175  -47.1823 C.2       11 UNK         0.5000 
     68 O           2.4702  -25.6448  -47.6086 O.2       11 UNK        -0.5000 
     69 N           0.8009  -24.6059  -46.4781 N.am      12 UNK        -0.5000 
     70 CA          0.0255  -25.7878  -46.1149 C.3       12 UNK         0.1400 
     71 CB         -0.7114  -26.3421  -47.3507 C.3       12 UNK        -0.1800 
     72 C          -0.9860  -25.4142  -45.0264 C.2       12 UNK         0.5000 
     73 O          -1.4274  -24.2661  -44.9715 O.2       12 UNK        -0.5000 
     74 N          -1.4099  -26.4041  -44.2294 N.am      13 UNK        -0.5000 
     75 CA         -2.4363  -26.2546  -43.1879 C.3       13 UNK         0.1400 
     76 CB         -2.5318  -27.5618  -42.3867 C.3       13 UNK        -0.1800 
     77 C          -3.8242  -25.8521  -43.7335 C.2       13 UNK         0.5000 
     78 O          -4.6105  -25.2392  -43.0115 O.2       13 UNK        -0.5000 
     79 N          -4.0789  -26.1716  -45.0096 N.am      14 UNK        -0.5000 
     80 CA         -5.2575  -25.7667  -45.7771 C.3       14 UNK         0.1400 
     81 CB         -5.4919  -26.8107  -46.8827 C.3       14 UNK        -0.1800 
     82 C          -5.1377  -24.3485  -46.3807 C.2       14 UNK         0.5000 
     83 O          -6.0068  -23.9599  -47.1624 O.2       14 UNK        -0.5000 
     84 N          -4.0517  -23.6195  -46.0693 N.am      15 UNK        -0.5000 
     85 CA         -3.7131  -22.2672  -46.5379 C.3       15 UNK         0.1400 
     86 CB         -4.7512  -21.2421  -46.0319 C.3       15 UNK        -0.1800 
     87 C          -3.4921  -22.1805  -48.0641 C.2       15 UNK         0.5000 
     88 O          -3.6404  -21.1038  -48.6457 O.2       15 UNK        -0.5000 
     89 N          -3.1864  -23.3345  -48.6820 N.am      16 UNK        -0.5000 
     90 CA         -3.1247  -23.5956  -50.1260 C.3       16 UNK         0.1400 
     91 CB         -1.8979  -22.9032  -50.7502 C.3       16 UNK        -0.1800 
     92 C          -4.4428  -23.2351  -50.8479 C.2       16 UNK         0.5000 
     93 O          -4.4131  -22.7618  -51.9852 O.2       16 UNK        -0.5000 
     94 N          -5.5721  -23.4014  -50.1395 N.am      17 UNK        -0.5000 
     95 CA         -6.9235  -22.9075  -50.4288 C.3       17 UNK         0.1400 
     96 CB         -7.4675  -23.4314  -51.7722 C.3       17 UNK        -0.1800 
     97 C          -7.0271  -21.3727  -50.3220 C.2       17 UNK         0.5000 
     98 O          -7.8893  -20.8737  -49.5980 O.2       17 UNK        -0.5000 
     99 N          -6.1316  -20.6604  -51.0121 N.am      18 UNK        -0.5000 
    100 CA        -5.9606  -19.2159  -50.9761 C.3       18 UNK         0.1400 
    101 CB        -7.1163  -18.5109  -51.7172 C.3       18 UNK        -0.1800 
    102 C         -4.5897  -18.8845  -51.5817 C.2       18 UNK         0.5000 
    103 O         -4.5207  -18.5080  -52.7540 O.2       18 UNK        -0.5000 
    104 N         -3.5221  -19.0635  -50.7876 N.am      19 UNK        -0.5000 
    105 CA        -2.1355  -18.7122  -51.1185 C.3       19 UNK         0.1400 
    106 CB        -1.2228  -19.0394  -49.9244 C.3       19 UNK        -0.1800 
    107 C         -2.0002  -17.2298  -51.5298 C.2       19 UNK         0.5000 
    108 O         -1.9500  -16.3510  -50.6694 O.2       19 UNK        -0.5000 
    109 N         -2.0095  -16.9990  -52.8433 N.am      20 UNK        -0.5000 
    110 CA        -2.0750  -15.7283  -53.5689 C.3       20 UNK         0.1400 
    111 CB        -2.9985  -14.6829  -52.9036 C.3       20 UNK        -0.1800 
    112 C         -2.6102  -16.0381  -54.9736 C.2       20 UNK         0.5000 
    113 O         -2.0614  -15.5505  -55.9610 O.2       20 UNK        -0.5000 
    114 N         -3.6324  -16.9039  -55.0401 N.am      21 UNK        -0.5000 
    115 CA        -4.2273  -17.4390  -56.2646 C.3       21 UNK         0.1400 
    116 CB        -5.7405  -17.6115  -56.0395 C.3       21 UNK        -0.1800 
    117 C         -3.5318  -18.7554  -56.6705 C.2       21 UNK         0.5000 
    118 O         -4.1973  -19.7392  -56.9984 O.2       21 UNK        -0.5000 
    119 N         -2.1950  -18.7547  -56.6111 N.am      22 UNK        -0.5000 
    120 CA        -1.3282  -19.9165  -56.8625 C.3       22 UNK         0.1400 
    121 C         -1.1427  -20.2769  -58.3670 C.2       22 UNK         0.5000 
    122 N         -1.5912  -19.4599  -59.3124 N.am      22 UNK        -0.7600 
    123 O         -0.5852  -21.3243  -58.6832 O.2       22 UNK        -0.5000 
    124 C124        0.0455  -19.7555  -56.1627 C.3       23 UNK        -0.0398 
    125 S125       -0.0844  -19.5545  -54.3509 S.3       23 UNK        -0.2404 
    126 C126        1.4477  -18.6272  -54.0119 C.3       23 UNK        -0.0205 
    127 H127       -0.8677  -10.9507  -50.3255 H         1 UNK         0.0600 
    128 H128       -2.3994  -11.8290  -50.3997 H         1 UNK         0.0600 
    129 H129       -0.9882  -12.4328  -51.2766 H         1 UNK         0.0600 
    130 H130       -0.2940  -14.3168  -50.2532 H         1 UNK         0.3000 
    131 H131        0.6834  -14.2800  -47.5824 H         1 UNK         0.0600 
    132 H132        1.1045  -16.7344  -47.9543 H         1 UNK         0.0800 
    133 H133        0.2566  -16.6499  -49.4723 H         1 UNK         0.0800 
    134 H134        4.3940  -16.7852  -49.7783 H         1 UNK         0.0800 
    135 H135        3.3652  -17.4301  -48.5266 H         1 UNK         0.0800 
    136 H136        2.0817  -16.8745  -52.0216 H         1 UNK         0.1150 
    137 H137        2.1844  -21.0433  -52.9936 H         1 UNK         0.1150 
    138 H138        3.7659  -19.6864  -49.2535 H         1 UNK         0.1150 
    139 H139        3.8457  -22.4041  -51.6423 H         1 UNK         0.0800 
    140 H140        4.2290  -21.9423  -50.0062 H         1 UNK         0.0800 
    141 H141        0.7878  -22.3478  -48.2222 H         1 UNK         0.0800 
    142 H142        2.1951  -21.3451  -48.3762 H         1 UNK         0.0800 
    143 H143        3.6136  -23.4510  -47.8320 H         1 UNK         0.0600 
    144 H144        2.1158  -21.8909  -45.8838 H         1 UNK         0.3000 
    145 H145        4.0321  -22.8660  -43.1092 H         1 UNK         0.0600 
    146 H146        4.7534  -20.4969  -42.8985 H         1 UNK         0.0600 
    147 H147        5.7330  -21.3329  -44.0939 H         1 UNK         0.0600 
    148 H148        4.4647  -20.2323  -44.6169 H         1 UNK         0.0600 
    149 H149        2.2761  -20.6438  -43.5342 H         1 UNK         0.3000 
    150 H150       -0.7940  -22.4204  -43.2641 H         1 UNK         0.0600 
    151 H151       -0.1551  -22.0222  -40.8997 H         1 UNK         0.0600 
    152 H152       -1.1814  -20.7227  -41.4891 H         1 UNK         0.0600 
    153 H153        0.5557  -20.4716  -41.3267 H         1 UNK         0.0600 
    154 H154       -0.3320  -19.6637  -43.5712 H         1 UNK         0.3000 
    155 H155        0.1488  -19.6009  -47.1384 H         1 UNK         0.0600 
    156 H156       -1.7172  -18.0007  -46.8281 H         1 UNK         0.0600 
    157 H157       -2.1214  -18.7231  -45.2738 H         1 UNK         0.0600 
    158 H158       -2.2691  -19.6523  -46.7641 H         1 UNK         0.0600 
    159 H159        0.1480  -17.6455  -44.9832 H         1 UNK         0.3000 
    160 H160        3.6825  -17.6055  -44.5809 H         1 UNK         0.0600 
    161 H161        1.8944  -15.5097  -45.9189 H         1 UNK         0.0600 
    162 H162        3.4014  -16.1395  -46.5776 H         1 UNK         0.0600 
    163 H163        3.4219  -15.1906  -45.1039 H         1 UNK         0.0600 
    164 H164        1.5485  -15.9921  -43.5312 H         1 UNK         0.3000 
    165 H165        0.7387  -18.0619  -40.7675 H         1 UNK         0.0600 
    166 H166        1.3646  -16.0148  -39.5216 H         1 UNK         0.0600 
    167 H167        2.8126  -16.8522  -40.0585 H         1 UNK         0.0600 
    168 H168        2.2703  -15.4084  -40.9073 H         1 UNK         0.0600 
    169 H169       -0.1509  -15.4571  -41.5156 H         1 UNK         0.3000 
    170 H170       -2.8385  -16.5037  -43.6321 H         1 UNK         0.0600 
    171 H171       -3.6199  -16.6447  -41.2957 H         1 UNK         0.0600 
    172 H172       -2.6936  -15.2183  -40.8560 H         1 UNK         0.0600 
    173 H173       -4.0368  -15.0854  -41.9906 H         1 UNK         0.0600 
    174 H174       -1.9224  -14.7340  -44.5028 H         1 UNK         0.3000 
    175 H175       -0.8886  -11.6088  -43.3407 H         1 UNK         0.0600 
    176 H176        0.6208  -13.5590  -45.1629 H         1 UNK         0.0600 
    177 H177        0.7550  -11.8035  -45.2030 H         1 UNK         0.0600 
    178 H178        1.3052  -12.6962  -43.7926 H         1 UNK         0.0600 
    179 H179       -1.5732  -12.6746  -45.9321 H         1 UNK         0.3000 
    180 H180       -5.1066  -12.2828  -45.6166 H         1 UNK         0.0600 
    181 H181       -4.7392  -11.0219  -47.7391 H         1 UNK         0.0600 
    182 H182       -3.0625  -10.7243  -47.2833 H         1 UNK         0.0600 
    183 H183       -4.3685  -10.0463  -46.3261 H         1 UNK         0.0600 
    184 H184       -3.1825  -13.2291  -47.6116 H         1 UNK         0.3000 
    185 H185       -3.4927  -16.6353  -46.7028 H         1 UNK         0.0600 
    186 H186       -4.7932  -15.3028  -49.1345 H         1 UNK         0.0600 
    187 H187       -4.3377  -16.9988  -48.9929 H         1 UNK         0.0600 
    188 H188       -5.6203  -16.3496  -47.9840 H         1 UNK         0.0600 
    189 H189       -2.3354  -15.4511  -49.0140 H         1 UNK         0.3000 
    190 H190        0.4232  -23.7252  -46.1327 H         1 UNK         0.3000 
    191 H191        0.7015  -26.5459  -45.7145 H         1 UNK         0.0600 
    192 H192       -1.3351  -27.1977  -47.0892 H         1 UNK         0.0600 
    193 H193       -0.0125  -26.6807  -48.1154 H         1 UNK         0.0600 
    194 H194       -1.3567  -25.5884  -47.8026 H         1 UNK         0.0600 
    195 H195       -1.0153  -27.3274  -44.3396 H         1 UNK         0.3000 
    196 H196       -2.1106  -25.4610  -42.5120 H         1 UNK         0.0600 
    197 H197       -2.8300  -28.3999  -43.0179 H         1 UNK         0.0600 
    198 H198       -1.5770  -27.8117  -41.9236 H         1 UNK         0.0600 
    199 H199       -3.2669  -27.4765  -41.5853 H         1 UNK         0.0600 
    200 H200       -3.3735  -26.6883  -45.5129 H         1 UNK         0.3000 
    201 H201       -6.1288  -25.7649  -45.1191 H         1 UNK         0.0600 
    202 H202       -4.6649  -26.8379  -47.5935 H         1 UNK         0.0600 
    203 H203       -6.4012  -26.5940  -47.4449 H         1 UNK         0.0600 
    204 H204       -5.6064  -27.8102  -46.4627 H         1 UNK         0.0600 
    205 H205       -3.3527  -24.0321  -45.4595 H         1 UNK         0.3000 
    206 H206       -2.7552  -22.0227  -46.0796 H         1 UNK         0.0600 
    207 H207       -4.8732  -21.3083  -44.9509 H         1 UNK         0.0600 
    208 H208       -4.4501  -20.2199  -46.2592 H         1 UNK         0.0600 
    209 H209       -5.7285  -21.3951  -46.4905 H         1 UNK         0.0600 
    210 H210       -3.0885  -24.1461  -48.0910 H         1 UNK         0.3000 
    211 H211       -2.9933  -24.6725  -50.2389 H         1 UNK         0.0600 
    212 H212       -1.7099  -23.2772  -51.7570 H         1 UNK         0.0600 
    213 H213       -0.9984  -23.0820  -50.1621 H         1 UNK         0.0600 
    214 H214       -2.0432  -21.8271  -50.8295 H         1 UNK         0.0600 
    215 H215       -5.4708  -23.7454  -49.1908 H         1 UNK         0.3000 
    216 H216       -7.5557  -23.3204  -49.6409 H         1 UNK         0.0600 
    217 H217       -8.5164  -23.1592  -51.8941 H         1 UNK         0.0600 
    218 H218       -6.9280  -23.0215  -52.6260 H         1 UNK         0.0600 
    219 H219       -7.4050  -24.5183  -51.8252 H         1 UNK         0.0600 
    220 H220       -5.4424  -21.1747  -51.5555 H         1 UNK         0.3000 
    221 H221       -5.9572  -18.8840  -49.9357 H         1 UNK         0.0600 
    222 H222       -8.0702  -18.6697  -51.2150 H         1 UNK         0.0600 
    223 H223       -7.2149  -18.8698  -52.7425 H         1 UNK         0.0600 
    224 H224       -6.9510  -17.4336  -51.7599 H         1 UNK         0.0600 
    225 H225       -3.6617  -19.4955  -49.8793 H         1 UNK         0.3000 
    226 H226       -1.8305  -19.3440  -51.9538 H         1 UNK         0.0600 
    227 H227       -1.4537  -18.4111  -49.0661 H         1 UNK         0.0600 
    228 H228       -1.3165  -20.0762  -49.6072 H         1 UNK         0.0600 
    229 H229       -0.1754  -18.8802  -50.1826 H         1 UNK         0.0600 
    230 H230       -2.0609  -17.8114  -53.4439 H         1 UNK         0.3000 
    231 H231       -1.0653  -15.3244  -53.6573 H         1 UNK         0.0600 
    232 H232       -3.9722  -15.1055  -52.6527 H         1 UNK         0.0600 
    233 H233       -3.1700  -13.8330  -53.5656 H         1 UNK         0.0600 
    234 H234       -2.5612  -14.2800  -51.9914 H         1 UNK         0.0600 
    235 H235       -3.9900  -17.3034  -54.1747 H         1 UNK         0.3000 
    236 H236       -4.0887  -16.7308  -57.0839 H         1 UNK         0.0600 
    237 H237       -6.2362  -17.9597  -56.9464 H         1 UNK         0.0600 
    238 H238       -5.9489  -18.3346  -55.2496 H         1 UNK         0.0600 
    239 H239       -6.2065  -16.6670  -55.7584 H         1 UNK         0.0600 
    240 H240       -1.7278  -17.8944  -56.3634 H         1 UNK         0.3000 
    241 H241       -1.8152  -20.7855  -56.4155 H         1 UNK         0.0600 
    242 H242       -1.4689  -19.7073  -60.2821 H         1 UNK         0.3800 
    243 H243       -2.0539  -18.5988  -59.0695 H         1 UNK         0.3800 
    244 H244        0.5762  -18.8998  -56.5838 H         1 UNK         0.0800 
    245 H245        0.6758  -20.6273  -56.3470 H         1 UNK         0.0800 
    246 H246        1.2441  -17.5614  -54.1266 H         1 UNK         0.0800 
    247 H247        2.2036  -18.8797  -54.7568 H         1 UNK         0.0800 
@<TRIPOS>BOND
     1    1    2 1    
     2    1  127 1    
     3    1  128 1    
     4    1  129 1    
     5    2    3 2    
     6    2    4 am   BACKBONE|DICT|INTERRES
     7    4    5 1    
     8    4  130 1    
     9    5    6 1    
    10    5   65 1    
    11    5  131 1    
    12    6    7 1    
    13    6  132 1    
    14    6  133 1    
    15    7    8 1    
    16    8    9 1    
    17    8  134 1    
    18    8  135 1    
    19    9   10 ar   
    20    9   14 ar   
    21   10   11 ar   
    22   10  136 1    
    23   11   12 ar   
    24   11  126 1    
    25   12   13 ar   
    26   12  137 1    
    27   13   14 ar   
    28   13   15 1    
    29   14  138 1    
    30   15   16 1    
    31   15  139 1    
    32   15  140 1    
    33   16   17 1    
    34   17   18 1    
    35   17  141 1    
    36   17  142 1    
    37   18   19 1    
    38   18   67 1    
    39   18  143 1    
    40   19   20 am   BACKBONE|DICT|INTERRES
    41   19  144 1    
    42   20   21 2    
    43   20   22 1    
    44   22   23 1    
    45   22   24 1    
    46   22  145 1    
    47   23  146 1    
    48   23  147 1    
    49   23  148 1    
    50   24   25 am   BACKBONE|DICT|INTERRES
    51   24  149 1    
    52   25   26 2    
    53   25   27 1    
    54   27   28 1    
    55   27   29 1    
    56   27  150 1    
    57   28  151 1    
    58   28  152 1    
    59   28  153 1    
    60   29   30 am   BACKBONE|DICT|INTERRES
    61   29  154 1    
    62   30   31 2    
    63   30   32 1    
    64   32   33 1    
    65   32   34 1    
    66   32  155 1    
    67   33  156 1    
    68   33  157 1    
    69   33  158 1    
    70   34   35 am   BACKBONE|DICT|INTERRES
    71   34  159 1    
    72   35   36 2    
    73   35   37 1    
    74   37   38 1    
    75   37   39 1    
    76   37  160 1    
    77   38  161 1    
    78   38  162 1    
    79   38  163 1    
    80   39   40 am   BACKBONE|DICT|INTERRES
    81   39  164 1    
    82   40   41 2    
    83   40   42 1    
    84   42   43 1    
    85   42   44 1    
    86   42  165 1    
    87   43  166 1    
    88   43  167 1    
    89   43  168 1    
    90   44   45 am   BACKBONE|DICT|INTERRES
    91   44  169 1    
    92   45   46 2    
    93   45   47 1    
    94   47   48 1    
    95   47   49 1    
    96   47  170 1    
    97   48  171 1    
    98   48  172 1    
    99   48  173 1    
   100   49   50 am   BACKBONE|DICT|INTERRES
   101   49  174 1    
   102   50   51 2    
   103   50   52 1    
   104   52   53 1    
   105   52   54 1    
   106   52  175 1    
   107   53  176 1    
   108   53  177 1    
   109   53  178 1    
   110   54   55 am   BACKBONE|DICT|INTERRES
   111   54  179 1    
   112   55   56 2    
   113   55   57 1    
   114   57   58 1    
   115   57   59 1    
   116   57  180 1    
   117   58  181 1    
   118   58  182 1    
   119   58  183 1    
   120   59   60 am   BACKBONE|DICT|INTERRES
   121   59  184 1    
   122   60   61 2    
   123   60   62 1    
   124   62   63 1    
   125   62   64 1    
   126   62  185 1    
   127   63  186 1    
   128   63  187 1    
   129   63  188 1    
   130   64   65 am   BACKBONE|DICT|INTERRES
   131   64  189 1    
   132   65   66 2    
   133   67   68 2    
   134   67   69 am   BACKBONE|DICT|INTERRES
   135   69   70 1    
   136   69  190 1    
   137   70   71 1    
   138   70   72 1    
   139   70  191 1    
   140   71  192 1    
   141   71  193 1    
   142   71  194 1    
   143   72   73 2    
   144   72   74 am   BACKBONE|DICT|INTERRES
   145   74   75 1    
   146   74  195 1    
   147   75   76 1    
   148   75   77 1    
   149   75  196 1    
   150   76  197 1    
   151   76  198 1    
   152   76  199 1    
   153   77   78 2    
   154   77   79 am   BACKBONE|DICT|INTERRES
   155   79   80 1    
   156   79  200 1    
   157   80   81 1    
   158   80   82 1    
   159   80  201 1    
   160   81  202 1    
   161   81  203 1    
   162   81  204 1    
   163   82   83 2    
   164   82   84 am   BACKBONE|DICT|INTERRES
   165   84   85 1    
   166   84  205 1    
   167   85   86 1    
   168   85   87 1    
   169   85  206 1    
   170   86  207 1    
   171   86  208 1    
   172   86  209 1    
   173   87   88 2    
   174   87   89 am   BACKBONE|DICT|INTERRES
   175   89   90 1    
   176   89  210 1    
   177   90   91 1    
   178   90   92 1    
   179   90  211 1    
   180   91  212 1    
   181   91  213 1    
   182   91  214 1    
   183   92   93 2    
   184   92   94 am   BACKBONE|DICT|INTERRES
   185   94   95 1    
   186   94  215 1    
   187   95   96 1    
   188   95   97 1    
   189   95  216 1    
   190   96  217 1    
   191   96  218 1    
   192   96  219 1    
   193   97   98 2    
   194   97   99 am   BACKBONE|DICT|INTERRES
   195   99  100 1    
   196   99  220 1    
   197  100  101 1    
   198  100  102 1    
   199  100  221 1    
   200  101  222 1    
   201  101  223 1    
   202  101  224 1    
   203  102  103 2    
   204  102  104 am   BACKBONE|DICT|INTERRES
   205  104  105 1    
   206  104  225 1    
   207  105  106 1    
   208  105  107 1    
   209  105  226 1    
   210  106  227 1    
   211  106  228 1    
   212  106  229 1    
   213  107  108 2    
   214  107  109 am   BACKBONE|DICT|INTERRES
   215  109  110 1    
   216  109  230 1    
   217  110  111 1    
   218  110  112 1    
   219  110  231 1    
   220  111  232 1    
   221  111  233 1    
   222  111  234 1    
   223  112  113 2    
   224  112  114 am   BACKBONE|DICT|INTERRES
   225  114  115 1    
   226  114  235 1    
   227  115  116 1    
   228  115  117 1    
   229  115  236 1    
   230  116  237 1    
   231  116  238 1    
   232  116  239 1    
   233  117  118 2    
   234  117  119 am   BACKBONE|DICT|INTERRES
   235  119  120 1    
   236  119  240 1    
   237  120  121 1    
   238  120  124 1    
   239  120  241 1    
   240  121  122 am   BACKBONE|DICT|INTERRES
   241  121  123 2    
   242  122  242 1    
   243  122  243 1    
   244  124  125 1    
   245  124  244 1    
   246  124  245 1    
   247  125  126 1    
   248  126  246 1    
   249  126  247 1    
@<TRIPOS>SUBSTRUCTURE
     1 UNK         1 GROUP             0       ****    0 ROOT    
