@<TRIPOS>MOLECULE
3R540
247   249    1
SMALL
USER_CHARGES


@<TRIPOS>ATOM
      1 CA          2.8680   -9.3858  -49.9032 C.3       0 UNK        -0.1800 
      2 C           2.6389  -10.3149  -48.7198 C.2       0 UNK         0.5000 
      3 O           2.8626   -9.9177  -47.5761 O.2       0 UNK        -0.5000 
      4 N           2.1907  -11.5473  -48.9876 N.am      1 UNK        -0.5000 
      5 CA          1.8957  -12.5832  -47.9917 C.3       1 UNK         0.1400 
      6 C6          1.9994  -14.0067  -48.5962 C.3       23 UNK        -0.0398 
      7 S7          3.7048  -14.4018  -49.1153 S.3       23 UNK        -0.2404 
      8 C8          4.0492  -15.9150  -48.1482 C.3       23 UNK        -0.0205 
      9 C9          3.6028  -17.2344  -48.7873 C.ar      23 UNK        -0.0193 
     10 C10         2.6955  -17.3009  -49.8553 C.ar      23 UNK        -0.1150 
     11 C11         2.3308  -18.5298  -50.4151 C.ar      23 UNK        -0.0193 
     12 C12         2.9119  -19.7003  -49.9220 C.ar      23 UNK        -0.1150 
     13 C13         3.7810  -19.6609  -48.8315 C.ar      23 UNK        -0.0193 
     14 C14         4.1236  -18.4268  -48.2724 C.ar      23 UNK        -0.1150 
     15 C15         4.3374  -20.9553  -48.2569 C.3       23 UNK        -0.0205 
     16 S16         3.2277  -21.6735  -47.0019 S.3       23 UNK        -0.2404 
     17 C17         1.7989  -22.1814  -48.0198 C.3       23 UNK        -0.0398 
     18 CA          0.8601  -23.1647  -47.2849 C.3       11 UNK         0.1400 
     19 N           0.2125  -22.5547  -46.1203 N.am      11 UNK        -0.5000 
     20 C          -0.5380  -23.2131  -45.2268 C.2       10 UNK         0.5000 
     21 O          -0.7441  -24.4265  -45.2642 O.2       10 UNK        -0.5000 
     22 CA         -1.2074  -22.3646  -44.1332 C.3       10 UNK         0.1400 
     23 CB         -0.2134  -22.0221  -43.0128 C.3       10 UNK        -0.1800 
     24 N          -1.7862  -21.1349  -44.6743 N.am      10 UNK        -0.5000 
     25 C          -2.8813  -21.0923  -45.4454 C.2       9 UNK         0.5000 
     26 O          -3.5286  -22.0868  -45.7687 O.2       9 UNK        -0.5000 
     27 CA         -3.3035  -19.7114  -45.9789 C.3       9 UNK         0.1400 
     28 CB         -4.1041  -18.9340  -44.9243 C.3       9 UNK        -0.1800 
     29 N          -2.1680  -18.9035  -46.4205 N.am      9 UNK        -0.5000 
     30 C          -1.3868  -19.2217  -47.4617 C.2       8 UNK         0.5000 
     31 O          -1.5535  -20.2195  -48.1576 O.2       8 UNK        -0.5000 
     32 CA         -0.1911  -18.2988  -47.7435 C.3       8 UNK         0.1400 
     33 CB         -0.6471  -17.0891  -48.5745 C.3       8 UNK        -0.1800 
     34 N           0.4943  -17.8273  -46.5395 N.am      8 UNK        -0.5000 
     35 C           0.9648  -18.5931  -45.5427 C.2       7 UNK         0.5000 
     36 O           0.8547  -19.8172  -45.5072 O.2       7 UNK        -0.5000 
     37 CA          1.6380  -17.8685  -44.3632 C.3       7 UNK         0.1400 
     38 CB          3.1663  -17.9728  -44.4723 C.3       7 UNK        -0.1800 
     39 N           1.2603  -16.4576  -44.2704 N.am      7 UNK        -0.5000 
     40 C           0.0510  -15.9909  -43.9382 C.2       6 UNK         0.5000 
     41 O          -0.8812  -16.7274  -43.6107 O.2       6 UNK        -0.5000 
     42 CA         -0.1583  -14.4588  -44.0261 C.3       6 UNK         0.1400 
     43 CB         -1.4513  -14.0105  -43.3233 C.3       6 UNK        -0.1800 
     44 N           0.9651  -13.6494  -43.5304 N.am      6 UNK        -0.5000 
     45 C           2.1663  -13.5148  -44.1148 C.2       5 UNK         0.5000 
     46 O           2.4735  -14.1138  -45.1461 O.2       5 UNK        -0.5000 
     47 CA          3.1992  -12.5771  -43.4599 C.3       5 UNK         0.1400 
     48 CB          3.9143  -11.7109  -44.5113 C.3       5 UNK        -0.1800 
     49 N           2.5968  -11.6956  -42.4604 N.am      5 UNK        -0.5000 
     50 C           2.6745  -11.8615  -41.1330 C.2       4 UNK         0.5000 
     51 O           3.2616  -12.8020  -40.5973 O.2       4 UNK        -0.5000 
     52 CA          1.9778  -10.8076  -40.2458 C.3       4 UNK         0.1400 
     53 CB          3.0074   -9.8146  -39.6849 C.3       4 UNK        -0.1800 
     54 N           0.9261  -10.0570  -40.9358 N.am      4 UNK        -0.5000 
     55 C          -0.2335  -10.5780  -41.3560 C.2       3 UNK         0.5000 
     56 O          -0.5533  -11.7522  -41.1690 O.2       3 UNK        -0.5000 
     57 CA         -1.1814   -9.6598  -42.1564 C.3       3 UNK         0.1400 
     58 CB         -0.8014   -8.1620  -42.1138 C.3       3 UNK        -0.1800 
     59 N          -1.3181  -10.1156  -43.5445 N.am      3 UNK        -0.5000 
     60 C          -0.3306  -10.2826  -44.4358 C.2       2 UNK         0.5000 
     61 O           0.8565  -10.0359  -44.2040 O.2       2 UNK        -0.5000 
     62 CA         -0.7475  -10.8174  -45.8140 C.3       2 UNK         0.1400 
     63 CB         -1.4674   -9.7358  -46.6369 C.3       2 UNK        -0.1800 
     64 N           0.4370  -11.2574  -46.5420 N.am      2 UNK        -0.5000 
     65 C           0.5185  -12.3231  -47.3430 C.2       1 UNK         0.5000 
     66 O          -0.4355  -13.0627  -47.5913 O.2       1 UNK        -0.5000 
     67 C          -0.1743  -23.7649  -48.2590 C.2       11 UNK         0.5000 
     68 O           0.0086  -24.8950  -48.7135 O.2       11 UNK        -0.5000 
     69 N          -1.2612  -23.0265  -48.5272 N.am      12 UNK        -0.5000 
     70 CA         -2.3846  -23.4905  -49.3362 C.3       12 UNK         0.1400 
     71 CB         -3.3352  -22.3292  -49.6412 C.3       12 UNK        -0.1800 
     72 C          -3.1398  -24.6555  -48.6795 C.2       12 UNK         0.5000 
     73 O          -3.4294  -25.6316  -49.3668 O.2       12 UNK        -0.5000 
     74 N          -3.4012  -24.5720  -47.3660 N.am      13 UNK        -0.5000 
     75 CA         -4.0492  -25.6342  -46.5913 C.3       13 UNK         0.1400 
     76 CB         -4.3196  -25.1563  -45.1573 C.3       13 UNK        -0.1800 
     77 C          -3.2481  -26.9489  -46.5864 C.2       13 UNK         0.5000 
     78 O          -3.8405  -28.0161  -46.7464 O.2       13 UNK        -0.5000 
     79 N          -1.9162  -26.8483  -46.4678 N.am      14 UNK        -0.5000 
     80 CA         -0.9834  -27.9735  -46.5729 C.3       14 UNK         0.1400 
     81 CB          0.4240  -27.5054  -46.1734 C.3       14 UNK        -0.1800 
     82 C          -0.9669  -28.6209  -47.9733 C.2       14 UNK         0.5000 
     83 O          -0.7923  -29.8353  -48.0786 O.2       14 UNK        -0.5000 
     84 N          -1.1790  -27.8079  -49.0164 N.am      15 UNK        -0.5000 
     85 CA         -1.3080  -28.2376  -50.4107 C.3       15 UNK         0.1400 
     86 CB         -0.8870  -27.0716  -51.3211 C.3       15 UNK        -0.1800 
     87 C          -2.7285  -28.7246  -50.7747 C.2       15 UNK         0.5000 
     88 O          -2.9226  -29.2093  -51.8903 O.2       15 UNK        -0.5000 
     89 N          -3.6897  -28.5752  -49.8497 N.am      16 UNK        -0.5000 
     90 CA         -5.1273  -28.8328  -49.9936 C.3       16 UNK         0.1400 
     91 CB         -5.4031  -30.3348  -50.2148 C.3       16 UNK        -0.1800 
     92 C          -5.8003  -27.9236  -51.0476 C.2       16 UNK         0.5000 
     93 O          -6.6943  -28.3666  -51.7717 O.2       16 UNK        -0.5000 
     94 N          -5.3547  -26.6646  -51.1081 N.am      17 UNK        -0.5000 
     95 CA         -5.8439  -25.6111  -51.9916 C.3       17 UNK         0.1400 
     96 CB         -4.6441  -25.0656  -52.7861 C.3       17 UNK        -0.1800 
     97 C          -6.4945  -24.4840  -51.1696 C.2       17 UNK         0.5000 
     98 O          -6.3468  -24.4339  -49.9459 O.2       17 UNK        -0.5000 
     99 N          -7.1870  -23.5753  -51.8658 N.am      18 UNK        -0.5000 
    100 CA        -7.6821  -22.3168  -51.3077 C.3       18 UNK         0.1400 
    101 CB        -8.8050  -21.7820  -52.2102 C.3       18 UNK        -0.1800 
    102 C         -6.5423  -21.2872  -51.2208 C.2       18 UNK         0.5000 
    103 O         -5.6493  -21.2989  -52.0704 O.2       18 UNK        -0.5000 
    104 N         -6.6119  -20.3762  -50.2405 N.am      19 UNK        -0.5000 
    105 CA        -5.6190  -19.3145  -50.0204 C.3       19 UNK         0.1400 
    106 CB        -5.9713  -18.5483  -48.7367 C.3       19 UNK        -0.1800 
    107 C         -5.4743  -18.3437  -51.2105 C.2       19 UNK         0.5000 
    108 O         -4.3808  -17.8353  -51.4552 O.2       19 UNK        -0.5000 
    109 N         -6.5676  -18.1468  -51.9595 N.am      20 UNK        -0.5000 
    110 CA        -6.6104  -17.3615  -53.1941 C.3       20 UNK         0.1400 
    111 CB        -8.0796  -17.0822  -53.5469 C.3       20 UNK        -0.1800 
    112 C         -5.8915  -18.0342  -54.3832 C.2       20 UNK         0.5000 
    113 O         -5.5466  -17.3419  -55.3412 O.2       20 UNK        -0.5000 
    114 N         -5.6803  -19.3565  -54.3122 N.am      21 UNK        -0.5000 
    115 CA        -5.0089  -20.1563  -55.3388 C.3       21 UNK         0.1400 
    116 CB        -5.7258  -21.5129  -55.4554 C.3       21 UNK        -0.1800 
    117 C         -3.5049  -20.3466  -55.0527 C.2       21 UNK         0.5000 
    118 O         -2.8273  -21.0071  -55.8417 O.2       21 UNK        -0.5000 
    119 N         -3.0066  -19.7863  -53.9413 N.am      22 UNK        -0.5000 
    120 CA        -1.5934  -19.8081  -53.5380 C.3       22 UNK         0.1400 
    121 C         -0.6672  -19.0883  -54.5600 C.2       22 UNK         0.5000 
    122 N          0.4499  -19.6956  -54.9369 N.am      22 UNK        -0.7600 
    123 O         -0.9389  -17.9679  -54.9857 O.2       22 UNK        -0.5000 
    124 C124       -1.4229  -19.2164  -52.1163 C.3       23 UNK        -0.0398 
    125 S125        0.0299  -19.8762  -51.2363 S.3       23 UNK        -0.2404 
    126 C126        1.2933  -18.5884  -51.5322 C.3       23 UNK        -0.0205 
    127 H127        3.9096   -9.0660  -49.9323 H         1 UNK         0.0600 
    128 H128        2.2404   -8.4995  -49.8106 H         1 UNK         0.0600 
    129 H129        2.6345   -9.8709  -50.8513 H         1 UNK         0.0600 
    130 H130        2.0171  -11.8084  -49.9475 H         1 UNK         0.3000 
    131 H131        2.6401  -12.5129  -47.1968 H         1 UNK         0.0600 
    132 H132        1.3377  -14.1118  -49.4575 H         1 UNK         0.0800 
    133 H133        1.6702  -14.7494  -47.8678 H         1 UNK         0.0800 
    134 H134        3.6082  -15.8239  -47.1551 H         1 UNK         0.0800 
    135 H135        5.1285  -15.9568  -47.9943 H         1 UNK         0.0800 
    136 H136        2.2566  -16.3998  -50.2554 H         1 UNK         0.1150 
    137 H137        2.6499  -20.6522  -50.3611 H         1 UNK         0.1150 
    138 H138        4.8045  -18.3955  -47.4333 H         1 UNK         0.1150 
    139 H139        4.5115  -21.6803  -49.0533 H         1 UNK         0.0800 
    140 H140        5.3101  -20.7689  -47.7992 H         1 UNK         0.0800 
    141 H141        2.1828  -22.6371  -48.9344 H         1 UNK         0.0800 
    142 H142        1.2465  -21.2899  -48.3211 H         1 UNK         0.0800 
    143 H143        1.4659  -23.9959  -46.9175 H         1 UNK         0.0600 
    144 H144        0.3704  -21.5582  -45.9854 H         1 UNK         0.3000 
    145 H145       -2.0138  -22.9578  -43.6967 H         1 UNK         0.0600 
    146 H146        0.1999  -22.9294  -42.5707 H         1 UNK         0.0600 
    147 H147        0.6236  -21.4267  -43.3782 H         1 UNK         0.0600 
    148 H148       -0.6987  -21.4628  -42.2129 H         1 UNK         0.0600 
    149 H149       -1.2621  -20.2841  -44.5270 H         1 UNK         0.3000 
    150 H150       -3.9500  -19.8798  -46.8421 H         1 UNK         0.0600 
    151 H151       -4.9613  -19.5136  -44.5793 H         1 UNK         0.0600 
    152 H152       -4.4881  -17.9990  -45.3327 H         1 UNK         0.0600 
    153 H153       -3.4951  -18.6941  -44.0515 H         1 UNK         0.0600 
    154 H154       -1.9436  -18.0848  -45.8733 H         1 UNK         0.3000 
    155 H155        0.5328  -18.8725  -48.3220 H         1 UNK         0.0600 
    156 H156       -1.3505  -16.4627  -48.0244 H         1 UNK         0.0600 
    157 H157        0.1951  -16.4646  -48.8657 H         1 UNK         0.0600 
    158 H158       -1.1420  -17.4107  -49.4919 H         1 UNK         0.0600 
    159 H159        0.6360  -16.8321  -46.4665 H         1 UNK         0.3000 
    160 H160        1.3222  -18.3701  -43.4462 H         1 UNK         0.0600 
    161 H161        3.5424  -17.4579  -45.3562 H         1 UNK         0.0600 
    162 H162        3.4834  -19.0145  -44.5408 H         1 UNK         0.0600 
    163 H163        3.6546  -17.5404  -43.5989 H         1 UNK         0.0600 
    164 H164        1.9513  -15.7740  -44.5689 H         1 UNK         0.3000 
    165 H165       -0.2778  -14.2359  -45.0873 H         1 UNK         0.0600 
    166 H166       -1.6261  -12.9443  -43.4541 H         1 UNK         0.0600 
    167 H167       -2.3227  -14.5263  -43.7285 H         1 UNK         0.0600 
    168 H168       -1.4151  -14.2148  -42.2526 H         1 UNK         0.0600 
    169 H169        0.7984  -13.1438  -42.6705 H         1 UNK         0.3000 
    170 H170        3.9505  -13.2176  -42.9941 H         1 UNK         0.0600 
    171 H171        4.4333  -12.3264  -45.2471 H         1 UNK         0.0600 
    172 H172        3.2147  -11.0734  -45.0518 H         1 UNK         0.0600 
    173 H173        4.6612  -11.0667  -44.0475 H         1 UNK         0.0600 
    174 H174        2.0579  -10.9184  -42.8310 H         1 UNK         0.3000 
    175 H175        1.5216  -11.3374  -39.4069 H         1 UNK         0.0600 
    176 H176        3.4874   -9.2416  -40.4794 H         1 UNK         0.0600 
    177 H177        2.5418   -9.1100  -38.9955 H         1 UNK         0.0600 
    178 H178        3.7928  -10.3342  -39.1344 H         1 UNK         0.0600 
    179 H179        1.1270   -9.0919  -41.1544 H         1 UNK         0.3000 
    180 H180       -2.1644   -9.7631  -41.6946 H         1 UNK         0.0600 
    181 H181        0.1599   -7.9616  -42.5879 H         1 UNK         0.0600 
    182 H182       -0.7506   -7.7977  -41.0869 H         1 UNK         0.0600 
    183 H183       -1.5500   -7.5595  -42.6282 H         1 UNK         0.0600 
    184 H184       -2.2579  -10.3630  -43.8206 H         1 UNK         0.3000 
    185 H185       -1.4207  -11.6623  -45.6550 H         1 UNK         0.0600 
    186 H186       -2.3688   -9.3871  -46.1318 H         1 UNK         0.0600 
    187 H187       -0.8271   -8.8689  -46.8051 H         1 UNK         0.0600 
    188 H188       -1.7711  -10.1202  -47.6109 H         1 UNK         0.0600 
    189 H189        1.2687  -10.6949  -46.3891 H         1 UNK         0.3000 
    190 H190       -1.3293  -22.0771  -48.1677 H         1 UNK         0.3000 
    191 H191       -1.9838  -23.8490  -50.2865 H         1 UNK         0.0600 
    192 H192       -3.7505  -21.8950  -48.7312 H         1 UNK         0.0600 
    193 H193       -4.1672  -22.6711  -50.2545 H         1 UNK         0.0600 
    194 H194       -2.8280  -21.5398  -50.1953 H         1 UNK         0.0600 
    195 H195       -3.1737  -23.7191  -46.8648 H         1 UNK         0.3000 
    196 H196       -5.0120  -25.8399  -47.0641 H         1 UNK         0.0600 
    197 H197       -4.7941  -25.9406  -44.5663 H         1 UNK         0.0600 
    198 H198       -4.9893  -24.2964  -45.1493 H         1 UNK         0.0600 
    199 H199       -3.3998  -24.8711  -44.6469 H         1 UNK         0.0600 
    200 H200       -1.5101  -25.9341  -46.2881 H         1 UNK         0.3000 
    201 H201       -1.3020  -28.7375  -45.8609 H         1 UNK         0.0600 
    202 H202        0.4352  -27.1155  -45.1554 H         1 UNK         0.0600 
    203 H203        0.7901  -26.7200  -46.8351 H         1 UNK         0.0600 
    204 H204        1.1370  -28.3297  -46.2146 H         1 UNK         0.0600 
    205 H205       -1.2863  -26.8159  -48.8423 H         1 UNK         0.3000 
    206 H206       -0.6234  -29.0690  -50.5896 H         1 UNK         0.0600 
    207 H207        0.1230  -26.7337  -51.0884 H         1 UNK         0.0600 
    208 H208       -0.8963  -27.3695  -52.3702 H         1 UNK         0.0600 
    209 H209       -1.5566  -26.2176  -51.2184 H         1 UNK         0.0600 
    210 H210       -3.4209  -28.1453  -48.9739 H         1 UNK         0.3000 
    211 H211       -5.5743  -28.5584  -49.0371 H         1 UNK         0.0600 
    212 H212       -5.0457  -30.6758  -51.1867 H         1 UNK         0.0600 
    213 H213       -6.4720  -30.5458  -50.1687 H         1 UNK         0.0600 
    214 H214       -4.9207  -30.9405  -49.4476 H         1 UNK         0.0600 
    215 H215       -4.6550  -26.3617  -50.4305 H         1 UNK         0.3000 
    216 H216       -6.5872  -26.0033  -52.6884 H         1 UNK         0.0600 
    217 H217       -4.9517  -24.2946  -53.4931 H         1 UNK         0.0600 
    218 H218       -4.1606  -25.8567  -53.3597 H         1 UNK         0.0600 
    219 H219       -3.8933  -24.6258  -52.1280 H         1 UNK         0.0600 
    220 H220       -7.2324  -23.6620  -52.8703 H         1 UNK         0.3000 
    221 H221       -8.0848  -22.4946  -50.3082 H         1 UNK         0.0600 
    222 H222       -8.4473  -21.5723  -53.2195 H         1 UNK         0.0600 
    223 H223       -9.6232  -22.4983  -52.2870 H         1 UNK         0.0600 
    224 H224       -9.2220  -20.8565  -51.8112 H         1 UNK         0.0600 
    225 H225       -7.3811  -20.4149  -49.5871 H         1 UNK         0.3000 
    226 H226       -4.6484  -19.7912  -49.8735 H         1 UNK         0.0600 
    227 H227       -6.0400  -19.2192  -47.8805 H         1 UNK         0.0600 
    228 H228       -5.2078  -17.8041  -48.5053 H         1 UNK         0.0600 
    229 H229       -6.9240  -18.0254  -48.8288 H         1 UNK         0.0600 
    230 H230       -7.4240  -18.6042  -51.6842 H         1 UNK         0.3000 
    231 H231       -6.1145  -16.4061  -53.0097 H         1 UNK         0.0600 
    232 H232       -8.1567  -16.4696  -54.4463 H         1 UNK         0.0600 
    233 H233       -8.5828  -16.5422  -52.7446 H         1 UNK         0.0600 
    234 H234       -8.6317  -18.0050  -53.7301 H         1 UNK         0.0600 
    235 H235       -5.9331  -19.8576  -53.4675 H         1 UNK         0.3000 
    236 H236       -5.0895  -19.6561  -56.3060 H         1 UNK         0.0600 
    237 H237       -6.7909  -21.3821  -55.6470 H         1 UNK         0.0600 
    238 H238       -5.3189  -22.1004  -56.2793 H         1 UNK         0.0600 
    239 H239       -5.6181  -22.1075  -54.5489 H         1 UNK         0.0600 
    240 H240       -3.6296  -19.2435  -53.3607 H         1 UNK         0.3000 
    241 H241       -1.3121  -20.8627  -53.5037 H         1 UNK         0.0600 
    242 H242        0.6924  -20.6123  -54.5946 H         1 UNK         0.3800 
    243 H243        1.0609  -19.2353  -55.5933 H         1 UNK         0.3800 
    244 H244       -1.4157  -18.1250  -52.1263 H         1 UNK         0.0800 
    245 H245       -2.2788  -19.4927  -51.4995 H         1 UNK         0.0800 
    246 H246        1.7972  -18.7865  -52.4787 H         1 UNK         0.0800 
    247 H247        0.8040  -17.6191  -51.6349 H         1 UNK         0.0800 
@<TRIPOS>BOND
     1    1    2 1    
     2    1  127 1    
     3    1  128 1    
     4    1  129 1    
     5    2    3 2    
     6    2    4 am   BACKBONE|DICT|INTERRES
     7    4    5 1    
     8    4  130 1    
     9    5    6 1    
    10    5   65 1    
    11    5  131 1    
    12    6    7 1    
    13    6  132 1    
    14    6  133 1    
    15    7    8 1    
    16    8    9 1    
    17    8  134 1    
    18    8  135 1    
    19    9   10 ar   
    20    9   14 ar   
    21   10   11 ar   
    22   10  136 1    
    23   11   12 ar   
    24   11  126 1    
    25   12   13 ar   
    26   12  137 1    
    27   13   14 ar   
    28   13   15 1    
    29   14  138 1    
    30   15   16 1    
    31   15  139 1    
    32   15  140 1    
    33   16   17 1    
    34   17   18 1    
    35   17  141 1    
    36   17  142 1    
    37   18   19 1    
    38   18   67 1    
    39   18  143 1    
    40   19   20 am   BACKBONE|DICT|INTERRES
    41   19  144 1    
    42   20   21 2    
    43   20   22 1    
    44   22   23 1    
    45   22   24 1    
    46   22  145 1    
    47   23  146 1    
    48   23  147 1    
    49   23  148 1    
    50   24   25 am   BACKBONE|DICT|INTERRES
    51   24  149 1    
    52   25   26 2    
    53   25   27 1    
    54   27   28 1    
    55   27   29 1    
    56   27  150 1    
    57   28  151 1    
    58   28  152 1    
    59   28  153 1    
    60   29   30 am   BACKBONE|DICT|INTERRES
    61   29  154 1    
    62   30   31 2    
    63   30   32 1    
    64   32   33 1    
    65   32   34 1    
    66   32  155 1    
    67   33  156 1    
    68   33  157 1    
    69   33  158 1    
    70   34   35 am   BACKBONE|DICT|INTERRES
    71   34  159 1    
    72   35   36 2    
    73   35   37 1    
    74   37   38 1    
    75   37   39 1    
    76   37  160 1    
    77   38  161 1    
    78   38  162 1    
    79   38  163 1    
    80   39   40 am   BACKBONE|DICT|INTERRES
    81   39  164 1    
    82   40   41 2    
    83   40   42 1    
    84   42   43 1    
    85   42   44 1    
    86   42  165 1    
    87   43  166 1    
    88   43  167 1    
    89   43  168 1    
    90   44   45 am   BACKBONE|DICT|INTERRES
    91   44  169 1    
    92   45   46 2    
    93   45   47 1    
    94   47   48 1    
    95   47   49 1    
    96   47  170 1    
    97   48  171 1    
    98   48  172 1    
    99   48  173 1    
   100   49   50 am   BACKBONE|DICT|INTERRES
   101   49  174 1    
   102   50   51 2    
   103   50   52 1    
   104   52   53 1    
   105   52   54 1    
   106   52  175 1    
   107   53  176 1    
   108   53  177 1    
   109   53  178 1    
   110   54   55 am   BACKBONE|DICT|INTERRES
   111   54  179 1    
   112   55   56 2    
   113   55   57 1    
   114   57   58 1    
   115   57   59 1    
   116   57  180 1    
   117   58  181 1    
   118   58  182 1    
   119   58  183 1    
   120   59   60 am   BACKBONE|DICT|INTERRES
   121   59  184 1    
   122   60   61 2    
   123   60   62 1    
   124   62   63 1    
   125   62   64 1    
   126   62  185 1    
   127   63  186 1    
   128   63  187 1    
   129   63  188 1    
   130   64   65 am   BACKBONE|DICT|INTERRES
   131   64  189 1    
   132   65   66 2    
   133   67   68 2    
   134   67   69 am   BACKBONE|DICT|INTERRES
   135   69   70 1    
   136   69  190 1    
   137   70   71 1    
   138   70   72 1    
   139   70  191 1    
   140   71  192 1    
   141   71  193 1    
   142   71  194 1    
   143   72   73 2    
   144   72   74 am   BACKBONE|DICT|INTERRES
   145   74   75 1    
   146   74  195 1    
   147   75   76 1    
   148   75   77 1    
   149   75  196 1    
   150   76  197 1    
   151   76  198 1    
   152   76  199 1    
   153   77   78 2    
   154   77   79 am   BACKBONE|DICT|INTERRES
   155   79   80 1    
   156   79  200 1    
   157   80   81 1    
   158   80   82 1    
   159   80  201 1    
   160   81  202 1    
   161   81  203 1    
   162   81  204 1    
   163   82   83 2    
   164   82   84 am   BACKBONE|DICT|INTERRES
   165   84   85 1    
   166   84  205 1    
   167   85   86 1    
   168   85   87 1    
   169   85  206 1    
   170   86  207 1    
   171   86  208 1    
   172   86  209 1    
   173   87   88 2    
   174   87   89 am   BACKBONE|DICT|INTERRES
   175   89   90 1    
   176   89  210 1    
   177   90   91 1    
   178   90   92 1    
   179   90  211 1    
   180   91  212 1    
   181   91  213 1    
   182   91  214 1    
   183   92   93 2    
   184   92   94 am   BACKBONE|DICT|INTERRES
   185   94   95 1    
   186   94  215 1    
   187   95   96 1    
   188   95   97 1    
   189   95  216 1    
   190   96  217 1    
   191   96  218 1    
   192   96  219 1    
   193   97   98 2    
   194   97   99 am   BACKBONE|DICT|INTERRES
   195   99  100 1    
   196   99  220 1    
   197  100  101 1    
   198  100  102 1    
   199  100  221 1    
   200  101  222 1    
   201  101  223 1    
   202  101  224 1    
   203  102  103 2    
   204  102  104 am   BACKBONE|DICT|INTERRES
   205  104  105 1    
   206  104  225 1    
   207  105  106 1    
   208  105  107 1    
   209  105  226 1    
   210  106  227 1    
   211  106  228 1    
   212  106  229 1    
   213  107  108 2    
   214  107  109 am   BACKBONE|DICT|INTERRES
   215  109  110 1    
   216  109  230 1    
   217  110  111 1    
   218  110  112 1    
   219  110  231 1    
   220  111  232 1    
   221  111  233 1    
   222  111  234 1    
   223  112  113 2    
   224  112  114 am   BACKBONE|DICT|INTERRES
   225  114  115 1    
   226  114  235 1    
   227  115  116 1    
   228  115  117 1    
   229  115  236 1    
   230  116  237 1    
   231  116  238 1    
   232  116  239 1    
   233  117  118 2    
   234  117  119 am   BACKBONE|DICT|INTERRES
   235  119  120 1    
   236  119  240 1    
   237  120  121 1    
   238  120  124 1    
   239  120  241 1    
   240  121  122 am   BACKBONE|DICT|INTERRES
   241  121  123 2    
   242  122  242 1    
   243  122  243 1    
   244  124  125 1    
   245  124  244 1    
   246  124  245 1    
   247  125  126 1    
   248  126  246 1    
   249  126  247 1    
@<TRIPOS>SUBSTRUCTURE
     1 UNK         1 GROUP             0       ****    0 ROOT    
