@<TRIPOS>MOLECULE
3R540
247   249    1
SMALL
USER_CHARGES


@<TRIPOS>ATOM
      1 CA         -1.0149  -18.4350  -51.9466 C.3       0 UNK        -0.1800 
      2 C          -1.0427  -16.9916  -51.4795 C.2       0 UNK         0.5000 
      3 O          -1.8730  -16.2104  -51.9425 O.2       0 UNK        -0.5000 
      4 N          -0.1227  -16.6455  -50.5758 N.am      1 UNK        -0.5000 
      5 CA         -0.0267  -15.3357  -49.9278 C.3       1 UNK         0.1400 
      6 C6          1.3656  -15.1402  -49.2865 C.3       23 UNK        -0.0398 
      7 S7          2.6911  -14.9637  -50.5245 S.3       23 UNK        -0.2404 
      8 C8          3.7539  -16.4088  -50.1827 C.3       23 UNK        -0.0205 
      9 C9          3.2769  -17.6947  -50.8519 C.ar      23 UNK        -0.0193 
     10 C10         2.9399  -17.7042  -52.2090 C.ar      23 UNK        -0.1150 
     11 C11         2.5499  -18.8881  -52.8473 C.ar      23 UNK        -0.0193 
     12 C12         2.5217  -20.0719  -52.1053 C.ar      23 UNK        -0.1150 
     13 C13         2.8852  -20.0956  -50.7562 C.ar      23 UNK        -0.0193 
     14 C14         3.2507  -18.8939  -50.1329 C.ar      23 UNK        -0.1150 
     15 C15         2.9421  -21.4533  -50.0507 C.3       23 UNK        -0.0205 
     16 S16         2.9351  -21.4033  -48.2276 S.3       23 UNK        -0.2404 
     17 C17         1.1837  -21.0345  -47.8870 C.3       23 UNK        -0.0398 
     18 CA          0.5352  -22.0826  -46.9518 C.3       11 UNK         0.1400 
     19 N           1.2325  -22.1727  -45.6641 N.am      11 UNK        -0.5000 
     20 C           1.1276  -23.1969  -44.8079 C.2       10 UNK         0.5000 
     21 O           0.2450  -24.0519  -44.8925 O.2       10 UNK        -0.5000 
     22 CA          2.2047  -23.3182  -43.7058 C.3       10 UNK         0.1400 
     23 CB          3.4635  -22.4706  -43.9614 C.3       10 UNK        -0.1800 
     24 N           1.6507  -22.9581  -42.4077 N.am      10 UNK        -0.5000 
     25 C           0.9390  -23.7766  -41.6239 C.2       9 UNK         0.5000 
     26 O           0.8550  -24.9923  -41.8023 O.2       9 UNK        -0.5000 
     27 CA          0.1832  -23.1391  -40.4378 C.3       9 UNK         0.1400 
     28 CB          0.8871  -23.4718  -39.1130 C.3       9 UNK        -0.1800 
     29 N           0.0087  -21.6854  -40.5188 N.am      9 UNK        -0.5000 
     30 C          -0.5797  -20.9918  -41.5041 C.2       8 UNK         0.5000 
     31 O          -1.0702  -21.5092  -42.5079 O.2       8 UNK        -0.5000 
     32 CA         -0.5864  -19.4556  -41.3582 C.3       8 UNK         0.1400 
     33 CB         -0.6938  -18.9871  -39.8919 C.3       8 UNK        -0.1800 
     34 N           0.5528  -18.7993  -42.0085 N.am      8 UNK        -0.5000 
     35 C           1.8626  -19.0574  -41.8499 C.2       7 UNK         0.5000 
     36 O           2.3071  -19.9914  -41.1812 O.2       7 UNK        -0.5000 
     37 CA          2.8410  -18.0767  -42.5283 C.3       7 UNK         0.1400 
     38 CB          4.2632  -18.6423  -42.7225 C.3       7 UNK        -0.1800 
     39 N           2.3286  -17.5079  -43.7746 N.am      7 UNK        -0.5000 
     40 C           2.0005  -18.1593  -44.9006 C.2       6 UNK         0.5000 
     41 O           2.1030  -19.3783  -45.0396 O.2       6 UNK        -0.5000 
     42 CA          1.4479  -17.3134  -46.0676 C.3       6 UNK         0.1400 
     43 CB          0.0516  -17.7960  -46.5132 C.3       6 UNK        -0.1800 
     44 N           1.3667  -15.8880  -45.7417 N.am      6 UNK        -0.5000 
     45 C           2.3605  -14.9957  -45.8458 C.2       5 UNK         0.5000 
     46 O           3.4443  -15.2395  -46.3736 O.2       5 UNK        -0.5000 
     47 CA          2.1046  -13.6066  -45.2248 C.3       5 UNK         0.1400 
     48 CB          1.7074  -12.5873  -46.3024 C.3       5 UNK        -0.1800 
     49 N           1.0703  -13.6380  -44.1852 N.am      5 UNK        -0.5000 
     50 C           1.2388  -14.1803  -42.9696 C.2       4 UNK         0.5000 
     51 O           2.3055  -14.6554  -42.5820 O.2       4 UNK        -0.5000 
     52 CA         -0.0033  -14.2788  -42.0643 C.3       4 UNK         0.1400 
     53 CB         -0.1577  -13.0081  -41.2164 C.3       4 UNK        -0.1800 
     54 N          -1.2356  -14.5088  -42.8189 N.am      4 UNK        -0.5000 
     55 C          -1.5052  -15.6050  -43.5401 C.2       3 UNK         0.5000 
     56 O          -0.7614  -16.5858  -43.5849 O.2       3 UNK        -0.5000 
     57 CA         -2.8095  -15.5981  -44.3635 C.3       3 UNK         0.1400 
     58 CB         -3.9653  -14.8828  -43.6338 C.3       3 UNK        -0.1800 
     59 N          -2.6674  -15.0597  -45.7249 N.am      3 UNK        -0.5000 
     60 C          -2.1756  -13.8713  -46.1057 C.2       2 UNK         0.5000 
     61 O          -1.5670  -13.1024  -45.3592 O.2       2 UNK        -0.5000 
     62 CA         -2.4349  -13.4604  -47.5707 C.3       2 UNK         0.1400 
     63 CB         -2.6242  -11.9392  -47.7051 C.3       2 UNK        -0.1800 
     64 N          -1.3701  -13.8760  -48.4825 N.am      2 UNK        -0.5000 
     65 C          -1.1567  -15.1326  -48.8900 C.2       1 UNK         0.5000 
     66 O          -1.8144  -16.0908  -48.4813 O.2       1 UNK        -0.5000 
     67 C          -0.9828  -21.8417  -46.8304 C.2       11 UNK         0.5000 
     68 O          -1.7209  -22.2327  -47.7378 O.2       11 UNK        -0.5000 
     69 N          -1.4391  -21.2143  -45.7366 N.am      12 UNK        -0.5000 
     70 CA         -2.8617  -20.9473  -45.5194 C.3       12 UNK         0.1400 
     71 CB         -3.0588  -19.7680  -44.5556 C.3       12 UNK        -0.1800 
     72 C          -3.6019  -22.2111  -45.0569 C.2       12 UNK         0.5000 
     73 O          -4.6569  -22.5269  -45.6061 O.2       12 UNK        -0.5000 
     74 N          -3.0043  -22.9522  -44.1140 N.am      13 UNK        -0.5000 
     75 CA         -3.4957  -24.2516  -43.6469 C.3       13 UNK         0.1400 
     76 CB         -2.7214  -24.6698  -42.3931 C.3       13 UNK        -0.1800 
     77 C          -3.4192  -25.3482  -44.7273 C.2       13 UNK         0.5000 
     78 O          -4.2745  -26.2333  -44.7523 O.2       13 UNK        -0.5000 
     79 N          -2.4346  -25.2418  -45.6321 N.am      14 UNK        -0.5000 
     80 CA         -2.3058  -26.0670  -46.8377 C.3       14 UNK         0.1400 
     81 CB         -0.8787  -25.9288  -47.3897 C.3       14 UNK        -0.1800 
     82 C          -3.3414  -25.7317  -47.9349 C.2       14 UNK         0.5000 
     83 O          -3.3965  -26.4421  -48.9390 O.2       14 UNK        -0.5000 
     84 N          -4.1298  -24.6643  -47.7333 N.am      15 UNK        -0.5000 
     85 CA         -5.2076  -24.1595  -48.5879 C.3       15 UNK         0.1400 
     86 CB         -6.3017  -25.2248  -48.8101 C.3       15 UNK        -0.1800 
     87 C          -4.7274  -23.5173  -49.9035 C.2       15 UNK         0.5000 
     88 O          -5.5511  -23.2684  -50.7848 O.2       15 UNK        -0.5000 
     89 N          -3.4313  -23.1867  -50.0072 N.am      16 UNK        -0.5000 
     90 CA         -2.8720  -22.4562  -51.1471 C.3       16 UNK         0.1400 
     91 CB         -1.3372  -22.4976  -51.1041 C.3       16 UNK        -0.1800 
     92 C          -3.3817  -21.0065  -51.1853 C.2       16 UNK         0.5000 
     93 O          -3.6872  -20.4982  -52.2638 O.2       16 UNK        -0.5000 
     94 N          -3.5140  -20.3893  -50.0009 N.am      17 UNK        -0.5000 
     95 CA         -4.1009  -19.0595  -49.8169 C.3       17 UNK         0.1400 
     96 CB         -3.8636  -18.5868  -48.3757 C.3       17 UNK        -0.1800 
     97 C          -5.6054  -19.0274  -50.1433 C.2       17 UNK         0.5000 
     98 O          -6.0830  -18.0387  -50.6976 O.2       17 UNK        -0.5000 
     99 N          -6.3162  -20.1189  -49.8215 N.am      18 UNK        -0.5000 
    100 CA        -7.7389  -20.3036  -50.1193 C.3       18 UNK         0.1400 
    101 CB        -8.2887  -21.4820  -49.3013 C.3       18 UNK        -0.1800 
    102 C         -7.9930  -20.5080  -51.6239 C.2       18 UNK         0.5000 
    103 O         -8.9600  -19.9645  -52.1583 O.2       18 UNK        -0.5000 
    104 N         -7.0926  -21.2481  -52.2864 N.am      19 UNK        -0.5000 
    105 CA        -7.0471  -21.4095  -53.7417 C.3       19 UNK         0.1400 
    106 CB        -6.1257  -22.5928  -54.0771 C.3       19 UNK        -0.1800 
    107 C         -6.5741  -20.1389  -54.4799 C.2       19 UNK         0.5000 
    108 O         -6.7965  -20.0271  -55.6859 O.2       19 UNK        -0.5000 
    109 N         -5.9261  -19.2227  -53.7446 N.am      20 UNK        -0.5000 
    110 CA        -5.3009  -17.9759  -54.1896 C.3       20 UNK         0.1400 
    111 CB        -6.3591  -16.9786  -54.7035 C.3       20 UNK        -0.1800 
    112 C         -4.1594  -18.2310  -55.1927 C.2       20 UNK         0.5000 
    113 O         -4.0620  -17.5443  -56.2117 O.2       20 UNK        -0.5000 
    114 N         -3.3086  -19.2184  -54.8745 N.am      21 UNK        -0.5000 
    115 CA        -2.2192  -19.7293  -55.7159 C.3       21 UNK         0.1400 
    116 CB        -1.5312  -20.8887  -54.9777 C.3       21 UNK        -0.1800 
    117 C         -1.1788  -18.6790  -56.1625 C.2       21 UNK         0.5000 
    118 O         -0.5599  -18.8542  -57.2125 O.2       21 UNK        -0.5000 
    119 N         -1.0235  -17.6120  -55.3719 N.am      22 UNK        -0.5000 
    120 CA        -0.2058  -16.4252  -55.6667 C.3       22 UNK         0.1400 
    121 C         -1.0567  -15.1187  -55.6351 C.2       22 UNK         0.5000 
    122 N         -2.3761  -15.1793  -55.7802 N.am      22 UNK        -0.7600 
    123 O         -0.5196  -14.0222  -55.5052 O.2       22 UNK        -0.5000 
    124 C124        1.0497  -16.3603  -54.7522 C.3       23 UNK        -0.0398 
    125 S125        2.3969  -17.4525  -55.3252 S.3       23 UNK        -0.2404 
    126 C126        2.1628  -18.9645  -54.3272 C.3       23 UNK        -0.0205 
    127 H127       -1.9341  -18.6711  -52.4763 H         1 UNK         0.0600 
    128 H128       -0.9134  -19.1188  -51.1038 H         1 UNK         0.0600 
    129 H129       -0.1845  -18.5974  -52.6271 H         1 UNK         0.0600 
    130 H130        0.5391  -17.3378  -50.2586 H         1 UNK         0.3000 
    131 H131       -0.1613  -14.5706  -50.6958 H         1 UNK         0.0600 
    132 H132        1.3932  -14.2356  -48.6800 H         1 UNK         0.0800 
    133 H133        1.5941  -15.9663  -48.6156 H         1 UNK         0.0800 
    134 H134        4.7551  -16.1898  -50.5556 H         1 UNK         0.0800 
    135 H135        3.8560  -16.5374  -49.1037 H         1 UNK         0.0800 
    136 H136        2.9979  -16.7777  -52.7593 H         1 UNK         0.1150 
    137 H137        2.2423  -20.9949  -52.5947 H         1 UNK         0.1150 
    138 H138        3.5569  -18.8892  -49.0971 H         1 UNK         0.1150 
    139 H139        3.8585  -21.9531  -50.3669 H         1 UNK         0.0800 
    140 H140        2.1195  -22.0860  -50.3885 H         1 UNK         0.0800 
    141 H141        0.6395  -20.9634  -48.8295 H         1 UNK         0.0800 
    142 H142        1.1462  -20.0436  -47.4458 H         1 UNK         0.0800 
    143 H143        0.6481  -23.0525  -47.4388 H         1 UNK         0.0600 
    144 H144        1.9215  -21.4489  -45.4899 H         1 UNK         0.3000 
    145 H145        2.5180  -24.3640  -43.6879 H         1 UNK         0.0600 
    146 H146        3.8907  -22.6771  -44.9438 H         1 UNK         0.0600 
    147 H147        4.2349  -22.6863  -43.2220 H         1 UNK         0.0600 
    148 H148        3.2463  -21.4065  -43.9056 H         1 UNK         0.0600 
    149 H149        1.6761  -21.9770  -42.1597 H         1 UNK         0.3000 
    150 H150       -0.8114  -23.5847  -40.4127 H         1 UNK         0.0600 
    151 H151        1.8802  -23.0232  -39.0643 H         1 UNK         0.0600 
    152 H152        1.0069  -24.5493  -38.9916 H         1 UNK         0.0600 
    153 H153        0.3129  -23.1129  -38.2587 H         1 UNK         0.0600 
    154 H154        0.4433  -21.1522  -39.7796 H         1 UNK         0.3000 
    155 H155       -1.4776  -19.1000  -41.8759 H         1 UNK         0.0600 
    156 H156        0.2116  -19.1966  -39.3214 H         1 UNK         0.0600 
    157 H157       -1.5278  -19.4728  -39.3835 H         1 UNK         0.0600 
    158 H158       -0.8696  -17.9124  -39.8423 H         1 UNK         0.0600 
    159 H159        0.2991  -18.0309  -42.6225 H         1 UNK         0.3000 
    160 H160        2.9268  -17.2401  -41.8340 H         1 UNK         0.0600 
    161 H161        4.2849  -19.4680  -43.4311 H         1 UNK         0.0600 
    162 H162        4.6776  -19.0054  -41.7814 H         1 UNK         0.0600 
    163 H163        4.9391  -17.8723  -43.0941 H         1 UNK         0.0600 
    164 H164        2.1969  -16.5054  -43.7549 H         1 UNK         0.3000 
    165 H165        2.1422  -17.4639  -46.8964 H         1 UNK         0.0600 
    166 H166       -0.0079  -17.8505  -47.5997 H         1 UNK         0.0600 
    167 H167       -0.1964  -18.7837  -46.1286 H         1 UNK         0.0600 
    168 H168       -0.7458  -17.1344  -46.1802 H         1 UNK         0.0600 
    169 H169        0.5278  -15.6060  -45.2539 H         1 UNK         0.3000 
    170 H170        3.0404  -13.2728  -44.7716 H         1 UNK         0.0600 
    171 H171        1.5961  -11.5898  -45.8770 H         1 UNK         0.0600 
    172 H172        0.7646  -12.8512  -46.7799 H         1 UNK         0.0600 
    173 H173        2.4678  -12.5245  -47.0819 H         1 UNK         0.0600 
    174 H174        0.1482  -13.2991  -44.4487 H         1 UNK         0.3000 
    175 H175        0.1426  -15.1264  -41.3911 H         1 UNK         0.0600 
    176 H176        0.7399  -12.8216  -40.6254 H         1 UNK         0.0600 
    177 H177       -0.3314  -12.1283  -41.8375 H         1 UNK         0.0600 
    178 H178       -0.9915  -13.0979  -40.5199 H         1 UNK         0.0600 
    179 H179       -1.8768  -13.7311  -42.8825 H         1 UNK         0.3000 
    180 H180       -3.0993  -16.6431  -44.4779 H         1 UNK         0.0600 
    181 H181       -3.8144  -13.8044  -43.5755 H         1 UNK         0.0600 
    182 H182       -4.0806  -15.2576  -42.6158 H         1 UNK         0.0600 
    183 H183       -4.9117  -15.0530  -44.1472 H         1 UNK         0.0600 
    184 H184       -3.0358  -15.6513  -46.4585 H         1 UNK         0.3000 
    185 H185       -3.3665  -13.9323  -47.8912 H         1 UNK         0.0600 
    186 H186       -3.4082  -11.5826  -47.0359 H         1 UNK         0.0600 
    187 H187       -1.7116  -11.3937  -47.4608 H         1 UNK         0.0600 
    188 H188       -2.9161  -11.6662  -48.7194 H         1 UNK         0.0600 
    189 H189       -0.7931  -13.1339  -48.8502 H         1 UNK         0.3000 
    190 H190       -0.7973  -20.9771  -44.9923 H         1 UNK         0.3000 
    191 H191       -3.2945  -20.6544  -46.4752 H         1 UNK         0.0600 
    192 H192       -2.4027  -18.9351  -44.8071 H         1 UNK         0.0600 
    193 H193       -4.0849  -19.4024  -44.6052 H         1 UNK         0.0600 
    194 H194       -2.8716  -20.0458  -43.5210 H         1 UNK         0.0600 
    195 H195       -2.1540  -22.5980  -43.6836 H         1 UNK         0.3000 
    196 H196       -4.5458  -24.1331  -43.3719 H         1 UNK         0.0600 
    197 H197       -3.0943  -25.6154  -41.9979 H         1 UNK         0.0600 
    198 H198       -2.8208  -23.9236  -41.6052 H         1 UNK         0.0600 
    199 H199       -1.6626  -24.7994  -42.6128 H         1 UNK         0.0600 
    200 H200       -1.7182  -24.5386  -45.4856 H         1 UNK         0.3000 
    201 H201       -2.4599  -27.1101  -46.5544 H         1 UNK         0.0600 
    202 H202       -0.7176  -26.6018  -48.2328 H         1 UNK         0.0600 
    203 H203       -0.1338  -26.1755  -46.6331 H         1 UNK         0.0600 
    204 H204       -0.6844  -24.9162  -47.7402 H         1 UNK         0.0600 
    205 H205       -3.9931  -24.1363  -46.8800 H         1 UNK         0.3000 
    206 H206       -5.6670  -23.3475  -48.0234 H         1 UNK         0.0600 
    207 H207       -6.6302  -25.6554  -47.8641 H         1 UNK         0.0600 
    208 H208       -7.1803  -24.7922  -49.2892 H         1 UNK         0.0600 
    209 H209       -5.9556  -26.0378  -49.4484 H         1 UNK         0.0600 
    210 H210       -2.8192  -23.3402  -49.2145 H         1 UNK         0.3000 
    211 H211       -3.1981  -22.9509  -52.0644 H         1 UNK         0.0600 
    212 H212       -0.9702  -23.5236  -51.0756 H         1 UNK         0.0600 
    213 H213       -0.9103  -22.0233  -51.9884 H         1 UNK         0.0600 
    214 H214       -0.9419  -21.9758  -50.2345 H         1 UNK         0.0600 
    215 H215       -3.2129  -20.8822  -49.1712 H         1 UNK         0.3000 
    216 H216       -3.5948  -18.3676  -50.4924 H         1 UNK         0.0600 
    217 H217       -4.4608  -19.1535  -47.6619 H         1 UNK         0.0600 
    218 H218       -4.1447  -17.5388  -48.2663 H         1 UNK         0.0600 
    219 H219       -2.8138  -18.6713  -48.0929 H         1 UNK         0.0600 
    220 H220       -5.8388  -20.8927  -49.3870 H         1 UNK         0.3000 
    221 H221       -8.2704  -19.4009  -49.8105 H         1 UNK         0.0600 
    222 H222       -7.8165  -22.4237  -49.5786 H         1 UNK         0.0600 
    223 H223       -8.1339  -21.3292  -48.2331 H         1 UNK         0.0600 
    224 H224       -9.3615  -21.5969  -49.4608 H         1 UNK         0.0600 
    225 H225       -6.3753  -21.7348  -51.7578 H         1 UNK         0.3000 
    226 H226       -8.0530  -21.6443  -54.0955 H         1 UNK         0.0600 
    227 H227       -6.4700  -23.5096  -53.5980 H         1 UNK         0.0600 
    228 H228       -6.0993  -22.7769  -55.1518 H         1 UNK         0.0600 
    229 H229       -5.1016  -22.4092  -53.7503 H         1 UNK         0.0600 
    230 H230       -5.7669  -19.4551  -52.7740 H         1 UNK         0.3000 
    231 H231       -4.8359  -17.5357  -53.3060 H         1 UNK         0.0600 
    232 H232       -6.8340  -17.3250  -55.6217 H         1 UNK         0.0600 
    233 H233       -5.9091  -16.0079  -54.9147 H         1 UNK         0.0600 
    234 H234       -7.1406  -16.8189  -53.9605 H         1 UNK         0.0600 
    235 H235       -3.4722  -19.7188  -54.0040 H         1 UNK         0.3000 
    236 H236       -2.6778  -20.1286  -56.6225 H         1 UNK         0.0600 
    237 H237       -1.0861  -20.5597  -54.0389 H         1 UNK         0.0600 
    238 H238       -2.2386  -21.6864  -54.7494 H         1 UNK         0.0600 
    239 H239       -0.7355  -21.3236  -55.5840 H         1 UNK         0.0600 
    240 H240       -1.6053  -17.5402  -54.5502 H         1 UNK         0.3000 
    241 H241        0.1402  -16.4730  -56.7007 H         1 UNK         0.0600 
    242 H242       -2.9066  -14.3229  -55.7674 H         1 UNK         0.3800 
    243 H243       -2.8508  -16.0560  -55.9724 H         1 UNK         0.3800 
    244 H244        0.7890  -16.5812  -53.7184 H         1 UNK         0.0800 
    245 H245        1.4776  -15.3570  -54.7369 H         1 UNK         0.0800 
    246 H246        1.1279  -19.2913  -54.4132 H         1 UNK         0.0800 
    247 H247        2.7618  -19.7490  -54.7919 H         1 UNK         0.0800 
@<TRIPOS>BOND
     1    1    2 1    
     2    1  127 1    
     3    1  128 1    
     4    1  129 1    
     5    2    3 2    
     6    2    4 am   BACKBONE|DICT|INTERRES
     7    4    5 1    
     8    4  130 1    
     9    5    6 1    
    10    5   65 1    
    11    5  131 1    
    12    6    7 1    
    13    6  132 1    
    14    6  133 1    
    15    7    8 1    
    16    8    9 1    
    17    8  134 1    
    18    8  135 1    
    19    9   10 ar   
    20    9   14 ar   
    21   10   11 ar   
    22   10  136 1    
    23   11   12 ar   
    24   11  126 1    
    25   12   13 ar   
    26   12  137 1    
    27   13   14 ar   
    28   13   15 1    
    29   14  138 1    
    30   15   16 1    
    31   15  139 1    
    32   15  140 1    
    33   16   17 1    
    34   17   18 1    
    35   17  141 1    
    36   17  142 1    
    37   18   19 1    
    38   18   67 1    
    39   18  143 1    
    40   19   20 am   BACKBONE|DICT|INTERRES
    41   19  144 1    
    42   20   21 2    
    43   20   22 1    
    44   22   23 1    
    45   22   24 1    
    46   22  145 1    
    47   23  146 1    
    48   23  147 1    
    49   23  148 1    
    50   24   25 am   BACKBONE|DICT|INTERRES
    51   24  149 1    
    52   25   26 2    
    53   25   27 1    
    54   27   28 1    
    55   27   29 1    
    56   27  150 1    
    57   28  151 1    
    58   28  152 1    
    59   28  153 1    
    60   29   30 am   BACKBONE|DICT|INTERRES
    61   29  154 1    
    62   30   31 2    
    63   30   32 1    
    64   32   33 1    
    65   32   34 1    
    66   32  155 1    
    67   33  156 1    
    68   33  157 1    
    69   33  158 1    
    70   34   35 am   BACKBONE|DICT|INTERRES
    71   34  159 1    
    72   35   36 2    
    73   35   37 1    
    74   37   38 1    
    75   37   39 1    
    76   37  160 1    
    77   38  161 1    
    78   38  162 1    
    79   38  163 1    
    80   39   40 am   BACKBONE|DICT|INTERRES
    81   39  164 1    
    82   40   41 2    
    83   40   42 1    
    84   42   43 1    
    85   42   44 1    
    86   42  165 1    
    87   43  166 1    
    88   43  167 1    
    89   43  168 1    
    90   44   45 am   BACKBONE|DICT|INTERRES
    91   44  169 1    
    92   45   46 2    
    93   45   47 1    
    94   47   48 1    
    95   47   49 1    
    96   47  170 1    
    97   48  171 1    
    98   48  172 1    
    99   48  173 1    
   100   49   50 am   BACKBONE|DICT|INTERRES
   101   49  174 1    
   102   50   51 2    
   103   50   52 1    
   104   52   53 1    
   105   52   54 1    
   106   52  175 1    
   107   53  176 1    
   108   53  177 1    
   109   53  178 1    
   110   54   55 am   BACKBONE|DICT|INTERRES
   111   54  179 1    
   112   55   56 2    
   113   55   57 1    
   114   57   58 1    
   115   57   59 1    
   116   57  180 1    
   117   58  181 1    
   118   58  182 1    
   119   58  183 1    
   120   59   60 am   BACKBONE|DICT|INTERRES
   121   59  184 1    
   122   60   61 2    
   123   60   62 1    
   124   62   63 1    
   125   62   64 1    
   126   62  185 1    
   127   63  186 1    
   128   63  187 1    
   129   63  188 1    
   130   64   65 am   BACKBONE|DICT|INTERRES
   131   64  189 1    
   132   65   66 2    
   133   67   68 2    
   134   67   69 am   BACKBONE|DICT|INTERRES
   135   69   70 1    
   136   69  190 1    
   137   70   71 1    
   138   70   72 1    
   139   70  191 1    
   140   71  192 1    
   141   71  193 1    
   142   71  194 1    
   143   72   73 2    
   144   72   74 am   BACKBONE|DICT|INTERRES
   145   74   75 1    
   146   74  195 1    
   147   75   76 1    
   148   75   77 1    
   149   75  196 1    
   150   76  197 1    
   151   76  198 1    
   152   76  199 1    
   153   77   78 2    
   154   77   79 am   BACKBONE|DICT|INTERRES
   155   79   80 1    
   156   79  200 1    
   157   80   81 1    
   158   80   82 1    
   159   80  201 1    
   160   81  202 1    
   161   81  203 1    
   162   81  204 1    
   163   82   83 2    
   164   82   84 am   BACKBONE|DICT|INTERRES
   165   84   85 1    
   166   84  205 1    
   167   85   86 1    
   168   85   87 1    
   169   85  206 1    
   170   86  207 1    
   171   86  208 1    
   172   86  209 1    
   173   87   88 2    
   174   87   89 am   BACKBONE|DICT|INTERRES
   175   89   90 1    
   176   89  210 1    
   177   90   91 1    
   178   90   92 1    
   179   90  211 1    
   180   91  212 1    
   181   91  213 1    
   182   91  214 1    
   183   92   93 2    
   184   92   94 am   BACKBONE|DICT|INTERRES
   185   94   95 1    
   186   94  215 1    
   187   95   96 1    
   188   95   97 1    
   189   95  216 1    
   190   96  217 1    
   191   96  218 1    
   192   96  219 1    
   193   97   98 2    
   194   97   99 am   BACKBONE|DICT|INTERRES
   195   99  100 1    
   196   99  220 1    
   197  100  101 1    
   198  100  102 1    
   199  100  221 1    
   200  101  222 1    
   201  101  223 1    
   202  101  224 1    
   203  102  103 2    
   204  102  104 am   BACKBONE|DICT|INTERRES
   205  104  105 1    
   206  104  225 1    
   207  105  106 1    
   208  105  107 1    
   209  105  226 1    
   210  106  227 1    
   211  106  228 1    
   212  106  229 1    
   213  107  108 2    
   214  107  109 am   BACKBONE|DICT|INTERRES
   215  109  110 1    
   216  109  230 1    
   217  110  111 1    
   218  110  112 1    
   219  110  231 1    
   220  111  232 1    
   221  111  233 1    
   222  111  234 1    
   223  112  113 2    
   224  112  114 am   BACKBONE|DICT|INTERRES
   225  114  115 1    
   226  114  235 1    
   227  115  116 1    
   228  115  117 1    
   229  115  236 1    
   230  116  237 1    
   231  116  238 1    
   232  116  239 1    
   233  117  118 2    
   234  117  119 am   BACKBONE|DICT|INTERRES
   235  119  120 1    
   236  119  240 1    
   237  120  121 1    
   238  120  124 1    
   239  120  241 1    
   240  121  122 am   BACKBONE|DICT|INTERRES
   241  121  123 2    
   242  122  242 1    
   243  122  243 1    
   244  124  125 1    
   245  124  244 1    
   246  124  245 1    
   247  125  126 1    
   248  126  246 1    
   249  126  247 1    
@<TRIPOS>SUBSTRUCTURE
     1 UNK         1 GROUP             0       ****    0 ROOT    
