@<TRIPOS>MOLECULE
3R540
247   249    1
SMALL
USER_CHARGES


@<TRIPOS>ATOM
      1 CA         -5.1638  -18.4325  -46.8025 C.3       0 UNK        -0.1800 
      2 C          -4.1376  -17.4674  -46.2234 C.2       0 UNK         0.5000 
      3 O          -4.4844  -16.6205  -45.4011 O.2       0 UNK        -0.5000 
      4 N          -2.8692  -17.6014  -46.6297 N.am      1 UNK        -0.5000 
      5 CA         -1.7401  -16.7234  -46.2825 C.3       1 UNK         0.1400 
      6 C6         -0.6258  -16.7969  -47.3599 C.3       23 UNK        -0.0398 
      7 S7         -1.1901  -16.1712  -48.9802 S.3       23 UNK        -0.2404 
      8 C8          0.3881  -16.0014  -49.8731 C.3       23 UNK        -0.0205 
      9 C9          0.9024  -17.3374  -50.3913 C.ar      23 UNK        -0.0193 
     10 C10         0.5616  -17.7718  -51.6764 C.ar      23 UNK        -0.1150 
     11 C11         1.0408  -18.9886  -52.1697 C.ar      23 UNK        -0.0193 
     12 C12         1.8660  -19.7754  -51.3607 C.ar      23 UNK        -0.1150 
     13 C13         2.2295  -19.3465  -50.0820 C.ar      23 UNK        -0.0193 
     14 C14         1.7404  -18.1284  -49.6001 C.ar      23 UNK        -0.1150 
     15 C15         3.1775  -20.1831  -49.2346 C.3       23 UNK        -0.0205 
     16 S16         2.5167  -21.8311  -48.8169 S.3       23 UNK        -0.2404 
     17 C17         0.8316  -21.4514  -48.2352 C.3       23 UNK        -0.0398 
     18 CA          0.1602  -22.6920  -47.6038 C.3       11 UNK         0.1400 
     19 N           0.7858  -23.1051  -46.3451 N.am      11 UNK        -0.5000 
     20 C           0.7104  -24.3451  -45.8418 C.2       10 UNK         0.5000 
     21 O           0.1757  -25.2870  -46.4263 O.2       10 UNK        -0.5000 
     22 CA          1.3057  -24.5674  -44.4377 C.3       10 UNK         0.1400 
     23 CB          2.7968  -24.9223  -44.5361 C.3       10 UNK        -0.1800 
     24 N           1.1442  -23.4101  -43.5550 N.am      10 UNK        -0.5000 
     25 C          -0.0318  -22.9511  -43.1024 C.2       9 UNK         0.5000 
     26 O          -1.1122  -23.4869  -43.3481 O.2       9 UNK        -0.5000 
     27 CA          0.0024  -21.6420  -42.2853 C.3       9 UNK         0.1400 
     28 CB          0.1540  -21.9408  -40.7873 C.3       9 UNK        -0.1800 
     29 N           1.0591  -20.7150  -42.7036 N.am      9 UNK        -0.5000 
     30 C           1.1801  -20.1988  -43.9331 C.2       8 UNK         0.5000 
     31 O           0.3881  -20.4315  -44.8499 O.2       8 UNK        -0.5000 
     32 CA          2.3987  -19.2950  -44.1650 C.3       8 UNK         0.1400 
     33 CB          2.6190  -18.9839  -45.6523 C.3       8 UNK        -0.1800 
     34 N           2.2352  -18.0393  -43.4466 N.am      8 UNK        -0.5000 
     35 C           2.7829  -17.7431  -42.2634 C.2       7 UNK         0.5000 
     36 O           3.4121  -18.5601  -41.5881 O.2       7 UNK        -0.5000 
     37 CA          2.5998  -16.2926  -41.7630 C.3       7 UNK         0.1400 
     38 CB          3.6431  -15.8864  -40.7024 C.3       7 UNK        -0.1800 
     39 N           2.5576  -15.2985  -42.8426 N.am      7 UNK        -0.5000 
     40 C           3.4934  -15.0510  -43.7729 C.2       6 UNK         0.5000 
     41 O           4.5706  -15.6435  -43.8427 O.2       6 UNK        -0.5000 
     42 CA          3.1831  -13.9423  -44.7922 C.3       6 UNK         0.1400 
     43 CB          2.2403  -14.4542  -45.8922 C.3       6 UNK        -0.1800 
     44 N           2.5814  -12.7755  -44.1465 N.am      6 UNK        -0.5000 
     45 C           3.0409  -11.5201  -44.2388 C.2       5 UNK         0.5000 
     46 O           4.0158  -11.1956  -44.9184 O.2       5 UNK        -0.5000 
     47 CA          2.2919  -10.4311  -43.4396 C.3       5 UNK         0.1400 
     48 CB          1.2980   -9.6900  -44.3471 C.3       5 UNK        -0.1800 
     49 N           1.5703  -10.9489  -42.2760 N.am      5 UNK        -0.5000 
     50 C           2.1441  -11.4929  -41.1948 C.2       4 UNK         0.5000 
     51 O           3.3614  -11.5132  -41.0098 O.2       4 UNK        -0.5000 
     52 CA          1.2145  -12.1467  -40.1507 C.3       4 UNK         0.1400 
     53 CB          1.0910  -11.2467  -38.9112 C.3       4 UNK        -0.1800 
     54 N          -0.1368  -12.5041  -40.6069 N.am      4 UNK        -0.5000 
     55 C          -0.4478  -13.2958  -41.6418 C.2       3 UNK         0.5000 
     56 O           0.3639  -13.6809  -42.4860 O.2       3 UNK        -0.5000 
     57 CA         -1.9240  -13.7100  -41.7716 C.3       3 UNK         0.1400 
     58 CB         -2.6664  -12.7435  -42.7062 C.3       3 UNK        -0.1800 
     59 N          -2.0631  -15.0709  -42.2919 N.am      3 UNK        -0.5000 
     60 C          -1.5803  -16.1819  -41.7148 C.2       2 UNK         0.5000 
     61 O          -1.0269  -16.1964  -40.6147 O.2       2 UNK        -0.5000 
     62 CA         -1.7498  -17.5061  -42.4845 C.3       2 UNK         0.1400 
     63 CB         -2.8460  -18.3608  -41.8291 C.3       2 UNK        -0.1800 
     64 N          -2.0694  -17.3129  -43.9018 N.am      2 UNK        -0.5000 
     65 C          -1.1931  -16.9526  -44.8489 C.2       1 UNK         0.5000 
     66 O           0.0028  -16.7813  -44.6133 O.2       1 UNK        -0.5000 
     67 C          -1.3435  -22.4510  -47.3984 C.2       11 UNK         0.5000 
     68 O          -2.1380  -22.8263  -48.2600 O.2       11 UNK        -0.5000 
     69 N          -1.7204  -21.8547  -46.2578 N.am      12 UNK        -0.5000 
     70 CA         -3.1093  -21.5928  -45.8736 C.3       12 UNK         0.1400 
     71 CB         -3.1362  -20.7707  -44.5832 C.3       12 UNK        -0.1800 
     72 C          -3.9560  -22.8691  -45.7200 C.2       12 UNK         0.5000 
     73 O          -5.1462  -22.8397  -46.0281 O.2       12 UNK        -0.5000 
     74 N          -3.3208  -23.9816  -45.3269 N.am      13 UNK        -0.5000 
     75 CA         -3.9093  -25.3241  -45.3066 C.3       13 UNK         0.1400 
     76 CB         -2.9226  -26.2923  -44.6373 C.3       13 UNK        -0.1800 
     77 C          -4.3185  -25.8436  -46.7035 C.2       13 UNK         0.5000 
     78 O          -5.2234  -26.6733  -46.7961 O.2       13 UNK        -0.5000 
     79 N          -3.6734  -25.3272  -47.7587 N.am      14 UNK        -0.5000 
     80 CA         -4.0047  -25.5625  -49.1658 C.3       14 UNK         0.1400 
     81 CB         -2.6970  -25.8039  -49.9408 C.3       14 UNK        -0.1800 
     82 C          -4.7986  -24.3853  -49.7750 C.2       14 UNK         0.5000 
     83 O          -5.0180  -24.3730  -50.9858 O.2       14 UNK        -0.5000 
     84 N          -5.1963  -23.4127  -48.9383 N.am      15 UNK        -0.5000 
     85 CA         -5.9086  -22.1714  -49.2603 C.3       15 UNK         0.1400 
     86 CB         -7.3405  -22.4639  -49.7499 C.3       15 UNK        -0.1800 
     87 C          -5.1193  -21.1802  -50.1457 C.2       15 UNK         0.5000 
     88 O          -5.7235  -20.2877  -50.7420 O.2       15 UNK        -0.5000 
     89 N          -3.7841  -21.3205  -50.1511 N.am      16 UNK        -0.5000 
     90 CA         -2.7536  -20.4180  -50.6754 C.3       16 UNK         0.1400 
     91 CB         -2.3164  -19.4699  -49.5422 C.3       16 UNK        -0.1800 
     92 C          -3.1196  -19.6818  -51.9856 C.2       16 UNK         0.5000 
     93 O          -3.4099  -20.3333  -52.9898 O.2       16 UNK        -0.5000 
     94 N          -3.0957  -18.3420  -51.9563 N.am      17 UNK        -0.5000 
     95 CA         -3.4092  -17.4580  -53.0779 C.3       17 UNK         0.1400 
     96 CB         -3.0054  -16.0225  -52.7040 C.3       17 UNK        -0.1800 
     97 C          -4.8888  -17.4836  -53.5057 C.2       17 UNK         0.5000 
     98 O          -5.1738  -17.2019  -54.6694 O.2       17 UNK        -0.5000 
     99 N          -5.8013  -17.8073  -52.5774 N.am      18 UNK        -0.5000 
    100 CA        -7.2460  -17.8308  -52.8205 C.3       18 UNK         0.1400 
    101 CB        -8.0041  -17.8321  -51.4836 C.3       18 UNK        -0.1800 
    102 C         -7.6667  -19.0196  -53.7008 C.2       18 UNK         0.5000 
    103 O         -8.4716  -18.8440  -54.6162 O.2       18 UNK        -0.5000 
    104 N         -7.0836  -20.1952  -53.4335 N.am      19 UNK        -0.5000 
    105 CA        -7.2411  -21.3968  -54.2584 C.3       19 UNK         0.1400 
    106 CB        -7.0800  -22.6375  -53.3726 C.3       19 UNK        -0.1800 
    107 C         -6.2578  -21.4464  -55.4431 C.2       19 UNK         0.5000 
    108 O         -6.4202  -22.2958  -56.3200 O.2       19 UNK        -0.5000 
    109 N         -5.2611  -20.5496  -55.4407 N.am      20 UNK        -0.5000 
    110 CA        -4.1489  -20.4454  -56.3868 C.3       20 UNK         0.1400 
    111 CB        -4.6466  -20.0921  -57.8037 C.3       20 UNK        -0.1800 
    112 C         -3.2453  -21.6932  -56.3440 C.2       20 UNK         0.5000 
    113 O         -2.8981  -22.2547  -57.3850 O.2       20 UNK        -0.5000 
    114 N         -2.8559  -22.0882  -55.1228 N.am      21 UNK        -0.5000 
    115 CA        -1.9850  -23.2313  -54.8214 C.3       21 UNK         0.1400 
    116 CB        -1.8958  -23.3961  -53.2952 C.3       21 UNK        -0.1800 
    117 C         -0.5735  -23.1186  -55.4368 C.2       21 UNK         0.5000 
    118 O          0.0874  -24.1370  -55.6426 O.2       21 UNK        -0.5000 
    119 N         -0.1582  -21.8836  -55.7404 N.am      22 UNK        -0.5000 
    120 CA         1.0494  -21.5417  -56.5036 C.3       22 UNK         0.1400 
    121 C          0.9383  -21.8238  -58.0336 C.2       22 UNK         0.5000 
    122 N         -0.2271  -22.1442  -58.5852 N.am      22 UNK        -0.7600 
    123 O          1.9411  -21.7587  -58.7392 O.2       22 UNK        -0.5000 
    124 C124        1.4645  -20.0701  -56.2423 C.3       23 UNK        -0.0398 
    125 S125        2.1536  -19.8108  -54.5738 S.3       23 UNK        -0.2404 
    126 C126        0.6717  -19.4493  -53.5738 C.3       23 UNK        -0.0205 
    127 H127       -5.9811  -17.8766  -47.2618 H         1 UNK         0.0600 
    128 H128       -4.7325  -19.0824  -47.5630 H         1 UNK         0.0600 
    129 H129       -5.5796  -19.0589  -46.0136 H         1 UNK         0.0600 
    130 H130       -2.6443  -18.3307  -47.2880 H         1 UNK         0.3000 
    131 H131       -2.1122  -15.6967  -46.2791 H         1 UNK         0.0600 
    132 H132        0.2386  -16.2002  -47.0690 H         1 UNK         0.0800 
    133 H133       -0.2707  -17.8223  -47.4729 H         1 UNK         0.0800 
    134 H134        1.1326  -15.5295  -49.2300 H         1 UNK         0.0800 
    135 H135        0.2398  -15.3175  -50.7101 H         1 UNK         0.0800 
    136 H136       -0.0712  -17.1571  -52.2981 H         1 UNK         0.1150 
    137 H137        2.2441  -20.7168  -51.7344 H         1 UNK         0.1150 
    138 H138        2.0216  -17.7878  -48.6137 H         1 UNK         0.1150 
    139 H139        3.4455  -19.6540  -48.3219 H         1 UNK         0.0800 
    140 H140        4.1109  -20.3153  -49.7833 H         1 UNK         0.0800 
    141 H141        0.2593  -21.1090  -49.0994 H         1 UNK         0.0800 
    142 H142        0.8615  -20.6170  -47.5335 H         1 UNK         0.0800 
    143 H143        0.2478  -23.5127  -48.3199 H         1 UNK         0.0600 
    144 H144        1.2034  -22.3732  -45.7886 H         1 UNK         0.3000 
    145 H145        0.7810  -25.4122  -43.9861 H         1 UNK         0.0600 
    146 H146        2.9484  -25.7974  -45.1695 H         1 UNK         0.0600 
    147 H147        3.2124  -25.1567  -43.5559 H         1 UNK         0.0600 
    148 H148        3.3791  -24.1042  -44.9621 H         1 UNK         0.0600 
    149 H149        1.9838  -22.9128  -43.2980 H         1 UNK         0.3000 
    150 H150       -0.9515  -21.1344  -42.4319 H         1 UNK         0.0600 
    151 H151        1.1101  -22.4167  -40.5659 H         1 UNK         0.0600 
    152 H152       -0.6348  -22.6101  -40.4410 H         1 UNK         0.0600 
    153 H153        0.0871  -21.0281  -40.1947 H         1 UNK         0.0600 
    154 H154        1.7448  -20.4593  -42.0057 H         1 UNK         0.3000 
    155 H155        3.2823  -19.8269  -43.8063 H         1 UNK         0.0600 
    156 H156        1.7660  -18.4670  -46.0929 H         1 UNK         0.0600 
    157 H157        2.7740  -19.9095  -46.2046 H         1 UNK         0.0600 
    158 H158        3.5015  -18.3611  -45.8000 H         1 UNK         0.0600 
    159 H159        1.6283  -17.3551  -43.8935 H         1 UNK         0.3000 
    160 H160        1.6198  -16.2606  -41.2868 H         1 UNK         0.0600 
    161 H161        4.6598  -15.9535  -41.0904 H         1 UNK         0.0600 
    162 H162        3.5831  -16.5319  -39.8255 H         1 UNK         0.0600 
    163 H163        3.4816  -14.8633  -40.3626 H         1 UNK         0.0600 
    164 H164        1.6954  -14.7571  -42.8733 H         1 UNK         0.3000 
    165 H165        4.1319  -13.6736  -45.2611 H         1 UNK         0.0600 
    166 H166        2.5990  -15.3924  -46.3178 H         1 UNK         0.0600 
    167 H167        1.2363  -14.6256  -45.5046 H         1 UNK         0.0600 
    168 H168        2.1618  -13.7340  -46.7066 H         1 UNK         0.0600 
    169 H169        1.7816  -12.9548  -43.5465 H         1 UNK         0.3000 
    170 H170        3.0347   -9.7134  -43.0852 H         1 UNK         0.0600 
    171 H171        0.8160   -8.8682  -43.8172 H         1 UNK         0.0600 
    172 H172        0.5177  -10.3565  -44.7169 H         1 UNK         0.0600 
    173 H173        1.8037   -9.2635  -45.2145 H         1 UNK         0.0600 
    174 H174        0.5641  -10.9822  -42.3441 H         1 UNK         0.3000 
    175 H175        1.6987  -13.0763  -39.8453 H         1 UNK         0.0600 
    176 H176        2.0732  -10.9849  -38.5150 H         1 UNK         0.0600 
    177 H177        0.5718  -10.3158  -39.1426 H         1 UNK         0.0600 
    178 H178        0.5452  -11.7472  -38.1111 H         1 UNK         0.0600 
    179 H179       -0.8861  -12.2098  -39.9970 H         1 UNK         0.3000 
    180 H180       -2.3895  -13.6787  -40.7845 H         1 UNK         0.0600 
    181 H181       -2.2436  -12.7526  -43.7119 H         1 UNK         0.0600 
    182 H182       -2.6106  -11.7190  -42.3359 H         1 UNK         0.0600 
    183 H183       -3.7226  -13.0021  -42.7839 H         1 UNK         0.0600 
    184 H184       -2.4927  -15.1621  -43.1997 H         1 UNK         0.3000 
    185 H185       -0.8049  -18.0490  -42.4099 H         1 UNK         0.0600 
    186 H186       -2.6664  -18.4783  -40.7595 H         1 UNK         0.0600 
    187 H187       -3.8327  -17.9121  -41.9491 H         1 UNK         0.0600 
    188 H188       -2.8763  -19.3618  -42.2536 H         1 UNK         0.0600 
    189 H189       -3.0465  -17.3642  -44.1667 H         1 UNK         0.3000 
    190 H190       -1.0012  -21.5213  -45.6220 H         1 UNK         0.3000 
    191 H191       -3.5560  -20.9960  -46.6701 H         1 UNK         0.0600 
    192 H192       -2.4655  -19.9156  -44.6487 H         1 UNK         0.0600 
    193 H193       -4.1386  -20.3922  -44.3816 H         1 UNK         0.0600 
    194 H194       -2.8376  -21.3700  -43.7242 H         1 UNK         0.0600 
    195 H195       -2.3615  -23.8997  -45.0093 H         1 UNK         0.3000 
    196 H196       -4.8131  -25.2808  -44.6956 H         1 UNK         0.0600 
    197 H197       -3.3492  -27.2929  -44.5583 H         1 UNK         0.0600 
    198 H198       -2.6710  -25.9652  -43.6282 H         1 UNK         0.0600 
    199 H199       -1.9947  -26.3749  -45.2037 H         1 UNK         0.0600 
    200 H200       -2.9577  -24.6281  -47.5976 H         1 UNK         0.3000 
    201 H201       -4.6260  -26.4547  -49.2628 H         1 UNK         0.0600 
    202 H202       -2.8980  -26.0556  -50.9829 H         1 UNK         0.0600 
    203 H203       -2.1320  -26.6314  -49.5117 H         1 UNK         0.0600 
    204 H204       -2.0549  -24.9226  -49.9364 H         1 UNK         0.0600 
    205 H205       -4.9832  -23.5254  -47.9543 H         1 UNK         0.3000 
    206 H206       -6.0139  -21.6431  -48.3122 H         1 UNK         0.0600 
    207 H207       -7.9359  -22.9026  -48.9493 H         1 UNK         0.0600 
    208 H208       -7.8570  -21.5592  -50.0726 H         1 UNK         0.0600 
    209 H209       -7.3490  -23.1681  -50.5781 H         1 UNK         0.0600 
    210 H210       -3.4120  -22.1028  -49.6223 H         1 UNK         0.3000 
    211 H211       -1.8992  -21.0512  -50.9171 H         1 UNK         0.0600 
    212 H212       -1.4102  -18.9344  -49.8209 H         1 UNK         0.0600 
    213 H213       -2.0865  -20.0146  -48.6297 H         1 UNK         0.0600 
    214 H214       -3.0899  -18.7405  -49.3022 H         1 UNK         0.0600 
    215 H215       -2.8428  -17.8876  -51.0910 H         1 UNK         0.3000 
    216 H216       -2.8103  -17.7741  -53.9346 H         1 UNK         0.0600 
    217 H217       -1.9455  -15.9490  -52.4677 H         1 UNK         0.0600 
    218 H218       -3.5632  -15.6613  -51.8389 H         1 UNK         0.0600 
    219 H219       -3.1985  -15.3346  -53.5283 H         1 UNK         0.0600 
    220 H220       -5.4892  -18.1062  -51.6633 H         1 UNK         0.3000 
    221 H221       -7.5140  -16.9147  -53.3516 H         1 UNK         0.0600 
    222 H222       -7.8042  -18.7304  -50.8998 H         1 UNK         0.0600 
    223 H223       -7.7321  -16.9696  -50.8752 H         1 UNK         0.0600 
    224 H224       -9.0810  -17.7859  -51.6494 H         1 UNK         0.0600 
    225 H225       -6.4604  -20.2572  -52.6334 H         1 UNK         0.3000 
    226 H226       -8.2481  -21.4193  -54.6802 H         1 UNK         0.0600 
    227 H227       -7.9083  -22.7066  -52.6698 H         1 UNK         0.0600 
    228 H228       -7.0871  -23.5550  -53.9624 H         1 UNK         0.0600 
    229 H229       -6.1455  -22.6145  -52.8107 H         1 UNK         0.0600 
    230 H230       -5.2113  -19.9288  -54.6454 H         1 UNK         0.3000 
    231 H231       -3.5351  -19.6124  -56.0409 H         1 UNK         0.0600 
    232 H232       -5.2260  -20.9015  -58.2483 H         1 UNK         0.0600 
    233 H233       -3.8077  -19.8893  -58.4703 H         1 UNK         0.0600 
    234 H234       -5.2723  -19.1996  -57.7888 H         1 UNK         0.0600 
    235 H235       -3.1692  -21.5411  -54.3221 H         1 UNK         0.3000 
    236 H236       -2.4556  -24.1234  -55.2389 H         1 UNK         0.0600 
    237 H237       -1.3188  -24.2827  -53.0297 H         1 UNK         0.0600 
    238 H238       -1.4120  -22.5379  -52.8283 H         1 UNK         0.0600 
    239 H239       -2.8848  -23.5065  -52.8486 H         1 UNK         0.0600 
    240 H240       -0.7863  -21.1215  -55.5404 H         1 UNK         0.3000 
    241 H241        1.8568  -22.1856  -56.1495 H         1 UNK         0.0600 
    242 H242       -1.0806  -22.2111  -58.0390 H         1 UNK         0.3800 
    243 H243       -0.2643  -22.3263  -59.5756 H         1 UNK         0.3800 
    244 H244        2.2449  -19.7613  -56.9404 H         1 UNK         0.0800 
    245 H245        0.6290  -19.3894  -56.4129 H         1 UNK         0.0800 
    246 H246        0.0705  -18.6929  -54.0807 H         1 UNK         0.0800 
    247 H247        0.0537  -20.3434  -53.4922 H         1 UNK         0.0800 
@<TRIPOS>BOND
     1    1    2 1    
     2    1  127 1    
     3    1  128 1    
     4    1  129 1    
     5    2    3 2    
     6    2    4 am   BACKBONE|DICT|INTERRES
     7    4    5 1    
     8    4  130 1    
     9    5    6 1    
    10    5   65 1    
    11    5  131 1    
    12    6    7 1    
    13    6  132 1    
    14    6  133 1    
    15    7    8 1    
    16    8    9 1    
    17    8  134 1    
    18    8  135 1    
    19    9   10 ar   
    20    9   14 ar   
    21   10   11 ar   
    22   10  136 1    
    23   11   12 ar   
    24   11  126 1    
    25   12   13 ar   
    26   12  137 1    
    27   13   14 ar   
    28   13   15 1    
    29   14  138 1    
    30   15   16 1    
    31   15  139 1    
    32   15  140 1    
    33   16   17 1    
    34   17   18 1    
    35   17  141 1    
    36   17  142 1    
    37   18   19 1    
    38   18   67 1    
    39   18  143 1    
    40   19   20 am   BACKBONE|DICT|INTERRES
    41   19  144 1    
    42   20   21 2    
    43   20   22 1    
    44   22   23 1    
    45   22   24 1    
    46   22  145 1    
    47   23  146 1    
    48   23  147 1    
    49   23  148 1    
    50   24   25 am   BACKBONE|DICT|INTERRES
    51   24  149 1    
    52   25   26 2    
    53   25   27 1    
    54   27   28 1    
    55   27   29 1    
    56   27  150 1    
    57   28  151 1    
    58   28  152 1    
    59   28  153 1    
    60   29   30 am   BACKBONE|DICT|INTERRES
    61   29  154 1    
    62   30   31 2    
    63   30   32 1    
    64   32   33 1    
    65   32   34 1    
    66   32  155 1    
    67   33  156 1    
    68   33  157 1    
    69   33  158 1    
    70   34   35 am   BACKBONE|DICT|INTERRES
    71   34  159 1    
    72   35   36 2    
    73   35   37 1    
    74   37   38 1    
    75   37   39 1    
    76   37  160 1    
    77   38  161 1    
    78   38  162 1    
    79   38  163 1    
    80   39   40 am   BACKBONE|DICT|INTERRES
    81   39  164 1    
    82   40   41 2    
    83   40   42 1    
    84   42   43 1    
    85   42   44 1    
    86   42  165 1    
    87   43  166 1    
    88   43  167 1    
    89   43  168 1    
    90   44   45 am   BACKBONE|DICT|INTERRES
    91   44  169 1    
    92   45   46 2    
    93   45   47 1    
    94   47   48 1    
    95   47   49 1    
    96   47  170 1    
    97   48  171 1    
    98   48  172 1    
    99   48  173 1    
   100   49   50 am   BACKBONE|DICT|INTERRES
   101   49  174 1    
   102   50   51 2    
   103   50   52 1    
   104   52   53 1    
   105   52   54 1    
   106   52  175 1    
   107   53  176 1    
   108   53  177 1    
   109   53  178 1    
   110   54   55 am   BACKBONE|DICT|INTERRES
   111   54  179 1    
   112   55   56 2    
   113   55   57 1    
   114   57   58 1    
   115   57   59 1    
   116   57  180 1    
   117   58  181 1    
   118   58  182 1    
   119   58  183 1    
   120   59   60 am   BACKBONE|DICT|INTERRES
   121   59  184 1    
   122   60   61 2    
   123   60   62 1    
   124   62   63 1    
   125   62   64 1    
   126   62  185 1    
   127   63  186 1    
   128   63  187 1    
   129   63  188 1    
   130   64   65 am   BACKBONE|DICT|INTERRES
   131   64  189 1    
   132   65   66 2    
   133   67   68 2    
   134   67   69 am   BACKBONE|DICT|INTERRES
   135   69   70 1    
   136   69  190 1    
   137   70   71 1    
   138   70   72 1    
   139   70  191 1    
   140   71  192 1    
   141   71  193 1    
   142   71  194 1    
   143   72   73 2    
   144   72   74 am   BACKBONE|DICT|INTERRES
   145   74   75 1    
   146   74  195 1    
   147   75   76 1    
   148   75   77 1    
   149   75  196 1    
   150   76  197 1    
   151   76  198 1    
   152   76  199 1    
   153   77   78 2    
   154   77   79 am   BACKBONE|DICT|INTERRES
   155   79   80 1    
   156   79  200 1    
   157   80   81 1    
   158   80   82 1    
   159   80  201 1    
   160   81  202 1    
   161   81  203 1    
   162   81  204 1    
   163   82   83 2    
   164   82   84 am   BACKBONE|DICT|INTERRES
   165   84   85 1    
   166   84  205 1    
   167   85   86 1    
   168   85   87 1    
   169   85  206 1    
   170   86  207 1    
   171   86  208 1    
   172   86  209 1    
   173   87   88 2    
   174   87   89 am   BACKBONE|DICT|INTERRES
   175   89   90 1    
   176   89  210 1    
   177   90   91 1    
   178   90   92 1    
   179   90  211 1    
   180   91  212 1    
   181   91  213 1    
   182   91  214 1    
   183   92   93 2    
   184   92   94 am   BACKBONE|DICT|INTERRES
   185   94   95 1    
   186   94  215 1    
   187   95   96 1    
   188   95   97 1    
   189   95  216 1    
   190   96  217 1    
   191   96  218 1    
   192   96  219 1    
   193   97   98 2    
   194   97   99 am   BACKBONE|DICT|INTERRES
   195   99  100 1    
   196   99  220 1    
   197  100  101 1    
   198  100  102 1    
   199  100  221 1    
   200  101  222 1    
   201  101  223 1    
   202  101  224 1    
   203  102  103 2    
   204  102  104 am   BACKBONE|DICT|INTERRES
   205  104  105 1    
   206  104  225 1    
   207  105  106 1    
   208  105  107 1    
   209  105  226 1    
   210  106  227 1    
   211  106  228 1    
   212  106  229 1    
   213  107  108 2    
   214  107  109 am   BACKBONE|DICT|INTERRES
   215  109  110 1    
   216  109  230 1    
   217  110  111 1    
   218  110  112 1    
   219  110  231 1    
   220  111  232 1    
   221  111  233 1    
   222  111  234 1    
   223  112  113 2    
   224  112  114 am   BACKBONE|DICT|INTERRES
   225  114  115 1    
   226  114  235 1    
   227  115  116 1    
   228  115  117 1    
   229  115  236 1    
   230  116  237 1    
   231  116  238 1    
   232  116  239 1    
   233  117  118 2    
   234  117  119 am   BACKBONE|DICT|INTERRES
   235  119  120 1    
   236  119  240 1    
   237  120  121 1    
   238  120  124 1    
   239  120  241 1    
   240  121  122 am   BACKBONE|DICT|INTERRES
   241  121  123 2    
   242  122  242 1    
   243  122  243 1    
   244  124  125 1    
   245  124  244 1    
   246  124  245 1    
   247  125  126 1    
   248  126  246 1    
   249  126  247 1    
@<TRIPOS>SUBSTRUCTURE
     1 UNK         1 GROUP             0       ****    0 ROOT    
