@<TRIPOS>MOLECULE
3R540
247   249    1
SMALL
USER_CHARGES


@<TRIPOS>ATOM
      1 CA          0.4778   -8.3555  -47.3632 C.3       0 UNK        -0.1800 
      2 C           1.2460   -9.5088  -47.9933 C.2       0 UNK         0.5000 
      3 O           1.0262   -9.8281  -49.1617 O.2       0 UNK        -0.5000 
      4 N           2.1432  -10.1327  -47.2261 N.am      1 UNK        -0.5000 
      5 CA          2.9997  -11.2424  -47.6358 C.3       1 UNK         0.1400 
      6 C6          2.2273  -12.5881  -47.7109 C.3       23 UNK        -0.0398 
      7 S7          2.9545  -13.7606  -48.8990 S.3       23 UNK        -0.2404 
      8 C8          1.7467  -15.1112  -48.7550 C.3       23 UNK        -0.0205 
      9 C9          2.0221  -16.2209  -49.7555 C.ar      23 UNK        -0.0193 
     10 C10         1.6227  -16.0794  -51.0880 C.ar      23 UNK        -0.1150 
     11 C11         1.8651  -17.0984  -52.0139 C.ar      23 UNK        -0.0193 
     12 C12         2.4972  -18.2712  -51.5920 C.ar      23 UNK        -0.1150 
     13 C13         2.8879  -18.4328  -50.2599 C.ar      23 UNK        -0.0193 
     14 C14         2.6613  -17.3951  -49.3489 C.ar      23 UNK        -0.1150 
     15 C15         3.5593  -19.7304  -49.8238 C.3       23 UNK        -0.0205 
     16 S16         2.8306  -20.4552  -48.3184 S.3       23 UNK        -0.2404 
     17 C17         1.0529  -20.5011  -48.7371 C.3       23 UNK        -0.0398 
     18 CA          0.3170  -21.6308  -47.9839 C.3       11 UNK         0.1400 
     19 N           0.3227  -21.4435  -46.5300 N.am      11 UNK        -0.5000 
     20 C          -0.0030  -22.3980  -45.6487 C.2       10 UNK         0.5000 
     21 O          -0.3383  -23.5380  -45.9718 O.2       10 UNK        -0.5000 
     22 CA          0.0061  -22.0062  -44.1606 C.3       10 UNK         0.1400 
     23 CB          1.4423  -21.9273  -43.6217 C.3       10 UNK        -0.1800 
     24 N          -0.6927  -20.7466  -43.9019 N.am      10 UNK        -0.5000 
     25 C          -2.0016  -20.5495  -44.1160 C.2       9 UNK         0.5000 
     26 O          -2.7633  -21.4189  -44.5390 O.2       9 UNK        -0.5000 
     27 CA         -2.5482  -19.1351  -43.8510 C.3       9 UNK         0.1400 
     28 CB         -2.7731  -18.9051  -42.3491 C.3       9 UNK        -0.1800 
     29 N          -1.6789  -18.0868  -44.3817 N.am      9 UNK        -0.5000 
     30 C          -1.3950  -17.9155  -45.6802 C.2       8 UNK         0.5000 
     31 O          -1.8724  -18.6008  -46.5820 O.2       8 UNK        -0.5000 
     32 CA         -0.3503  -16.8395  -46.0227 C.3       8 UNK         0.1400 
     33 CB         -0.9619  -15.4298  -45.9955 C.3       8 UNK        -0.1800 
     34 N           0.8075  -16.8928  -45.1304 N.am      8 UNK        -0.5000 
     35 C           1.6433  -17.9372  -45.0470 C.2       7 UNK         0.5000 
     36 O           1.5322  -18.9568  -45.7233 O.2       7 UNK        -0.5000 
     37 CA          2.7643  -17.8443  -44.0011 C.3       7 UNK         0.1400 
     38 CB          3.9390  -17.0315  -44.5541 C.3       7 UNK        -0.1800 
     39 N           2.3080  -17.2638  -42.7371 N.am      7 UNK        -0.5000 
     40 C           1.4278  -17.8618  -41.9226 C.2       6 UNK         0.5000 
     41 O           0.9195  -18.9597  -42.1523 O.2       6 UNK        -0.5000 
     42 CA          1.0119  -17.0871  -40.6601 C.3       6 UNK         0.1400 
     43 CB          2.1318  -17.1148  -39.6085 C.3       6 UNK        -0.1800 
     44 N           0.6164  -15.6992  -40.9136 N.am      6 UNK        -0.5000 
     45 C          -0.3513  -15.3031  -41.7531 C.2       5 UNK         0.5000 
     46 O          -0.9675  -16.0678  -42.4928 O.2       5 UNK        -0.5000 
     47 CA         -0.7033  -13.8030  -41.7803 C.3       5 UNK         0.1400 
     48 CB         -2.0920  -13.5788  -41.1628 C.3       5 UNK        -0.1800 
     49 N           0.2644  -12.9678  -41.0611 N.am      5 UNK        -0.5000 
     50 C           1.4315  -12.4881  -41.5134 C.2       4 UNK         0.5000 
     51 O           2.1619  -11.8129  -40.7868 O.2       4 UNK        -0.5000 
     52 CA          1.8561  -12.7393  -42.9809 C.3       4 UNK         0.1400 
     53 CB          1.2962  -11.6282  -43.8833 C.3       4 UNK        -0.1800 
     54 N           3.3128  -12.7816  -43.1183 N.am      4 UNK        -0.5000 
     55 C           4.0920  -13.7359  -42.5882 C.2       3 UNK         0.5000 
     56 O           3.6409  -14.7661  -42.0808 O.2       3 UNK        -0.5000 
     57 CA          5.6159  -13.4762  -42.6115 C.3       3 UNK         0.1400 
     58 CB          6.4615  -14.7379  -42.3376 C.3       3 UNK        -0.1800 
     59 N           6.0706  -12.7789  -43.8209 N.am      3 UNK        -0.5000 
     60 C           6.0089  -13.2325  -45.0804 C.2       2 UNK         0.5000 
     61 O           5.6135  -14.3536  -45.4000 O.2       2 UNK        -0.5000 
     62 CA          6.4177  -12.2411  -46.1846 C.3       2 UNK         0.1400 
     63 CB          7.5680  -12.7981  -47.0382 C.3       2 UNK        -0.1800 
     64 N           5.2724  -11.9509  -47.0459 N.am      2 UNK        -0.5000 
     65 C           4.1725  -11.3052  -46.6417 C.2       1 UNK         0.5000 
     66 O           4.0574  -10.7873  -45.5251 O.2       1 UNK        -0.5000 
     67 C          -1.1067  -21.8346  -48.5379 C.2       11 UNK         0.5000 
     68 O          -1.2679  -22.6003  -49.4894 O.2       11 UNK        -0.5000 
     69 N          -2.1159  -21.1892  -47.9342 N.am      12 UNK        -0.5000 
     70 CA         -3.5256  -21.4027  -48.2573 C.3       12 UNK         0.1400 
     71 CB         -4.3984  -20.3225  -47.6031 C.3       12 UNK        -0.1800 
     72 C          -3.9952  -22.8057  -47.8453 C.2       12 UNK         0.5000 
     73 O          -4.6345  -23.4833  -48.6487 O.2       12 UNK        -0.5000 
     74 N          -3.6437  -23.2374  -46.6254 N.am      13 UNK        -0.5000 
     75 CA         -3.9368  -24.5722  -46.0980 C.3       13 UNK         0.1400 
     76 CB         -3.5091  -24.6569  -44.6256 C.3       13 UNK        -0.1800 
     77 C          -3.2865  -25.6949  -46.9265 C.2       13 UNK         0.5000 
     78 O          -3.9520  -26.6855  -47.2311 O.2       13 UNK        -0.5000 
     79 N          -2.0253  -25.4893  -47.3337 N.am      14 UNK        -0.5000 
     80 CA         -1.2806  -26.3702  -48.2387 C.3       14 UNK         0.1400 
     81 CB          0.1728  -25.8838  -48.3360 C.3       14 UNK        -0.1800 
     82 C          -1.9087  -26.4755  -49.6437 C.2       14 UNK         0.5000 
     83 O          -1.7965  -27.5218  -50.2825 O.2       14 UNK        -0.5000 
     84 N          -2.5918  -25.4091  -50.0770 N.am      15 UNK        -0.5000 
     85 CA         -3.3576  -25.3243  -51.3191 C.3       15 UNK         0.1400 
     86 CB         -3.2052  -23.9074  -51.8957 C.3       15 UNK        -0.1800 
     87 C          -4.8394  -25.7122  -51.1312 C.2       15 UNK         0.5000 
     88 O          -5.6753  -25.2786  -51.9232 O.2       15 UNK        -0.5000 
     89 N          -5.1485  -26.5097  -50.0966 N.am      16 UNK        -0.5000 
     90 CA         -6.4671  -27.0649  -49.7695 C.3       16 UNK         0.1400 
     91 CB         -6.9082  -28.0811  -50.8443 C.3       16 UNK        -0.1800 
     92 C          -7.5258  -25.9771  -49.4939 C.2       16 UNK         0.5000 
     93 O          -8.6315  -26.0327  -50.0348 O.2       16 UNK        -0.5000 
     94 N          -7.1439  -25.0031  -48.6564 N.am      17 UNK        -0.5000 
     95 CA         -7.8893  -23.7918  -48.2990 C.3       17 UNK         0.1400 
     96 CB         -9.2307  -24.1233  -47.6108 C.3       17 UNK        -0.1800 
     97 C          -8.0232  -22.8341  -49.5000 C.2       17 UNK         0.5000 
     98 O          -9.1119  -22.3290  -49.7793 O.2       17 UNK        -0.5000 
     99 N          -6.8851  -22.6064  -50.1716 N.am      18 UNK        -0.5000 
    100 CA        -6.6783  -21.7255  -51.3230 C.3       18 UNK         0.1400 
    101 CB        -6.8136  -20.2477  -50.8992 C.3       18 UNK        -0.1800 
    102 C         -7.5642  -22.0941  -52.5311 C.2       18 UNK         0.5000 
    103 O         -8.2686  -21.2398  -53.0752 O.2       18 UNK        -0.5000 
    104 N         -7.5237  -23.3723  -52.9291 N.am      19 UNK        -0.5000 
    105 CA        -8.2669  -23.9312  -54.0574 C.3       19 UNK         0.1400 
    106 CB        -8.3410  -25.4604  -53.8996 C.3       19 UNK        -0.1800 
    107 C         -7.6445  -23.5044  -55.4028 C.2       19 UNK         0.5000 
    108 O         -6.9341  -24.2879  -56.0353 O.2       19 UNK        -0.5000 
    109 N         -7.9138  -22.2508  -55.7939 N.am      20 UNK        -0.5000 
    110 CA        -7.4510  -21.5707  -57.0105 C.3       20 UNK         0.1400 
    111 CB        -8.0075  -22.2574  -58.2760 C.3       20 UNK        -0.1800 
    112 C         -5.9206  -21.3651  -57.0547 C.2       20 UNK         0.5000 
    113 O         -5.3240  -21.3700  -58.1333 O.2       20 UNK        -0.5000 
    114 N         -5.3156  -21.1650  -55.8797 N.am      21 UNK        -0.5000 
    115 CA        -3.8990  -20.8872  -55.6748 C.3       21 UNK         0.1400 
    116 CB        -3.0916  -22.1966  -55.7287 C.3       21 UNK        -0.1800 
    117 C         -3.7360  -20.1866  -54.3192 C.2       21 UNK         0.5000 
    118 O         -4.6229  -20.2920  -53.4696 O.2       21 UNK        -0.5000 
    119 N         -2.6085  -19.4918  -54.1385 N.am      22 UNK        -0.5000 
    120 CA        -2.2537  -18.7619  -52.9074 C.3       22 UNK         0.1400 
    121 C         -1.8062  -19.6487  -51.7069 C.2       22 UNK         0.5000 
    122 N         -1.6196  -20.9515  -51.8769 N.am      22 UNK        -0.7600 
    123 O         -1.6511  -19.1459  -50.5989 O.2       22 UNK        -0.5000 
    124 C124       -1.2514  -17.6135  -53.1961 C.3       23 UNK        -0.0398 
    125 S125        0.2720  -18.1656  -54.0415 S.3       23 UNK        -0.2404 
    126 C126        1.4769  -16.9222  -53.4759 C.3       23 UNK        -0.0205 
    127 H127        0.6655   -7.4338  -47.9139 H         1 UNK         0.0600 
    128 H128        0.7669   -8.1962  -46.3240 H         1 UNK         0.0600 
    129 H129       -0.5928   -8.5587  -47.3903 H         1 UNK         0.0600 
    130 H130        2.3306   -9.8142  -46.2824 H         1 UNK         0.3000 
    131 H131        3.4083  -10.9942  -48.6180 H         1 UNK         0.0600 
    132 H132        2.1567  -13.0713  -46.7352 H         1 UNK         0.0800 
    133 H133        1.1990  -12.4142  -48.0307 H         1 UNK         0.0800 
    134 H134        1.7768  -15.5022  -47.7371 H         1 UNK         0.0800 
    135 H135        0.7386  -14.7242  -48.9116 H         1 UNK         0.0800 
    136 H136        1.1348  -15.1678  -51.4037 H         1 UNK         0.1150 
    137 H137        2.6807  -19.0605  -52.3075 H         1 UNK         0.1150 
    138 H138        2.9676  -17.5110  -48.3183 H         1 UNK         0.1150 
    139 H139        3.5123  -20.4750  -50.6199 H         1 UNK         0.0800 
    140 H140        4.6173  -19.5359  -49.6448 H         1 UNK         0.0800 
    141 H141        0.9566  -20.6364  -49.8164 H         1 UNK         0.0800 
    142 H142        0.6078  -19.5308  -48.5074 H         1 UNK         0.0800 
    143 H143        0.8570  -22.5580  -48.1875 H         1 UNK         0.0600 
    144 H144        0.6327  -20.5342  -46.1929 H         1 UNK         0.3000 
    145 H145       -0.5160  -22.7917  -43.6104 H         1 UNK         0.0600 
    146 H146        1.4502  -21.7341  -42.5489 H         1 UNK         0.0600 
    147 H147        1.9736  -22.8653  -43.7877 H         1 UNK         0.0600 
    148 H148        2.0133  -21.1361  -44.1077 H         1 UNK         0.0600 
    149 H149       -0.1378  -19.9883  -43.5171 H         1 UNK         0.3000 
    150 H150       -3.5134  -19.0527  -44.3548 H         1 UNK         0.0600 
    151 H151       -3.4324  -19.6668  -41.9311 H         1 UNK         0.0600 
    152 H152       -3.2364  -17.9356  -42.1650 H         1 UNK         0.0600 
    153 H153       -1.8366  -18.9371  -41.7913 H         1 UNK         0.0600 
    154 H154       -1.2656  -17.4524  -43.7021 H         1 UNK         0.3000 
    155 H155        0.0012  -17.0384  -47.0375 H         1 UNK         0.0600 
    156 H156       -1.3440  -15.1711  -45.0080 H         1 UNK         0.0600 
    157 H157       -1.7941  -15.3564  -46.6967 H         1 UNK         0.0600 
    158 H158       -0.2303  -14.6736  -46.2802 H         1 UNK         0.0600 
    159 H159        0.9338  -16.1235  -44.4917 H         1 UNK         0.3000 
    160 H160        3.1188  -18.8576  -43.8006 H         1 UNK         0.0600 
    161 H161        4.7762  -17.0315  -43.8577 H         1 UNK         0.0600 
    162 H162        3.6529  -15.9962  -44.7411 H         1 UNK         0.0600 
    163 H163        4.2987  -17.4482  -45.4959 H         1 UNK         0.0600 
    164 H164        2.7048  -16.3661  -42.4678 H         1 UNK         0.3000 
    165 H165        0.1429  -17.5975  -40.2399 H         1 UNK         0.0600 
    166 H166        1.8009  -16.6737  -38.6682 H         1 UNK         0.0600 
    167 H167        2.4421  -18.1385  -39.3946 H         1 UNK         0.0600 
    168 H168        3.0136  -16.5673  -39.9438 H         1 UNK         0.0600 
    169 H169        1.0877  -14.9941  -40.3661 H         1 UNK         0.3000 
    170 H170       -0.7613  -13.4955  -42.8251 H         1 UNK         0.0600 
    171 H171       -2.8534  -14.1572  -41.6883 H         1 UNK         0.0600 
    172 H172       -2.1204  -13.8764  -40.1138 H         1 UNK         0.0600 
    173 H173       -2.3857  -12.5306  -41.2228 H         1 UNK         0.0600 
    174 H174        0.0135  -12.7556  -40.1065 H         1 UNK         0.3000 
    175 H175        1.4756  -13.7006  -43.3261 H         1 UNK         0.0600 
    176 H176        1.7360  -10.6587  -43.6458 H         1 UNK         0.0600 
    177 H177        1.4922  -11.8358  -44.9321 H         1 UNK         0.0600 
    178 H178        0.2157  -11.5300  -43.7747 H         1 UNK         0.0600 
    179 H179        3.7499  -11.9725  -43.5400 H         1 UNK         0.3000 
    180 H180        5.7991  -12.7880  -41.7853 H         1 UNK         0.0600 
    181 H181        6.3415  -15.4887  -43.1170 H         1 UNK         0.0600 
    182 H182        6.1808  -15.2016  -41.3912 H         1 UNK         0.0600 
    183 H183        7.5213  -14.4921  -42.2739 H         1 UNK         0.0600 
    184 H184        6.3882  -11.8304  -43.6753 H         1 UNK         0.3000 
    185 H185        6.7532  -11.3074  -45.7282 H         1 UNK         0.0600 
    186 H186        8.4382  -13.0216  -46.4198 H         1 UNK         0.0600 
    187 H187        7.2833  -13.7188  -47.5494 H         1 UNK         0.0600 
    188 H188        7.8825  -12.0783  -47.7942 H         1 UNK         0.0600 
    189 H189        5.2725  -12.3930  -47.9541 H         1 UNK         0.3000 
    190 H190       -1.9114  -20.5011  -47.2166 H         1 UNK         0.3000 
    191 H191       -3.6427  -21.3161  -49.3398 H         1 UNK         0.0600 
    192 H192       -4.2687  -20.2963  -46.5214 H         1 UNK         0.0600 
    193 H193       -5.4561  -20.4989  -47.8018 H         1 UNK         0.0600 
    194 H194       -4.1539  -19.3346  -47.9937 H         1 UNK         0.0600 
    195 H195       -3.1493  -22.6037  -46.0025 H         1 UNK         0.3000 
    196 H196       -5.0185  -24.7135  -46.1429 H         1 UNK         0.0600 
    197 H197       -3.7307  -25.6404  -44.2096 H         1 UNK         0.0600 
    198 H198       -4.0381  -23.9209  -44.0200 H         1 UNK         0.0600 
    199 H199       -2.4400  -24.4813  -44.5044 H         1 UNK         0.0600 
    200 H200       -1.5317  -24.6692  -46.9902 H         1 UNK         0.3000 
    201 H201       -1.2789  -27.3707  -47.8017 H         1 UNK         0.0600 
    202 H202        0.6483  -25.8598  -47.3553 H         1 UNK         0.0600 
    203 H203        0.2315  -24.8820  -48.7619 H         1 UNK         0.0600 
    204 H204        0.7652  -26.5453  -48.9693 H         1 UNK         0.0600 
    205 H205       -2.6285  -24.5901  -49.4836 H         1 UNK         0.3000 
    206 H206       -2.9447  -26.0226  -52.0495 H         1 UNK         0.0600 
    207 H207       -2.1591  -23.6920  -52.1101 H         1 UNK         0.0600 
    208 H208       -3.7559  -23.7925  -52.8292 H         1 UNK         0.0600 
    209 H209       -3.5699  -23.1494  -51.2024 H         1 UNK         0.0600 
    210 H210       -4.4062  -26.7565  -49.4545 H         1 UNK         0.3000 
    211 H211       -6.3434  -27.6118  -48.8336 H         1 UNK         0.0600 
    212 H212       -7.0912  -27.6016  -51.8064 H         1 UNK         0.0600 
    213 H213       -7.8299  -28.5847  -50.5505 H         1 UNK         0.0600 
    214 H214       -6.1515  -28.8514  -50.9923 H         1 UNK         0.0600 
    215 H215       -6.1783  -25.0113  -48.3522 H         1 UNK         0.3000 
    216 H216       -7.2758  -23.2681  -47.5644 H         1 UNK         0.0600 
    217 H217       -9.6963  -23.2194  -47.2168 H         1 UNK         0.0600 
    218 H218       -9.0862  -24.8053  -46.7730 H         1 UNK         0.0600 
    219 H219       -9.9436  -24.5800  -48.2975 H         1 UNK         0.0600 
    220 H220       -6.0534  -23.0821  -49.8323 H         1 UNK         0.3000 
    221 H221       -5.6479  -21.8838  -51.6414 H         1 UNK         0.0600 
    222 H222       -7.8174  -20.0164  -50.5426 H         1 UNK         0.0600 
    223 H223       -6.1079  -19.9996  -50.1076 H         1 UNK         0.0600 
    224 H224       -6.6031  -19.5801  -51.7353 H         1 UNK         0.0600 
    225 H225       -6.8933  -24.0180  -52.4557 H         1 UNK         0.3000 
    226 H226       -9.2897  -23.5499  -54.0242 H         1 UNK         0.0600 
    227 H227       -8.8107  -25.7364  -52.9552 H         1 UNK         0.0600 
    228 H228       -8.9308  -25.9067  -54.7009 H         1 UNK         0.0600 
    229 H229       -7.3523  -25.9196  -53.9252 H         1 UNK         0.0600 
    230 H230       -8.4330  -21.6735  -55.1407 H         1 UNK         0.3000 
    231 H231       -7.8809  -20.5689  -56.9722 H         1 UNK         0.0600 
    232 H232       -9.0891  -22.3779  -58.2164 H         1 UNK         0.0600 
    233 H233       -7.5674  -23.2429  -58.4308 H         1 UNK         0.0600 
    234 H234       -7.7978  -21.6642  -59.1668 H         1 UNK         0.0600 
    235 H235       -5.8680  -21.1293  -55.0319 H         1 UNK         0.3000 
    236 H236       -3.5491  -20.2071  -56.4544 H         1 UNK         0.0600 
    237 H237       -2.0342  -22.0192  -55.5293 H         1 UNK         0.0600 
    238 H238       -3.4513  -22.9183  -54.9956 H         1 UNK         0.0600 
    239 H239       -3.1603  -22.6621  -56.7119 H         1 UNK         0.0600 
    240 H240       -1.9138  -19.4664  -54.8712 H         1 UNK         0.3000 
    241 H241       -3.1696  -18.2810  -52.5580 H         1 UNK         0.0600 
    242 H242       -1.3903  -21.5337  -51.0787 H         1 UNK         0.3800 
    243 H243       -1.7401  -21.3665  -52.7844 H         1 UNK         0.3800 
    244 H244       -1.7299  -16.8676  -53.8319 H         1 UNK         0.0800 
    245 H245       -0.9950  -17.0896  -52.2737 H         1 UNK         0.0800 
    246 H246        1.0751  -15.9243  -53.6586 H         1 UNK         0.0800 
    247 H247        2.3766  -17.0052  -54.0871 H         1 UNK         0.0800 
@<TRIPOS>BOND
     1    1    2 1    
     2    1  127 1    
     3    1  128 1    
     4    1  129 1    
     5    2    3 2    
     6    2    4 am   BACKBONE|DICT|INTERRES
     7    4    5 1    
     8    4  130 1    
     9    5    6 1    
    10    5   65 1    
    11    5  131 1    
    12    6    7 1    
    13    6  132 1    
    14    6  133 1    
    15    7    8 1    
    16    8    9 1    
    17    8  134 1    
    18    8  135 1    
    19    9   10 ar   
    20    9   14 ar   
    21   10   11 ar   
    22   10  136 1    
    23   11   12 ar   
    24   11  126 1    
    25   12   13 ar   
    26   12  137 1    
    27   13   14 ar   
    28   13   15 1    
    29   14  138 1    
    30   15   16 1    
    31   15  139 1    
    32   15  140 1    
    33   16   17 1    
    34   17   18 1    
    35   17  141 1    
    36   17  142 1    
    37   18   19 1    
    38   18   67 1    
    39   18  143 1    
    40   19   20 am   BACKBONE|DICT|INTERRES
    41   19  144 1    
    42   20   21 2    
    43   20   22 1    
    44   22   23 1    
    45   22   24 1    
    46   22  145 1    
    47   23  146 1    
    48   23  147 1    
    49   23  148 1    
    50   24   25 am   BACKBONE|DICT|INTERRES
    51   24  149 1    
    52   25   26 2    
    53   25   27 1    
    54   27   28 1    
    55   27   29 1    
    56   27  150 1    
    57   28  151 1    
    58   28  152 1    
    59   28  153 1    
    60   29   30 am   BACKBONE|DICT|INTERRES
    61   29  154 1    
    62   30   31 2    
    63   30   32 1    
    64   32   33 1    
    65   32   34 1    
    66   32  155 1    
    67   33  156 1    
    68   33  157 1    
    69   33  158 1    
    70   34   35 am   BACKBONE|DICT|INTERRES
    71   34  159 1    
    72   35   36 2    
    73   35   37 1    
    74   37   38 1    
    75   37   39 1    
    76   37  160 1    
    77   38  161 1    
    78   38  162 1    
    79   38  163 1    
    80   39   40 am   BACKBONE|DICT|INTERRES
    81   39  164 1    
    82   40   41 2    
    83   40   42 1    
    84   42   43 1    
    85   42   44 1    
    86   42  165 1    
    87   43  166 1    
    88   43  167 1    
    89   43  168 1    
    90   44   45 am   BACKBONE|DICT|INTERRES
    91   44  169 1    
    92   45   46 2    
    93   45   47 1    
    94   47   48 1    
    95   47   49 1    
    96   47  170 1    
    97   48  171 1    
    98   48  172 1    
    99   48  173 1    
   100   49   50 am   BACKBONE|DICT|INTERRES
   101   49  174 1    
   102   50   51 2    
   103   50   52 1    
   104   52   53 1    
   105   52   54 1    
   106   52  175 1    
   107   53  176 1    
   108   53  177 1    
   109   53  178 1    
   110   54   55 am   BACKBONE|DICT|INTERRES
   111   54  179 1    
   112   55   56 2    
   113   55   57 1    
   114   57   58 1    
   115   57   59 1    
   116   57  180 1    
   117   58  181 1    
   118   58  182 1    
   119   58  183 1    
   120   59   60 am   BACKBONE|DICT|INTERRES
   121   59  184 1    
   122   60   61 2    
   123   60   62 1    
   124   62   63 1    
   125   62   64 1    
   126   62  185 1    
   127   63  186 1    
   128   63  187 1    
   129   63  188 1    
   130   64   65 am   BACKBONE|DICT|INTERRES
   131   64  189 1    
   132   65   66 2    
   133   67   68 2    
   134   67   69 am   BACKBONE|DICT|INTERRES
   135   69   70 1    
   136   69  190 1    
   137   70   71 1    
   138   70   72 1    
   139   70  191 1    
   140   71  192 1    
   141   71  193 1    
   142   71  194 1    
   143   72   73 2    
   144   72   74 am   BACKBONE|DICT|INTERRES
   145   74   75 1    
   146   74  195 1    
   147   75   76 1    
   148   75   77 1    
   149   75  196 1    
   150   76  197 1    
   151   76  198 1    
   152   76  199 1    
   153   77   78 2    
   154   77   79 am   BACKBONE|DICT|INTERRES
   155   79   80 1    
   156   79  200 1    
   157   80   81 1    
   158   80   82 1    
   159   80  201 1    
   160   81  202 1    
   161   81  203 1    
   162   81  204 1    
   163   82   83 2    
   164   82   84 am   BACKBONE|DICT|INTERRES
   165   84   85 1    
   166   84  205 1    
   167   85   86 1    
   168   85   87 1    
   169   85  206 1    
   170   86  207 1    
   171   86  208 1    
   172   86  209 1    
   173   87   88 2    
   174   87   89 am   BACKBONE|DICT|INTERRES
   175   89   90 1    
   176   89  210 1    
   177   90   91 1    
   178   90   92 1    
   179   90  211 1    
   180   91  212 1    
   181   91  213 1    
   182   91  214 1    
   183   92   93 2    
   184   92   94 am   BACKBONE|DICT|INTERRES
   185   94   95 1    
   186   94  215 1    
   187   95   96 1    
   188   95   97 1    
   189   95  216 1    
   190   96  217 1    
   191   96  218 1    
   192   96  219 1    
   193   97   98 2    
   194   97   99 am   BACKBONE|DICT|INTERRES
   195   99  100 1    
   196   99  220 1    
   197  100  101 1    
   198  100  102 1    
   199  100  221 1    
   200  101  222 1    
   201  101  223 1    
   202  101  224 1    
   203  102  103 2    
   204  102  104 am   BACKBONE|DICT|INTERRES
   205  104  105 1    
   206  104  225 1    
   207  105  106 1    
   208  105  107 1    
   209  105  226 1    
   210  106  227 1    
   211  106  228 1    
   212  106  229 1    
   213  107  108 2    
   214  107  109 am   BACKBONE|DICT|INTERRES
   215  109  110 1    
   216  109  230 1    
   217  110  111 1    
   218  110  112 1    
   219  110  231 1    
   220  111  232 1    
   221  111  233 1    
   222  111  234 1    
   223  112  113 2    
   224  112  114 am   BACKBONE|DICT|INTERRES
   225  114  115 1    
   226  114  235 1    
   227  115  116 1    
   228  115  117 1    
   229  115  236 1    
   230  116  237 1    
   231  116  238 1    
   232  116  239 1    
   233  117  118 2    
   234  117  119 am   BACKBONE|DICT|INTERRES
   235  119  120 1    
   236  119  240 1    
   237  120  121 1    
   238  120  124 1    
   239  120  241 1    
   240  121  122 am   BACKBONE|DICT|INTERRES
   241  121  123 2    
   242  122  242 1    
   243  122  243 1    
   244  124  125 1    
   245  124  244 1    
   246  124  245 1    
   247  125  126 1    
   248  126  246 1    
   249  126  247 1    
@<TRIPOS>SUBSTRUCTURE
     1 UNK         1 GROUP             0       ****    0 ROOT    
