@<TRIPOS>MOLECULE
3R540
247   249    1
SMALL
USER_CHARGES


@<TRIPOS>ATOM
      1 CA         -2.5250  -16.0109  -45.5240 C.3       0 UNK        -0.1800 
      2 C          -2.5645  -14.8672  -46.5217 C.2       0 UNK         0.5000 
      3 O          -2.9301  -13.7495  -46.1621 O.2       0 UNK        -0.5000 
      4 N          -2.1719  -15.1368  -47.7731 N.am      1 UNK        -0.5000 
      5 CA         -2.1870  -14.1860  -48.8932 C.3       1 UNK         0.1400 
      6 C6         -1.9961  -14.8970  -50.2564 C.3       23 UNK        -0.0398 
      7 S7         -0.4279  -15.8226  -50.4470 S.3       23 UNK        -0.2404 
      8 C8         -0.9011  -17.4880  -49.8845 C.3       23 UNK        -0.0205 
      9 C9          0.0271  -18.5596  -50.4349 C.ar      23 UNK        -0.0193 
     10 C10        -0.4071  -19.4135  -51.4535 C.ar      23 UNK        -0.1150 
     11 C11         0.4375  -20.4054  -51.9584 C.ar      23 UNK        -0.0193 
     12 C12         1.7240  -20.5440  -51.4354 C.ar      23 UNK        -0.1150 
     13 C13         2.1655  -19.7082  -50.4073 C.ar      23 UNK        -0.0193 
     14 C14         1.3139  -18.7154  -49.9114 C.ar      23 UNK        -0.1150 
     15 C15         3.5640  -19.8876  -49.8384 C.3       23 UNK        -0.0205 
     16 S16         3.7044  -21.4118  -48.8512 S.3       23 UNK        -0.2404 
     17 C17         2.6534  -21.0044  -47.4206 C.3       23 UNK        -0.0398 
     18 CA          1.6759  -22.1366  -47.0289 C.3       11 UNK         0.1400 
     19 N           1.2941  -22.0180  -45.6211 N.am      11 UNK        -0.5000 
     20 C           0.5856  -22.9147  -44.9235 C.2       10 UNK         0.5000 
     21 O           0.2077  -23.9959  -45.3738 O.2       10 UNK        -0.5000 
     22 CA          0.1895  -22.4968  -43.4964 C.3       10 UNK         0.1400 
     23 CB          1.3271  -22.7704  -42.5011 C.3       10 UNK        -0.1800 
     24 N          -0.1861  -21.0828  -43.4391 N.am      10 UNK        -0.5000 
     25 C          -1.3135  -20.5880  -43.9690 C.2       9 UNK         0.5000 
     26 O          -2.1751  -21.2823  -44.5069 O.2       9 UNK        -0.5000 
     27 CA         -1.4830  -19.0598  -43.9407 C.3       9 UNK         0.1400 
     28 CB         -2.0394  -18.5917  -42.5888 C.3       9 UNK        -0.1800 
     29 N          -0.2341  -18.3531  -44.2345 N.am      9 UNK        -0.5000 
     30 C           0.3565  -18.3448  -45.4387 C.2       8 UNK         0.5000 
     31 O          -0.1251  -18.8827  -46.4320 O.2       8 UNK        -0.5000 
     32 CA          1.7247  -17.6503  -45.5652 C.3       8 UNK         0.1400 
     33 CB          1.5395  -16.1975  -46.0244 C.3       8 UNK        -0.1800 
     34 N           2.5188  -17.6799  -44.3375 N.am      8 UNK        -0.5000 
     35 C           2.9014  -18.7852  -43.6821 C.2       7 UNK         0.5000 
     36 O           2.6643  -19.9281  -44.0761 O.2       7 UNK        -0.5000 
     37 CA          3.6143  -18.5822  -42.3296 C.3       7 UNK         0.1400 
     38 CB          4.3805  -17.2441  -42.2400 C.3       7 UNK        -0.1800 
     39 N           2.7069  -18.7144  -41.1813 N.am      7 UNK        -0.5000 
     40 C           1.5505  -18.0642  -40.9766 C.2       6 UNK         0.5000 
     41 O           1.0204  -17.3312  -41.8149 O.2       6 UNK        -0.5000 
     42 CA          0.8471  -18.2507  -39.6120 C.3       6 UNK         0.1400 
     43 CB          1.7341  -18.8840  -38.5161 C.3       6 UNK        -0.1800 
     44 N           0.2593  -16.9829  -39.1588 N.am      6 UNK        -0.5000 
     45 C           0.9280  -15.8464  -38.9160 C.2       5 UNK         0.5000 
     46 O           2.1575  -15.7610  -38.8577 O.2       5 UNK        -0.5000 
     47 CA          0.0868  -14.5682  -38.7690 C.3       5 UNK         0.1400 
     48 CB          0.2832  -13.9225  -37.3879 C.3       5 UNK        -0.1800 
     49 N           0.5145  -13.6349  -39.8083 N.am      5 UNK        -0.5000 
     50 C           0.0572  -13.6532  -41.0656 C.2       4 UNK         0.5000 
     51 O          -0.9260  -14.3024  -41.4315 O.2       4 UNK        -0.5000 
     52 CA          0.8823  -12.8591  -42.0934 C.3       4 UNK         0.1400 
     53 CB          2.0201  -13.7361  -42.6429 C.3       4 UNK        -0.1800 
     54 N           0.0592  -12.4140  -43.2143 N.am      4 UNK        -0.5000 
     55 C          -0.7530  -11.3496  -43.2004 C.2       3 UNK         0.5000 
     56 O          -0.8657  -10.5949  -42.2323 O.2       3 UNK        -0.5000 
     57 CA         -1.5758  -11.0951  -44.4837 C.3       3 UNK         0.1400 
     58 CB         -1.9645   -9.6133  -44.6707 C.3       3 UNK        -0.1800 
     59 N          -0.9481  -11.6409  -45.6956 N.am      3 UNK        -0.5000 
     60 C           0.2078  -11.2588  -46.2654 C.2       2 UNK         0.5000 
     61 O           0.8866  -10.3143  -45.8614 O.2       2 UNK        -0.5000 
     62 CA          0.7266  -12.0877  -47.4617 C.3       2 UNK         0.1400 
     63 CB          2.0793  -12.7312  -47.1152 C.3       2 UNK        -0.1800 
     64 N          -0.1988  -13.1460  -47.8729 N.am      2 UNK        -0.5000 
     65 C          -1.2317  -12.9824  -48.7112 C.2       1 UNK         0.5000 
     66 O          -1.4717  -11.9261  -49.2969 O.2       1 UNK        -0.5000 
     67 C           0.4400  -22.2137  -47.9568 C.2       11 UNK         0.5000 
     68 O           0.3926  -23.0779  -48.8327 O.2       11 UNK        -0.5000 
     69 N          -0.5668  -21.3630  -47.7001 N.am      12 UNK        -0.5000 
     70 CA         -1.8706  -21.3928  -48.3610 C.3       12 UNK         0.1400 
     71 CB         -2.7111  -20.1759  -47.9464 C.3       12 UNK        -0.1800 
     72 C          -2.6436  -22.6836  -48.0595 C.2       12 UNK         0.5000 
     73 O          -3.1573  -23.3017  -48.9893 O.2       12 UNK        -0.5000 
     74 N          -2.7074  -23.0835  -46.7799 N.am      13 UNK        -0.5000 
     75 CA         -3.3883  -24.2976  -46.3162 C.3       13 UNK         0.1400 
     76 CB         -3.3388  -24.3759  -44.7841 C.3       13 UNK        -0.1800 
     77 C          -2.8307  -25.5866  -46.9473 C.2       13 UNK         0.5000 
     78 O          -3.6102  -26.4617  -47.3252 O.2       13 UNK        -0.5000 
     79 N          -1.5034  -25.6473  -47.1233 N.am      14 UNK        -0.5000 
     80 CA         -0.7981  -26.7128  -47.8417 C.3       14 UNK         0.1400 
     81 CB          0.7150  -26.5309  -47.6490 C.3       14 UNK        -0.1800 
     82 C          -1.1514  -26.7909  -49.3436 C.2       14 UNK         0.5000 
     83 O          -1.0041  -27.8563  -49.9427 O.2       14 UNK        -0.5000 
     84 N          -1.6398  -25.6813  -49.9124 N.am      15 UNK        -0.5000 
     85 CA         -2.1459  -25.5605  -51.2791 C.3       15 UNK         0.1400 
     86 CB         -1.5729  -24.2747  -51.8989 C.3       15 UNK        -0.1800 
     87 C          -3.6903  -25.5799  -51.3227 C.2       15 UNK         0.5000 
     88 O          -4.2724  -25.0977  -52.2942 O.2       15 UNK        -0.5000 
     89 N          -4.3281  -26.1292  -50.2767 N.am      16 UNK        -0.5000 
     90 CA         -5.7761  -26.2857  -50.0940 C.3       16 UNK         0.1400 
     91 CB         -6.3840  -27.1929  -51.1852 C.3       16 UNK        -0.1800 
     92 C          -6.5256  -24.9467  -49.9230 C.2       16 UNK         0.5000 
     93 O          -7.6543  -24.8046  -50.3964 O.2       16 UNK        -0.5000 
     94 N          -5.8842  -24.0016  -49.2213 N.am      17 UNK        -0.5000 
     95 CA         -6.3630  -22.6606  -48.8657 C.3       17 UNK         0.1400 
     96 CB         -7.6344  -22.7282  -47.9935 C.3       17 UNK        -0.1800 
     97 C          -6.5006  -21.7271  -50.0848 C.2       17 UNK         0.5000 
     98 O          -7.4004  -20.8855  -50.1213 O.2       17 UNK        -0.5000 
     99 N          -5.6017  -21.8893  -51.0643 N.am      18 UNK        -0.5000 
    100 CA        -5.5432  -21.0729  -52.2734 C.3       18 UNK         0.1400 
    101 CB        -4.6577  -21.7732  -53.3124 C.3       18 UNK        -0.1800 
    102 C         -5.0108  -19.6602  -51.9740 C.2       18 UNK         0.5000 
    103 O         -3.9493  -19.5206  -51.3624 O.2       18 UNK        -0.5000 
    104 N         -5.7319  -18.6373  -52.4463 N.am      19 UNK        -0.5000 
    105 CA        -5.3914  -17.2227  -52.2903 C.3       19 UNK         0.1400 
    106 CB        -6.6890  -16.3956  -52.3240 C.3       19 UNK        -0.1800 
    107 C         -4.3773  -16.7800  -53.3634 C.2       19 UNK         0.5000 
    108 O         -4.7266  -16.0284  -54.2739 O.2       19 UNK        -0.5000 
    109 N         -3.1496  -17.3064  -53.2567 N.am      20 UNK        -0.5000 
    110 CA        -1.9762  -17.0711  -54.1160 C.3       20 UNK         0.1400 
    111 CB        -1.6055  -15.5744  -54.1651 C.3       20 UNK        -0.1800 
    112 C         -2.0685  -17.6691  -55.5374 C.2       20 UNK         0.5000 
    113 O         -1.1014  -17.5627  -56.2928 O.2       20 UNK        -0.5000 
    114 N         -3.1999  -18.2987  -55.8844 N.am      21 UNK        -0.5000 
    115 CA        -3.4033  -19.0002  -57.1545 C.3       21 UNK         0.1400 
    116 CB        -4.9054  -19.2555  -57.3544 C.3       21 UNK        -0.1800 
    117 C         -2.6130  -20.3208  -57.2156 C.2       21 UNK         0.5000 
    118 O         -2.0584  -20.6567  -58.2622 O.2       21 UNK        -0.5000 
    119 N         -2.5723  -21.0223  -56.0748 N.am      22 UNK        -0.5000 
    120 CA        -1.8035  -22.2517  -55.8113 C.3       22 UNK         0.1400 
    121 C         -2.2026  -23.4941  -56.6664 C.2       22 UNK         0.5000 
    122 N         -3.3793  -23.5223  -57.2797 N.am      22 UNK        -0.7600 
    123 O         -1.4529  -24.4630  -56.7515 O.2       22 UNK        -0.5000 
    124 C124       -0.2676  -22.0079  -55.7811 C.3       23 UNK        -0.0398 
    125 S125        0.2383  -20.6215  -54.7018 S.3       23 UNK        -0.2404 
    126 C126       -0.0409  -21.3385  -53.0563 C.3       23 UNK        -0.0205 
    127 H127       -1.7464  -15.8383  -44.7808 H         1 UNK         0.0600 
    128 H128       -2.3255  -16.9568  -46.0258 H         1 UNK         0.0600 
    129 H129       -3.4805  -16.0959  -45.0068 H         1 UNK         0.0600 
    130 H130       -1.8685  -16.0704  -48.0038 H         1 UNK         0.3000 
    131 H131       -3.1907  -13.7551  -48.9089 H         1 UNK         0.0600 
    132 H132       -2.8327  -15.5730  -50.4354 H         1 UNK         0.0800 
    133 H133       -2.0520  -14.1635  -51.0624 H         1 UNK         0.0800 
    134 H134       -0.8629  -17.5131  -48.7956 H         1 UNK         0.0800 
    135 H135       -1.9312  -17.7056  -50.1710 H         1 UNK         0.0800 
    136 H136       -1.4043  -19.3133  -51.8538 H         1 UNK         0.1150 
    137 H137        2.3803  -21.3128  -51.8186 H         1 UNK         0.1150 
    138 H138        1.6474  -18.0624  -49.1173 H         1 UNK         0.1150 
    139 H139        4.2809  -19.9313  -50.6596 H         1 UNK         0.0800 
    140 H140        3.8509  -19.0301  -49.2276 H         1 UNK         0.0800 
    141 H141        2.1112  -20.0765  -47.5945 H         1 UNK         0.0800 
    142 H142        3.3362  -20.7975  -46.5953 H         1 UNK         0.0800 
    143 H143        2.2053  -23.0877  -47.1189 H         1 UNK         0.0600 
    144 H144        1.6064  -21.1819  -45.1369 H         1 UNK         0.3000 
    145 H145       -0.6727  -23.0956  -43.1963 H         1 UNK         0.0600 
    146 H146        1.0318  -22.5112  -41.4844 H         1 UNK         0.0600 
    147 H147        1.5967  -23.8273  -42.5019 H         1 UNK         0.0600 
    148 H148        2.2266  -22.2039  -42.7433 H         1 UNK         0.0600 
    149 H149        0.5069  -20.4417  -43.0815 H         1 UNK         0.3000 
    150 H150       -2.2141  -18.8055  -44.7089 H         1 UNK         0.0600 
    151 H151       -3.0117  -19.0443  -42.3909 H         1 UNK         0.0600 
    152 H152       -2.1726  -17.5097  -42.5698 H         1 UNK         0.0600 
    153 H153       -1.3794  -18.8620  -41.7656 H         1 UNK         0.0600 
    154 H154        0.2265  -17.8877  -43.4556 H         1 UNK         0.3000 
    155 H155        2.2952  -18.1743  -46.3323 H         1 UNK         0.0600 
    156 H156        2.5031  -15.7133  -46.1827 H         1 UNK         0.0600 
    157 H157        0.9968  -16.1540  -46.9699 H         1 UNK         0.0600 
    158 H158        0.9798  -15.6118  -45.2946 H         1 UNK         0.0600 
    159 H159        2.7122  -16.7890  -43.9049 H         1 UNK         0.3000 
    160 H160        4.3459  -19.3875  -42.2473 H         1 UNK         0.0600 
    161 H161        3.7109  -16.3841  -42.2085 H         1 UNK         0.0600 
    162 H162        5.0518  -17.1149  -43.0900 H         1 UNK         0.0600 
    163 H163        4.9936  -17.2101  -41.3394 H         1 UNK         0.0600 
    164 H164        3.0388  -19.3175  -40.4421 H         1 UNK         0.3000 
    165 H165        0.0121  -18.9292  -39.7886 H         1 UNK         0.0600 
    166 H166        1.2017  -18.9353  -37.5663 H         1 UNK         0.0600 
    167 H167        2.0153  -19.9049  -38.7767 H         1 UNK         0.0600 
    168 H168        2.6517  -18.3188  -38.3494 H         1 UNK         0.0600 
    169 H169       -0.7473  -16.9312  -39.2264 H         1 UNK         0.3000 
    170 H170       -0.9727  -14.8046  -38.8896 H         1 UNK         0.0600 
    171 H171        1.3262  -13.6599  -37.2062 H         1 UNK         0.0600 
    172 H172       -0.3122  -13.0146  -37.2904 H         1 UNK         0.0600 
    173 H173       -0.0273  -14.6027  -36.5939 H         1 UNK         0.0600 
    174 H174        1.3547  -13.1124  -39.6052 H         1 UNK         0.3000 
    175 H175        1.3177  -11.9849  -41.6044 H         1 UNK         0.0600 
    176 H176        2.6103  -13.2017  -43.3876 H         1 UNK         0.0600 
    177 H177        1.6375  -14.6472  -43.1045 H         1 UNK         0.0600 
    178 H178        2.6995  -14.0378  -41.8446 H         1 UNK         0.0600 
    179 H179        0.0526  -13.0046  -44.0307 H         1 UNK         0.3000 
    180 H180       -2.5022  -11.6558  -44.3526 H         1 UNK         0.0600 
    181 H181       -1.0896   -8.9647  -44.7175 H         1 UNK         0.0600 
    182 H182       -2.5825   -9.2647  -43.8425 H         1 UNK         0.0600 
    183 H183       -2.5397   -9.4693  -45.5853 H         1 UNK         0.0600 
    184 H184       -1.4543  -12.4183  -46.1077 H         1 UNK         0.3000 
    185 H185        0.8811  -11.4013  -48.2968 H         1 UNK         0.0600 
    186 H186        2.4395  -13.3646  -47.9262 H         1 UNK         0.0600 
    187 H187        2.8392  -11.9689  -46.9389 H         1 UNK         0.0600 
    188 H188        2.0153  -13.3381  -46.2122 H         1 UNK         0.0600 
    189 H189       -0.0730  -14.0513  -47.4468 H         1 UNK         0.3000 
    190 H190       -0.4283  -20.6224  -47.0180 H         1 UNK         0.3000 
    191 H191       -1.7018  -21.3413  -49.4389 H         1 UNK         0.0600 
    192 H192       -2.1998  -19.2457  -48.1760 H         1 UNK         0.0600 
    193 H193       -3.6624  -20.1604  -48.4802 H         1 UNK         0.0600 
    194 H194       -2.9306  -20.1753  -46.8788 H         1 UNK         0.0600 
    195 H195       -2.2990  -22.4938  -46.0607 H         1 UNK         0.3000 
    196 H196       -4.4360  -24.2156  -46.6116 H         1 UNK         0.0600 
    197 H197       -3.8694  -25.2569  -44.4210 H         1 UNK         0.0600 
    198 H198       -3.8092  -23.5043  -44.3289 H         1 UNK         0.0600 
    199 H199       -2.3149  -24.4359  -44.4165 H         1 UNK         0.0600 
    200 H200       -0.9290  -24.9036  -46.7367 H         1 UNK         0.3000 
    201 H201       -1.0867  -27.6642  -47.3903 H         1 UNK         0.0600 
    202 H202        0.9830  -26.5487  -46.5924 H         1 UNK         0.0600 
    203 H203        1.0622  -25.5852  -48.0656 H         1 UNK         0.0600 
    204 H204        1.2715  -27.3304  -48.1396 H         1 UNK         0.0600 
    205 H205       -1.7519  -24.8535  -49.3389 H         1 UNK         0.3000 
    206 H206       -1.8013  -26.4036  -51.8806 H         1 UNK         0.0600 
    207 H207       -0.4845  -24.2660  -51.8417 H         1 UNK         0.0600 
    208 H208       -1.8436  -24.1907  -52.9517 H         1 UNK         0.0600 
    209 H209       -1.9402  -23.3833  -51.3896 H         1 UNK         0.0600 
    210 H210       -3.7651  -26.4507  -49.4984 H         1 UNK         0.3000 
    211 H211       -5.8948  -26.8079  -49.1436 H         1 UNK         0.0600 
    212 H212       -6.3778  -26.7132  -52.1642 H         1 UNK         0.0600 
    213 H213       -7.4199  -27.4418  -50.9525 H         1 UNK         0.0600 
    214 H214       -5.8371  -28.1322  -51.2673 H         1 UNK         0.0600 
    215 H215       -4.9127  -24.1748  -48.9843 H         1 UNK         0.3000 
    216 H216       -5.5833  -22.2170  -48.2465 H         1 UNK         0.0600 
    217 H217       -7.8879  -21.7441  -47.5978 H         1 UNK         0.0600 
    218 H218       -7.4925  -23.3920  -47.1407 H         1 UNK         0.0600 
    219 H219       -8.4976  -23.0831  -48.5568 H         1 UNK         0.0600 
    220 H220       -4.8820  -22.5891  -50.9496 H         1 UNK         0.3000 
    221 H221       -6.5523  -20.9974  -52.6842 H         1 UNK         0.0600 
    222 H222       -3.6316  -21.8818  -52.9594 H         1 UNK         0.0600 
    223 H223       -5.0374  -22.7674  -53.5486 H         1 UNK         0.0600 
    224 H224       -4.6387  -21.2074  -54.2430 H         1 UNK         0.0600 
    225 H225       -6.5815  -18.8329  -52.9562 H         1 UNK         0.3000 
    226 H226       -4.9277  -17.0675  -51.3136 H         1 UNK         0.0600 
    227 H227       -7.3616  -16.6870  -51.5170 H         1 UNK         0.0600 
    228 H228       -6.4779  -15.3325  -52.2010 H         1 UNK         0.0600 
    229 H229       -7.2243  -16.5182  -53.2664 H         1 UNK         0.0600 
    230 H230       -3.0124  -17.9744  -52.5068 H         1 UNK         0.3000 
    231 H231       -1.1482  -17.5906  -53.6321 H         1 UNK         0.0600 
    232 H232       -2.3405  -14.9889  -54.7177 H         1 UNK         0.0600 
    233 H233       -0.6422  -15.4279  -54.6547 H         1 UNK         0.0600 
    234 H234       -1.5228  -15.1522  -53.1662 H         1 UNK         0.0600 
    235 H235       -3.9696  -18.2858  -55.2330 H         1 UNK         0.3000 
    236 H236       -3.0538  -18.3594  -57.9670 H         1 UNK         0.0600 
    237 H237       -5.4638  -18.3193  -57.3742 H         1 UNK         0.0600 
    238 H238       -5.0916  -19.7636  -58.3015 H         1 UNK         0.0600 
    239 H239       -5.3216  -19.8769  -56.5605 H         1 UNK         0.0600 
    240 H240       -3.0511  -20.6342  -55.2783 H         1 UNK         0.3000 
    241 H241       -2.0917  -22.5463  -54.8035 H         1 UNK         0.0600 
    242 H242       -4.0086  -22.7385  -57.2207 H         1 UNK         0.3800 
    243 H243       -3.6359  -24.3320  -57.8223 H         1 UNK         0.3800 
    244 H244        0.2594  -22.9044  -55.4502 H         1 UNK         0.0800 
    245 H245        0.0963  -21.7988  -56.7881 H         1 UNK         0.0800 
    246 H246       -1.1032  -21.5411  -52.9203 H         1 UNK         0.0800 
    247 H247        0.4751  -22.2968  -52.9841 H         1 UNK         0.0800 
@<TRIPOS>BOND
     1    1    2 1    
     2    1  127 1    
     3    1  128 1    
     4    1  129 1    
     5    2    3 2    
     6    2    4 am   BACKBONE|DICT|INTERRES
     7    4    5 1    
     8    4  130 1    
     9    5    6 1    
    10    5   65 1    
    11    5  131 1    
    12    6    7 1    
    13    6  132 1    
    14    6  133 1    
    15    7    8 1    
    16    8    9 1    
    17    8  134 1    
    18    8  135 1    
    19    9   10 ar   
    20    9   14 ar   
    21   10   11 ar   
    22   10  136 1    
    23   11   12 ar   
    24   11  126 1    
    25   12   13 ar   
    26   12  137 1    
    27   13   14 ar   
    28   13   15 1    
    29   14  138 1    
    30   15   16 1    
    31   15  139 1    
    32   15  140 1    
    33   16   17 1    
    34   17   18 1    
    35   17  141 1    
    36   17  142 1    
    37   18   19 1    
    38   18   67 1    
    39   18  143 1    
    40   19   20 am   BACKBONE|DICT|INTERRES
    41   19  144 1    
    42   20   21 2    
    43   20   22 1    
    44   22   23 1    
    45   22   24 1    
    46   22  145 1    
    47   23  146 1    
    48   23  147 1    
    49   23  148 1    
    50   24   25 am   BACKBONE|DICT|INTERRES
    51   24  149 1    
    52   25   26 2    
    53   25   27 1    
    54   27   28 1    
    55   27   29 1    
    56   27  150 1    
    57   28  151 1    
    58   28  152 1    
    59   28  153 1    
    60   29   30 am   BACKBONE|DICT|INTERRES
    61   29  154 1    
    62   30   31 2    
    63   30   32 1    
    64   32   33 1    
    65   32   34 1    
    66   32  155 1    
    67   33  156 1    
    68   33  157 1    
    69   33  158 1    
    70   34   35 am   BACKBONE|DICT|INTERRES
    71   34  159 1    
    72   35   36 2    
    73   35   37 1    
    74   37   38 1    
    75   37   39 1    
    76   37  160 1    
    77   38  161 1    
    78   38  162 1    
    79   38  163 1    
    80   39   40 am   BACKBONE|DICT|INTERRES
    81   39  164 1    
    82   40   41 2    
    83   40   42 1    
    84   42   43 1    
    85   42   44 1    
    86   42  165 1    
    87   43  166 1    
    88   43  167 1    
    89   43  168 1    
    90   44   45 am   BACKBONE|DICT|INTERRES
    91   44  169 1    
    92   45   46 2    
    93   45   47 1    
    94   47   48 1    
    95   47   49 1    
    96   47  170 1    
    97   48  171 1    
    98   48  172 1    
    99   48  173 1    
   100   49   50 am   BACKBONE|DICT|INTERRES
   101   49  174 1    
   102   50   51 2    
   103   50   52 1    
   104   52   53 1    
   105   52   54 1    
   106   52  175 1    
   107   53  176 1    
   108   53  177 1    
   109   53  178 1    
   110   54   55 am   BACKBONE|DICT|INTERRES
   111   54  179 1    
   112   55   56 2    
   113   55   57 1    
   114   57   58 1    
   115   57   59 1    
   116   57  180 1    
   117   58  181 1    
   118   58  182 1    
   119   58  183 1    
   120   59   60 am   BACKBONE|DICT|INTERRES
   121   59  184 1    
   122   60   61 2    
   123   60   62 1    
   124   62   63 1    
   125   62   64 1    
   126   62  185 1    
   127   63  186 1    
   128   63  187 1    
   129   63  188 1    
   130   64   65 am   BACKBONE|DICT|INTERRES
   131   64  189 1    
   132   65   66 2    
   133   67   68 2    
   134   67   69 am   BACKBONE|DICT|INTERRES
   135   69   70 1    
   136   69  190 1    
   137   70   71 1    
   138   70   72 1    
   139   70  191 1    
   140   71  192 1    
   141   71  193 1    
   142   71  194 1    
   143   72   73 2    
   144   72   74 am   BACKBONE|DICT|INTERRES
   145   74   75 1    
   146   74  195 1    
   147   75   76 1    
   148   75   77 1    
   149   75  196 1    
   150   76  197 1    
   151   76  198 1    
   152   76  199 1    
   153   77   78 2    
   154   77   79 am   BACKBONE|DICT|INTERRES
   155   79   80 1    
   156   79  200 1    
   157   80   81 1    
   158   80   82 1    
   159   80  201 1    
   160   81  202 1    
   161   81  203 1    
   162   81  204 1    
   163   82   83 2    
   164   82   84 am   BACKBONE|DICT|INTERRES
   165   84   85 1    
   166   84  205 1    
   167   85   86 1    
   168   85   87 1    
   169   85  206 1    
   170   86  207 1    
   171   86  208 1    
   172   86  209 1    
   173   87   88 2    
   174   87   89 am   BACKBONE|DICT|INTERRES
   175   89   90 1    
   176   89  210 1    
   177   90   91 1    
   178   90   92 1    
   179   90  211 1    
   180   91  212 1    
   181   91  213 1    
   182   91  214 1    
   183   92   93 2    
   184   92   94 am   BACKBONE|DICT|INTERRES
   185   94   95 1    
   186   94  215 1    
   187   95   96 1    
   188   95   97 1    
   189   95  216 1    
   190   96  217 1    
   191   96  218 1    
   192   96  219 1    
   193   97   98 2    
   194   97   99 am   BACKBONE|DICT|INTERRES
   195   99  100 1    
   196   99  220 1    
   197  100  101 1    
   198  100  102 1    
   199  100  221 1    
   200  101  222 1    
   201  101  223 1    
   202  101  224 1    
   203  102  103 2    
   204  102  104 am   BACKBONE|DICT|INTERRES
   205  104  105 1    
   206  104  225 1    
   207  105  106 1    
   208  105  107 1    
   209  105  226 1    
   210  106  227 1    
   211  106  228 1    
   212  106  229 1    
   213  107  108 2    
   214  107  109 am   BACKBONE|DICT|INTERRES
   215  109  110 1    
   216  109  230 1    
   217  110  111 1    
   218  110  112 1    
   219  110  231 1    
   220  111  232 1    
   221  111  233 1    
   222  111  234 1    
   223  112  113 2    
   224  112  114 am   BACKBONE|DICT|INTERRES
   225  114  115 1    
   226  114  235 1    
   227  115  116 1    
   228  115  117 1    
   229  115  236 1    
   230  116  237 1    
   231  116  238 1    
   232  116  239 1    
   233  117  118 2    
   234  117  119 am   BACKBONE|DICT|INTERRES
   235  119  120 1    
   236  119  240 1    
   237  120  121 1    
   238  120  124 1    
   239  120  241 1    
   240  121  122 am   BACKBONE|DICT|INTERRES
   241  121  123 2    
   242  122  242 1    
   243  122  243 1    
   244  124  125 1    
   245  124  244 1    
   246  124  245 1    
   247  125  126 1    
   248  126  246 1    
   249  126  247 1    
@<TRIPOS>SUBSTRUCTURE
     1 UNK         1 GROUP             0       ****    0 ROOT    
