@<TRIPOS>MOLECULE
3R540
247   249    1
SMALL
USER_CHARGES


@<TRIPOS>ATOM
      1 CA          4.7015  -14.8886  -49.0786 C.3       0 UNK        -0.1800 
      2 C           3.7446  -15.3467  -47.9878 C.2       0 UNK         0.5000 
      3 O           4.1871  -15.8029  -46.9336 O.2       0 UNK        -0.5000 
      4 N           2.4343  -15.2185  -48.2292 N.am      1 UNK        -0.5000 
      5 CA          1.3552  -15.6247  -47.3225 C.3       1 UNK         0.1400 
      6 C6          0.0792  -16.0502  -48.0950 C.3       23 UNK        -0.0398 
      7 S7          0.2228  -17.7689  -48.6794 S.3       23 UNK        -0.2404 
      8 C8          1.0450  -17.5558  -50.2888 C.3       23 UNK        -0.0205 
      9 C9          1.7265  -18.8424  -50.7239 C.ar      23 UNK        -0.0193 
     10 C10         1.3103  -19.5092  -51.8760 C.ar      23 UNK        -0.1150 
     11 C11         1.9089  -20.7101  -52.2637 C.ar      23 UNK        -0.0193 
     12 C12         2.9518  -21.2375  -51.4936 C.ar      23 UNK        -0.1150 
     13 C13         3.3891  -20.5703  -50.3428 C.ar      23 UNK        -0.0193 
     14 C14         2.7759  -19.3715  -49.9686 C.ar      23 UNK        -0.1150 
     15 C15         4.5233  -21.1323  -49.4956 C.3       23 UNK        -0.0205 
     16 S16         4.0460  -22.6286  -48.5714 S.3       23 UNK        -0.2404 
     17 C17         2.5238  -22.0932  -47.7212 C.3       23 UNK        -0.0398 
     18 CA          2.1297  -23.0768  -46.5915 C.3       11 UNK         0.1400 
     19 N           2.9206  -22.8903  -45.3723 N.am      11 UNK        -0.5000 
     20 C           3.6625  -23.8447  -44.7943 C.2       10 UNK         0.5000 
     21 O           3.8295  -24.9698  -45.2671 O.2       10 UNK        -0.5000 
     22 CA          4.3264  -23.4963  -43.4468 C.3       10 UNK         0.1400 
     23 CB          5.7550  -22.9778  -43.6716 C.3       10 UNK        -0.1800 
     24 N           3.5809  -22.5100  -42.6631 N.am      10 UNK        -0.5000 
     25 C           2.3608  -22.6958  -42.1384 C.2       9 UNK         0.5000 
     26 O           1.7407  -23.7567  -42.2129 O.2       9 UNK        -0.5000 
     27 CA          1.7184  -21.4943  -41.4159 C.3       9 UNK         0.1400 
     28 CB          1.7904  -21.6816  -39.8927 C.3       9 UNK        -0.1800 
     29 N           2.3092  -20.1969  -41.7554 N.am      9 UNK        -0.5000 
     30 C           2.2815  -19.6083  -42.9564 C.2       8 UNK         0.5000 
     31 O           1.8051  -20.1465  -43.9591 O.2       8 UNK        -0.5000 
     32 CA          2.9103  -18.2005  -43.0505 C.3       8 UNK         0.1400 
     33 CB          2.5873  -17.5150  -44.3830 C.3       8 UNK        -0.1800 
     34 N           2.5219  -17.3037  -41.9546 N.am      8 UNK        -0.5000 
     35 C           3.0313  -17.3301  -40.7139 C.2       7 UNK         0.5000 
     36 O           3.8803  -18.1451  -40.3515 O.2       7 UNK        -0.5000 
     37 CA          2.4583  -16.3367  -39.6921 C.3       7 UNK         0.1400 
     38 CB          2.9789  -14.9100  -39.9247 C.3       7 UNK        -0.1800 
     39 N           0.9960  -16.3603  -39.7385 N.am      7 UNK        -0.5000 
     40 C           0.2231  -16.8773  -38.7730 C.2       6 UNK         0.5000 
     41 O           0.6507  -17.2648  -37.6846 O.2       6 UNK        -0.5000 
     42 CA         -1.2817  -17.0175  -39.0711 C.3       6 UNK         0.1400 
     43 CB         -2.0718  -15.8178  -38.5301 C.3       6 UNK        -0.1800 
     44 N          -1.5823  -17.2095  -40.4929 N.am      6 UNK        -0.5000 
     45 C          -1.3225  -18.3539  -41.1482 C.2       5 UNK         0.5000 
     46 O          -0.7519  -19.3098  -40.6246 O.2       5 UNK        -0.5000 
     47 CA         -1.7830  -18.4928  -42.6087 C.3       5 UNK         0.1400 
     48 CB         -2.9456  -19.4968  -42.7104 C.3       5 UNK        -0.1800 
     49 N          -2.1917  -17.2222  -43.1910 N.am      5 UNK        -0.5000 
     50 C          -2.2276  -16.9193  -44.4887 C.2       4 UNK         0.5000 
     51 O          -1.8929  -17.6917  -45.3883 O.2       4 UNK        -0.5000 
     52 CA         -2.7328  -15.5054  -44.8362 C.3       4 UNK         0.1400 
     53 CB         -4.2643  -15.4120  -44.7016 C.3       4 UNK        -0.1800 
     54 N          -2.0647  -14.4250  -44.0982 N.am      4 UNK        -0.5000 
     55 C          -2.0635  -14.1506  -42.7826 C.2       3 UNK         0.5000 
     56 O          -2.6767  -14.8109  -41.9394 O.2       3 UNK        -0.5000 
     57 CA         -1.1788  -12.9625  -42.3423 C.3       3 UNK         0.1400 
     58 CB         -0.8539  -12.9659  -40.8366 C.3       3 UNK        -0.1800 
     59 N           0.0560  -12.8512  -43.1241 N.am      3 UNK        -0.5000 
     60 C           0.9951  -13.7936  -43.2843 C.2       2 UNK         0.5000 
     61 O           0.9716  -14.9091  -42.7517 O.2       2 UNK        -0.5000 
     62 CA          2.1294  -13.4322  -44.2585 C.3       2 UNK         0.1400 
     63 CB          3.4980  -13.5203  -43.5658 C.3       2 UNK        -0.1800 
     64 N           2.1279  -14.3094  -45.4255 N.am      2 UNK        -0.5000 
     65 C           1.1082  -14.5293  -46.2661 C.2       1 UNK         0.5000 
     66 O           0.0409  -13.9125  -46.2323 O.2       1 UNK        -0.5000 
     67 C           0.6332  -22.9663  -46.2602 C.2       11 UNK         0.5000 
     68 O          -0.1330  -23.8329  -46.6828 O.2       11 UNK        -0.5000 
     69 N           0.2416  -21.9153  -45.5186 N.am      12 UNK        -0.5000 
     70 CA         -1.1313  -21.5944  -45.1045 C.3       12 UNK         0.1400 
     71 CB         -1.6144  -22.6045  -44.0422 C.3       12 UNK        -0.1800 
     72 C          -2.1208  -21.4451  -46.2834 C.2       12 UNK         0.5000 
     73 O          -3.3011  -21.7722  -46.1487 O.2       12 UNK        -0.5000 
     74 N          -1.6083  -20.9913  -47.4344 N.am      13 UNK        -0.5000 
     75 CA         -2.3067  -21.0329  -48.7173 C.3       13 UNK         0.1400 
     76 CB         -1.2644  -21.1502  -49.8367 C.3       13 UNK        -0.1800 
     77 C          -3.2524  -19.8441  -48.9600 C.2       13 UNK         0.5000 
     78 O          -4.0533  -19.9136  -49.8920 O.2       13 UNK        -0.5000 
     79 N          -3.1586  -18.7873  -48.1382 N.am      14 UNK        -0.5000 
     80 CA         -3.9836  -17.5762  -48.1636 C.3       14 UNK         0.1400 
     81 CB         -5.4034  -17.8927  -47.6435 C.3       14 UNK        -0.1800 
     82 C          -3.9644  -16.8729  -49.5380 C.2       14 UNK         0.5000 
     83 O          -2.9692  -16.2291  -49.8704 O.2       14 UNK        -0.5000 
     84 N          -5.0505  -17.0141  -50.3113 N.am      15 UNK        -0.5000 
     85 CA         -5.2054  -16.4639  -51.6608 C.3       15 UNK         0.1400 
     86 CB         -6.6972  -16.2088  -51.9334 C.3       15 UNK        -0.1800 
     87 C          -4.5589  -17.3341  -52.7630 C.2       15 UNK         0.5000 
     88 O          -4.6870  -17.0003  -53.9420 O.2       15 UNK        -0.5000 
     89 N          -3.8701  -18.4189  -52.3778 N.am      16 UNK        -0.5000 
     90 CA         -3.0370  -19.2837  -53.2136 C.3       16 UNK         0.1400 
     91 CB         -1.8586  -18.4811  -53.8110 C.3       16 UNK        -0.1800 
     92 C          -3.8752  -20.0438  -54.2551 C.2       16 UNK         0.5000 
     93 O          -4.6733  -20.9038  -53.8780 O.2       16 UNK        -0.5000 
     94 N          -3.6958  -19.7288  -55.5435 N.am      17 UNK        -0.5000 
     95 CA         -4.4507  -20.3105  -56.6535 C.3       17 UNK         0.1400 
     96 CB         -3.8248  -19.8640  -57.9820 C.3       17 UNK        -0.1800 
     97 C          -5.9505  -19.9618  -56.6080 C.2       17 UNK         0.5000 
     98 O          -6.7723  -20.7947  -56.9884 O.2       17 UNK        -0.5000 
     99 N          -6.2895  -18.7703  -56.0924 N.am      18 UNK        -0.5000 
    100 CA        -7.6724  -18.3231  -55.9017 C.3       18 UNK         0.1400 
    101 CB        -7.7015  -16.7944  -55.7656 C.3       18 UNK        -0.1800 
    102 C         -8.3649  -19.0035  -54.7034 C.2       18 UNK         0.5000 
    103 O         -9.5933  -19.0808  -54.6830 O.2       18 UNK        -0.5000 
    104 N         -7.5739  -19.5171  -53.7497 N.am      19 UNK        -0.5000 
    105 CA        -8.0408  -20.3639  -52.6478 C.3       19 UNK         0.1400 
    106 CB        -7.1045  -20.1789  -51.4405 C.3       19 UNK        -0.1800 
    107 C         -8.1067  -21.8538  -53.0429 C.2       19 UNK         0.5000 
    108 O         -8.5855  -22.6634  -52.2483 O.2       19 UNK        -0.5000 
    109 N         -7.5909  -22.1914  -54.2365 N.am      20 UNK        -0.5000 
    110 CA        -7.3629  -23.5374  -54.7740 C.3       20 UNK         0.1400 
    111 CB        -8.6904  -24.3021  -54.9566 C.3       20 UNK        -0.1800 
    112 C         -6.3097  -24.3394  -53.9770 C.2       20 UNK         0.5000 
    113 O         -6.2784  -25.5677  -54.0652 O.2       20 UNK        -0.5000 
    114 N         -5.4513  -23.6333  -53.2289 N.am      21 UNK        -0.5000 
    115 CA        -4.3758  -24.2037  -52.4213 C.3       21 UNK         0.1400 
    116 CB        -4.0705  -23.2486  -51.2573 C.3       21 UNK        -0.1800 
    117 C         -3.1101  -24.4591  -53.2562 C.2       21 UNK         0.5000 
    118 O         -2.3991  -25.4302  -52.9953 O.2       21 UNK        -0.5000 
    119 N         -2.8658  -23.5893  -54.2444 N.am      22 UNK        -0.5000 
    120 CA        -1.7000  -23.6256  -55.1470 C.3       22 UNK         0.1400 
    121 C         -2.0957  -23.8719  -56.6328 C.2       22 UNK         0.5000 
    122 N         -3.3332  -24.2450  -56.9372 N.am      22 UNK        -0.7600 
    123 O         -1.2670  -23.7360  -57.5286 O.2       22 UNK        -0.5000 
    124 C124       -0.8081  -22.3634  -54.9941 C.3       23 UNK        -0.0398 
    125 S125       -0.2641  -22.0774  -53.2748 S.3       23 UNK        -0.2404 
    126 C126        1.4147  -21.4174  -53.5172 C.3       23 UNK        -0.0205 
    127 H127        4.1701  -14.5051  -49.9499 H         1 UNK         0.0600 
    128 H128        5.3264  -15.7213  -49.4012 H         1 UNK         0.0600 
    129 H129        5.3510  -14.0992  -48.7005 H         1 UNK         0.0600 
    130 H130        2.1367  -14.7839  -49.0906 H         1 UNK         0.3000 
    131 H131        1.6904  -16.4974  -46.7611 H         1 UNK         0.0600 
    132 H132       -0.7992  -16.0322  -47.4493 H         1 UNK         0.0800 
    133 H133       -0.1416  -15.3771  -48.9247 H         1 UNK         0.0800 
    134 H134        1.7982  -16.7719  -50.2406 H         1 UNK         0.0800 
    135 H135        0.3050  -17.2317  -51.0222 H         1 UNK         0.0800 
    136 H136        0.5050  -19.1064  -52.4681 H         1 UNK         0.1150 
    137 H137        3.4206  -22.1676  -51.7828 H         1 UNK         0.1150 
    138 H138        3.1018  -18.8527  -49.0776 H         1 UNK         0.1150 
    139 H139        4.8839  -20.3833  -48.7888 H         1 UNK         0.0800 
    140 H140        5.3690  -21.3714  -50.1417 H         1 UNK         0.0800 
    141 H141        2.6526  -21.0815  -47.3325 H         1 UNK         0.0800 
    142 H142        1.7419  -22.0354  -48.4815 H         1 UNK         0.0800 
    143 H143        2.2671  -24.0900  -46.9762 H         1 UNK         0.0600 
    144 H144        2.8156  -22.0078  -44.8904 H         1 UNK         0.3000 
    145 H145        4.3836  -24.4158  -42.8604 H         1 UNK         0.0600 
    146 H146        6.2657  -22.8027  -42.7245 H         1 UNK         0.0600 
    147 H147        5.7602  -22.0441  -44.2354 H         1 UNK         0.0600 
    148 H148        6.3495  -23.7016  -44.2307 H         1 UNK         0.0600 
    149 H149        4.0176  -21.6096  -42.5337 H         1 UNK         0.3000 
    150 H150        0.6673  -21.4651  -41.7089 H         1 UNK         0.0600 
    151 H151        1.3248  -22.6205  -39.5904 H         1 UNK         0.0600 
    152 H152        1.2664  -20.8791  -39.3727 H         1 UNK         0.0600 
    153 H153        2.8216  -21.6948  -39.5379 H         1 UNK         0.0600 
    154 H154        2.7568  -19.6887  -41.0005 H         1 UNK         0.3000 
    155 H155        3.9921  -18.3434  -43.0138 H         1 UNK         0.0600 
    156 H156        2.8667  -18.1372  -45.2344 H         1 UNK         0.0600 
    157 H157        3.1487  -16.5878  -44.4733 H         1 UNK         0.0600 
    158 H158        1.5239  -17.2865  -44.4677 H         1 UNK         0.0600 
    159 H159        1.8515  -16.5790  -42.1925 H         1 UNK         0.3000 
    160 H160        2.8167  -16.6503  -38.7095 H         1 UNK         0.0600 
    161 H161        2.6687  -14.5087  -40.8861 H         1 UNK         0.0600 
    162 H162        4.0688  -14.8839  -39.8963 H         1 UNK         0.0600 
    163 H163        2.6169  -14.2322  -39.1517 H         1 UNK         0.0600 
    164 H164        0.5634  -16.0738  -40.6058 H         1 UNK         0.3000 
    165 H165       -1.6315  -17.9025  -38.5348 H         1 UNK         0.0600 
    166 H166       -3.1430  -15.9488  -38.6835 H         1 UNK         0.0600 
    167 H167       -1.9092  -15.6956  -37.4585 H         1 UNK         0.0600 
    168 H168       -1.7765  -14.8891  -39.0119 H         1 UNK         0.0600 
    169 H169       -2.0469  -16.4378  -40.9556 H         1 UNK         0.3000 
    170 H170       -0.9238  -18.8698  -43.1660 H         1 UNK         0.0600 
    171 H171       -2.6828  -20.4493  -42.2499 H         1 UNK         0.0600 
    172 H172       -3.8363  -19.1252  -42.2026 H         1 UNK         0.0600 
    173 H173       -3.2147  -19.6961  -43.7477 H         1 UNK         0.0600 
    174 H174       -2.4778  -16.4851  -42.5532 H         1 UNK         0.3000 
    175 H175       -2.4880  -15.3343  -45.8848 H         1 UNK         0.0600 
    176 H176       -4.5954  -15.5479  -43.6717 H         1 UNK         0.0600 
    177 H177       -4.6303  -14.4445  -45.0451 H         1 UNK         0.0600 
    178 H178       -4.7570  -16.1770  -45.3013 H         1 UNK         0.0600 
    179 H179       -1.4470  -13.8655  -44.6762 H         1 UNK         0.3000 
    180 H180       -1.7597  -12.0632  -42.5513 H         1 UNK         0.0600 
    181 H181       -0.2467  -12.1028  -40.5641 H         1 UNK         0.0600 
    182 H182       -0.3069  -13.8613  -40.5431 H         1 UNK         0.0600 
    183 H183       -1.7663  -12.9158  -40.2419 H         1 UNK         0.0600 
    184 H184        0.1626  -11.9855  -43.6345 H         1 UNK         0.3000 
    185 H185        1.9905  -12.4091  -44.6132 H         1 UNK         0.0600 
    186 H186        3.7109  -14.5309  -43.2150 H         1 UNK         0.0600 
    187 H187        4.3015  -13.2254  -44.2411 H         1 UNK         0.0600 
    188 H188        3.5408  -12.8568  -42.7012 H         1 UNK         0.0600 
    189 H189        2.9735  -14.8465  -45.5839 H         1 UNK         0.3000 
    190 H190        0.9379  -21.2585  -45.1745 H         1 UNK         0.3000 
    191 H191       -1.0782  -20.6129  -44.6372 H         1 UNK         0.0600 
    192 H192       -2.6039  -22.3455  -43.6659 H         1 UNK         0.0600 
    193 H193       -0.9387  -22.6301  -43.1878 H         1 UNK         0.0600 
    194 H194       -1.6793  -23.6149  -44.4463 H         1 UNK         0.0600 
    195 H195       -0.6402  -20.7078  -47.4545 H         1 UNK         0.3000 
    196 H196       -2.9217  -21.9348  -48.7475 H         1 UNK         0.0600 
    197 H197       -0.6243  -20.2721  -49.8856 H         1 UNK         0.0600 
    198 H198       -1.7454  -21.2572  -50.8068 H         1 UNK         0.0600 
    199 H199       -0.6269  -22.0237  -49.6987 H         1 UNK         0.0600 
    200 H200       -2.4467  -18.8083  -47.4188 H         1 UNK         0.3000 
    201 H201       -3.5255  -16.8774  -47.4649 H         1 UNK         0.0600 
    202 H202       -5.9122  -18.6413  -48.2518 H         1 UNK         0.0600 
    203 H203       -6.0254  -16.9968  -47.6251 H         1 UNK         0.0600 
    204 H204       -5.3632  -18.2765  -46.6239 H         1 UNK         0.0600 
    205 H205       -5.8032  -17.5945  -49.9713 H         1 UNK         0.3000 
    206 H206       -4.7006  -15.4962  -51.6931 H         1 UNK         0.0600 
    207 H207       -7.1691  -15.6840  -51.1026 H         1 UNK         0.0600 
    208 H208       -6.8238  -15.5809  -52.8149 H         1 UNK         0.0600 
    209 H209       -7.2501  -17.1307  -52.1067 H         1 UNK         0.0600 
    210 H210       -3.9166  -18.6902  -51.3996 H         1 UNK         0.3000 
    211 H211       -2.6188  -20.0393  -52.5499 H         1 UNK         0.0600 
    212 H212       -2.1819  -17.7330  -54.5352 H         1 UNK         0.0600 
    213 H213       -1.1453  -19.1389  -54.3085 H         1 UNK         0.0600 
    214 H214       -1.3221  -17.9482  -53.0267 H         1 UNK         0.0600 
    215 H215       -3.0392  -18.9970  -55.7738 H         1 UNK         0.3000 
    216 H216       -4.3642  -21.3970  -56.5860 H         1 UNK         0.0600 
    217 H217       -3.8534  -18.7797  -58.0971 H         1 UNK         0.0600 
    218 H218       -2.7849  -20.1837  -58.0539 H         1 UNK         0.0600 
    219 H219       -4.3562  -20.2992  -58.8294 H         1 UNK         0.0600 
    220 H220       -5.5613  -18.1517  -55.7560 H         1 UNK         0.3000 
    221 H221       -8.2446  -18.5858  -56.7943 H         1 UNK         0.0600 
    222 H222       -8.7202  -16.4320  -55.6218 H         1 UNK         0.0600 
    223 H223       -7.1091  -16.4549  -54.9185 H         1 UNK         0.0600 
    224 H224       -7.3088  -16.3129  -56.6612 H         1 UNK         0.0600 
    225 H225       -6.5723  -19.4342  -53.8554 H         1 UNK         0.3000 
    226 H226       -9.0455  -20.0585  -52.3483 H         1 UNK         0.0600 
    227 H227       -7.1132  -19.1530  -51.0793 H         1 UNK         0.0600 
    228 H228       -7.4103  -20.8092  -50.6045 H         1 UNK         0.0600 
    229 H229       -6.0747  -20.4423  -51.6812 H         1 UNK         0.0600 
    230 H230       -7.2409  -21.4420  -54.8175 H         1 UNK         0.3000 
    231 H231       -6.9340  -23.3906  -55.7661 H         1 UNK         0.0600 
    232 H232       -8.5350  -25.2255  -55.5155 H         1 UNK         0.0600 
    233 H233       -9.4148  -23.7067  -55.5123 H         1 UNK         0.0600 
    234 H234       -9.1395  -24.5733  -54.0010 H         1 UNK         0.0600 
    235 H235       -5.5004  -22.6203  -53.2608 H         1 UNK         0.3000 
    236 H236       -4.7042  -25.1574  -52.0025 H         1 UNK         0.0600 
    237 H237       -4.9418  -23.1164  -50.6156 H         1 UNK         0.0600 
    238 H238       -3.2616  -23.6348  -50.6359 H         1 UNK         0.0600 
    239 H239       -3.7708  -22.2630  -51.6142 H         1 UNK         0.0600 
    240 H240       -3.5102  -22.8218  -54.3745 H         1 UNK         0.3000 
    241 H241       -1.0757  -24.4830  -54.8906 H         1 UNK         0.0600 
    242 H242       -3.5744  -24.4141  -57.9013 H         1 UNK         0.3800 
    243 H243       -4.0052  -24.4298  -56.2111 H         1 UNK         0.3800 
    244 H244       -1.3380  -21.4760  -55.3410 H         1 UNK         0.0800 
    245 H245        0.0780  -22.4542  -55.6248 H         1 UNK         0.0800 
    246 H246        2.0861  -22.2299  -53.7991 H         1 UNK         0.0800 
    247 H247        1.4139  -20.7077  -54.3459 H         1 UNK         0.0800 
@<TRIPOS>BOND
     1    1    2 1    
     2    1  127 1    
     3    1  128 1    
     4    1  129 1    
     5    2    3 2    
     6    2    4 am   BACKBONE|DICT|INTERRES
     7    4    5 1    
     8    4  130 1    
     9    5    6 1    
    10    5   65 1    
    11    5  131 1    
    12    6    7 1    
    13    6  132 1    
    14    6  133 1    
    15    7    8 1    
    16    8    9 1    
    17    8  134 1    
    18    8  135 1    
    19    9   10 ar   
    20    9   14 ar   
    21   10   11 ar   
    22   10  136 1    
    23   11   12 ar   
    24   11  126 1    
    25   12   13 ar   
    26   12  137 1    
    27   13   14 ar   
    28   13   15 1    
    29   14  138 1    
    30   15   16 1    
    31   15  139 1    
    32   15  140 1    
    33   16   17 1    
    34   17   18 1    
    35   17  141 1    
    36   17  142 1    
    37   18   19 1    
    38   18   67 1    
    39   18  143 1    
    40   19   20 am   BACKBONE|DICT|INTERRES
    41   19  144 1    
    42   20   21 2    
    43   20   22 1    
    44   22   23 1    
    45   22   24 1    
    46   22  145 1    
    47   23  146 1    
    48   23  147 1    
    49   23  148 1    
    50   24   25 am   BACKBONE|DICT|INTERRES
    51   24  149 1    
    52   25   26 2    
    53   25   27 1    
    54   27   28 1    
    55   27   29 1    
    56   27  150 1    
    57   28  151 1    
    58   28  152 1    
    59   28  153 1    
    60   29   30 am   BACKBONE|DICT|INTERRES
    61   29  154 1    
    62   30   31 2    
    63   30   32 1    
    64   32   33 1    
    65   32   34 1    
    66   32  155 1    
    67   33  156 1    
    68   33  157 1    
    69   33  158 1    
    70   34   35 am   BACKBONE|DICT|INTERRES
    71   34  159 1    
    72   35   36 2    
    73   35   37 1    
    74   37   38 1    
    75   37   39 1    
    76   37  160 1    
    77   38  161 1    
    78   38  162 1    
    79   38  163 1    
    80   39   40 am   BACKBONE|DICT|INTERRES
    81   39  164 1    
    82   40   41 2    
    83   40   42 1    
    84   42   43 1    
    85   42   44 1    
    86   42  165 1    
    87   43  166 1    
    88   43  167 1    
    89   43  168 1    
    90   44   45 am   BACKBONE|DICT|INTERRES
    91   44  169 1    
    92   45   46 2    
    93   45   47 1    
    94   47   48 1    
    95   47   49 1    
    96   47  170 1    
    97   48  171 1    
    98   48  172 1    
    99   48  173 1    
   100   49   50 am   BACKBONE|DICT|INTERRES
   101   49  174 1    
   102   50   51 2    
   103   50   52 1    
   104   52   53 1    
   105   52   54 1    
   106   52  175 1    
   107   53  176 1    
   108   53  177 1    
   109   53  178 1    
   110   54   55 am   BACKBONE|DICT|INTERRES
   111   54  179 1    
   112   55   56 2    
   113   55   57 1    
   114   57   58 1    
   115   57   59 1    
   116   57  180 1    
   117   58  181 1    
   118   58  182 1    
   119   58  183 1    
   120   59   60 am   BACKBONE|DICT|INTERRES
   121   59  184 1    
   122   60   61 2    
   123   60   62 1    
   124   62   63 1    
   125   62   64 1    
   126   62  185 1    
   127   63  186 1    
   128   63  187 1    
   129   63  188 1    
   130   64   65 am   BACKBONE|DICT|INTERRES
   131   64  189 1    
   132   65   66 2    
   133   67   68 2    
   134   67   69 am   BACKBONE|DICT|INTERRES
   135   69   70 1    
   136   69  190 1    
   137   70   71 1    
   138   70   72 1    
   139   70  191 1    
   140   71  192 1    
   141   71  193 1    
   142   71  194 1    
   143   72   73 2    
   144   72   74 am   BACKBONE|DICT|INTERRES
   145   74   75 1    
   146   74  195 1    
   147   75   76 1    
   148   75   77 1    
   149   75  196 1    
   150   76  197 1    
   151   76  198 1    
   152   76  199 1    
   153   77   78 2    
   154   77   79 am   BACKBONE|DICT|INTERRES
   155   79   80 1    
   156   79  200 1    
   157   80   81 1    
   158   80   82 1    
   159   80  201 1    
   160   81  202 1    
   161   81  203 1    
   162   81  204 1    
   163   82   83 2    
   164   82   84 am   BACKBONE|DICT|INTERRES
   165   84   85 1    
   166   84  205 1    
   167   85   86 1    
   168   85   87 1    
   169   85  206 1    
   170   86  207 1    
   171   86  208 1    
   172   86  209 1    
   173   87   88 2    
   174   87   89 am   BACKBONE|DICT|INTERRES
   175   89   90 1    
   176   89  210 1    
   177   90   91 1    
   178   90   92 1    
   179   90  211 1    
   180   91  212 1    
   181   91  213 1    
   182   91  214 1    
   183   92   93 2    
   184   92   94 am   BACKBONE|DICT|INTERRES
   185   94   95 1    
   186   94  215 1    
   187   95   96 1    
   188   95   97 1    
   189   95  216 1    
   190   96  217 1    
   191   96  218 1    
   192   96  219 1    
   193   97   98 2    
   194   97   99 am   BACKBONE|DICT|INTERRES
   195   99  100 1    
   196   99  220 1    
   197  100  101 1    
   198  100  102 1    
   199  100  221 1    
   200  101  222 1    
   201  101  223 1    
   202  101  224 1    
   203  102  103 2    
   204  102  104 am   BACKBONE|DICT|INTERRES
   205  104  105 1    
   206  104  225 1    
   207  105  106 1    
   208  105  107 1    
   209  105  226 1    
   210  106  227 1    
   211  106  228 1    
   212  106  229 1    
   213  107  108 2    
   214  107  109 am   BACKBONE|DICT|INTERRES
   215  109  110 1    
   216  109  230 1    
   217  110  111 1    
   218  110  112 1    
   219  110  231 1    
   220  111  232 1    
   221  111  233 1    
   222  111  234 1    
   223  112  113 2    
   224  112  114 am   BACKBONE|DICT|INTERRES
   225  114  115 1    
   226  114  235 1    
   227  115  116 1    
   228  115  117 1    
   229  115  236 1    
   230  116  237 1    
   231  116  238 1    
   232  116  239 1    
   233  117  118 2    
   234  117  119 am   BACKBONE|DICT|INTERRES
   235  119  120 1    
   236  119  240 1    
   237  120  121 1    
   238  120  124 1    
   239  120  241 1    
   240  121  122 am   BACKBONE|DICT|INTERRES
   241  121  123 2    
   242  122  242 1    
   243  122  243 1    
   244  124  125 1    
   245  124  244 1    
   246  124  245 1    
   247  125  126 1    
   248  126  246 1    
   249  126  247 1    
@<TRIPOS>SUBSTRUCTURE
     1 UNK         1 GROUP             0       ****    0 ROOT    
