@<TRIPOS>MOLECULE
3R540
247   249    1
SMALL
USER_CHARGES


@<TRIPOS>ATOM
      1 CA          2.2606  -21.3165  -43.0458 C.3       0 UNK        -0.1800 
      2 C           2.9079  -20.6647  -44.2587 C.2       0 UNK         0.5000 
      3 O           4.1305  -20.6874  -44.3917 O.2       0 UNK        -0.5000 
      4 N           2.0899  -20.0777  -45.1390 N.am      1 UNK        -0.5000 
      5 CA          2.4403  -19.3877  -46.3871 C.3       1 UNK         0.1400 
      6 C6          3.2544  -20.2582  -47.3951 C.3       23 UNK        -0.0398 
      7 S7          2.3850  -20.5183  -48.9766 S.3       23 UNK        -0.2404 
      8 C8          2.7762  -18.9862  -49.8790 C.3       23 UNK        -0.0205 
      9 C9          1.5128  -18.3891  -50.4749 C.ar      23 UNK        -0.0193 
     10 C10         1.2943  -18.4001  -51.8550 C.ar      23 UNK        -0.1150 
     11 C11         0.1095  -17.8820  -52.3893 C.ar      23 UNK        -0.0193 
     12 C12        -0.8627  -17.3578  -51.5293 C.ar      23 UNK        -0.1150 
     13 C13        -0.6480  -17.3334  -50.1484 C.ar      23 UNK        -0.0193 
     14 C14         0.5483  -17.8339  -49.6325 C.ar      23 UNK        -0.1150 
     15 C15        -1.6908  -16.7519  -49.2060 C.3       23 UNK        -0.0205 
     16 S16        -3.1398  -17.8339  -48.9825 S.3       23 UNK        -0.2404 
     17 C17        -2.4121  -19.3826  -48.3434 C.3       23 UNK        -0.0398 
     18 CA         -1.6973  -19.2815  -46.9629 C.3       11 UNK         0.1400 
     19 N          -2.4690  -18.6147  -45.9137 N.am      11 UNK        -0.5000 
     20 C          -3.6295  -19.0306  -45.3927 C.2       10 UNK         0.5000 
     21 O          -4.2805  -19.9795  -45.8299 O.2       10 UNK        -0.5000 
     22 CA         -4.1387  -18.2837  -44.1474 C.3       10 UNK         0.1400 
     23 CB         -3.6975  -19.0248  -42.8757 C.3       10 UNK        -0.1800 
     24 N          -3.6872  -16.8927  -44.0704 N.am      10 UNK        -0.5000 
     25 C          -4.1867  -15.8947  -44.8126 C.2       9 UNK         0.5000 
     26 O          -5.0647  -16.0472  -45.6624 O.2       9 UNK        -0.5000 
     27 CA         -3.6259  -14.4861  -44.5492 C.3       9 UNK         0.1400 
     28 CB         -4.2304  -13.8914  -43.2676 C.3       9 UNK        -0.1800 
     29 N          -2.1667  -14.4785  -44.4548 N.am      9 UNK        -0.5000 
     30 C          -1.3442  -14.5536  -45.5101 C.2       8 UNK         0.5000 
     31 O          -1.7367  -14.5668  -46.6757 O.2       8 UNK        -0.5000 
     32 CA          0.1690  -14.6285  -45.2260 C.3       8 UNK         0.1400 
     33 CB          0.7835  -13.2220  -45.1740 C.3       8 UNK        -0.1800 
     34 N           0.4861  -15.3331  -43.9855 N.am      8 UNK        -0.5000 
     35 C           0.2874  -16.6409  -43.7792 C.2       7 UNK         0.5000 
     36 O          -0.1508  -17.4114  -44.6318 O.2       7 UNK        -0.5000 
     37 CA          0.5843  -17.1620  -42.3629 C.3       7 UNK         0.1400 
     38 CB          2.0868  -17.4228  -42.1751 C.3       7 UNK        -0.1800 
     39 N           0.1156  -16.2411  -41.3258 N.am      7 UNK        -0.5000 
     40 C          -1.1730  -15.9700  -41.0746 C.2       6 UNK         0.5000 
     41 O          -2.1104  -16.4781  -41.6874 O.2       6 UNK        -0.5000 
     42 CA         -1.4596  -14.9212  -39.9852 C.3       6 UNK         0.1400 
     43 CB         -1.3575  -15.5479  -38.5867 C.3       6 UNK        -0.1800 
     44 N          -0.5612  -13.7696  -40.0702 N.am      6 UNK        -0.5000 
     45 C          -0.5581  -12.8865  -41.0789 C.2       5 UNK         0.5000 
     46 O          -1.3419  -12.9266  -42.0257 O.2       5 UNK        -0.5000 
     47 CA          0.5429  -11.8099  -41.0508 C.3       5 UNK         0.1400 
     48 CB          0.1040  -10.6082  -40.2009 C.3       5 UNK        -0.1800 
     49 N           1.8323  -12.3095  -40.5620 N.am      5 UNK        -0.5000 
     50 C           2.5276  -13.2986  -41.1378 C.2       4 UNK         0.5000 
     51 O           2.1337  -13.9256  -42.1238 O.2       4 UNK        -0.5000 
     52 CA          3.8554  -13.6910  -40.4664 C.3       4 UNK         0.1400 
     53 CB          3.5966  -14.6904  -39.3279 C.3       4 UNK        -0.1800 
     54 N           4.7812  -14.2996  -41.4214 N.am      4 UNK        -0.5000 
     55 C           5.3631  -13.6552  -42.4428 C.2       3 UNK         0.5000 
     56 O           5.2572  -12.4420  -42.6284 O.2       3 UNK        -0.5000 
     57 CA          6.2039  -14.4958  -43.4237 C.3       3 UNK         0.1400 
     58 CB          7.6547  -13.9879  -43.4713 C.3       3 UNK        -0.1800 
     59 N           6.2253  -15.9180  -43.0567 N.am      3 UNK        -0.5000 
     60 C           5.6595  -16.9561  -43.6879 C.2       2 UNK         0.5000 
     61 O           5.7413  -18.0923  -43.2202 O.2       2 UNK        -0.5000 
     62 CA          4.9179  -16.7513  -45.0248 C.3       2 UNK         0.1400 
     63 CB          5.9114  -16.5439  -46.1877 C.3       2 UNK        -0.1800 
     64 N           4.1076  -17.9327  -45.3052 N.am      2 UNK        -0.5000 
     65 C           3.0879  -18.0031  -46.1659 C.2       1 UNK         0.5000 
     66 O           2.6583  -17.0305  -46.7860 O.2       1 UNK        -0.5000 
     67 C          -1.1480  -20.6319  -46.4355 C.2       11 UNK         0.5000 
     68 O          -0.7408  -20.7048  -45.2728 O.2       11 UNK        -0.5000 
     69 N          -1.1205  -21.6675  -47.2794 N.am      12 UNK        -0.5000 
     70 CA         -0.7566  -23.0421  -46.9551 C.3       12 UNK         0.1400 
     71 CB          0.7732  -23.1957  -46.8774 C.3       12 UNK        -0.1800 
     72 C          -1.3414  -23.9419  -48.0515 C.2       12 UNK         0.5000 
     73 O          -1.7792  -23.4329  -49.0871 O.2       12 UNK        -0.5000 
     74 N          -1.3058  -25.2636  -47.8374 N.am      13 UNK        -0.5000 
     75 CA         -1.8167  -26.2755  -48.7717 C.3       13 UNK         0.1400 
     76 CB         -1.6759  -27.6672  -48.1390 C.3       13 UNK        -0.1800 
     77 C          -1.1560  -26.2464  -50.1665 C.2       13 UNK         0.5000 
     78 O          -1.7955  -26.6168  -51.1520 O.2       13 UNK        -0.5000 
     79 N           0.0920  -25.7625  -50.2284 N.am      14 UNK        -0.5000 
     80 CA          0.8436  -25.5166  -51.4588 C.3       14 UNK         0.1400 
     81 CB          2.2890  -25.1495  -51.0898 C.3       14 UNK        -0.1800 
     82 C           0.2267  -24.4213  -52.3528 C.2       14 UNK         0.5000 
     83 O           0.4205  -24.4593  -53.5682 O.2       14 UNK        -0.5000 
     84 N          -0.5277  -23.4846  -51.7596 N.am      15 UNK        -0.5000 
     85 CA         -1.1882  -22.3744  -52.4455 C.3       15 UNK         0.1400 
     86 CB         -1.3019  -21.1842  -51.4781 C.3       15 UNK        -0.1800 
     87 C          -2.5581  -22.7926  -53.0128 C.2       15 UNK         0.5000 
     88 O          -3.5594  -22.1133  -52.7748 O.2       15 UNK        -0.5000 
     89 N          -2.5867  -23.9164  -53.7429 N.am      16 UNK        -0.5000 
     90 CA         -3.7692  -24.5529  -54.3337 C.3       16 UNK         0.1400 
     91 CB         -4.3315  -23.6840  -55.4754 C.3       16 UNK        -0.1800 
     92 C          -4.8200  -24.9019  -53.2594 C.2       16 UNK         0.5000 
     93 O          -5.9453  -24.3941  -53.2883 O.2       16 UNK        -0.5000 
     94 N          -4.3813  -25.7021  -52.2740 N.am      17 UNK        -0.5000 
     95 CA         -5.1169  -26.1571  -51.0850 C.3       17 UNK         0.1400 
     96 CB         -6.3422  -27.0012  -51.4942 C.3       17 UNK        -0.1800 
     97 C          -5.4999  -25.0229  -50.1084 C.2       17 UNK         0.5000 
     98 O          -6.3060  -25.2533  -49.2070 O.2       17 UNK        -0.5000 
     99 N          -4.9552  -23.8157  -50.3337 N.am      18 UNK        -0.5000 
    100 CA        -5.3494  -22.5241  -49.7567 C.3       18 UNK         0.1400 
    101 CB        -5.1345  -22.4984  -48.2297 C.3       18 UNK        -0.1800 
    102 C         -6.7826  -22.0934  -50.1490 C.2       18 UNK         0.5000 
    103 O         -7.3113  -21.1440  -49.5697 O.2       18 UNK        -0.5000 
    104 N         -7.3909  -22.7910  -51.1188 N.am      19 UNK        -0.5000 
    105 CA        -8.7657  -22.5873  -51.5604 C.3       19 UNK         0.1400 
    106 CB        -9.3559  -23.9333  -52.0113 C.3       19 UNK        -0.1800 
    107 C         -8.8194  -21.5552  -52.6916 C.2       19 UNK         0.5000 
    108 O         -9.6138  -20.6167  -52.6222 O.2       19 UNK        -0.5000 
    109 N         -7.9572  -21.7384  -53.7007 N.am      20 UNK        -0.5000 
    110 CA        -7.8422  -20.8345  -54.8459 C.3       20 UNK         0.1400 
    111 CB        -7.5961  -21.6604  -56.1180 C.3       20 UNK        -0.1800 
    112 C         -6.7463  -19.7697  -54.6531 C.2       20 UNK         0.5000 
    113 O         -6.6591  -18.8619  -55.4802 O.2       20 UNK        -0.5000 
    114 N         -5.9232  -19.8999  -53.5975 N.am      21 UNK        -0.5000 
    115 CA        -4.8105  -19.0130  -53.2228 C.3       21 UNK         0.1400 
    116 CB        -5.3486  -17.6839  -52.6569 C.3       21 UNK        -0.1800 
    117 C         -3.8153  -18.8186  -54.3857 C.2       21 UNK         0.5000 
    118 O         -3.5664  -17.6943  -54.8230 O.2       21 UNK        -0.5000 
    119 N         -3.3316  -19.9539  -54.9004 N.am      22 UNK        -0.5000 
    120 CA        -2.4993  -20.1109  -56.1082 C.3       22 UNK         0.1400 
    121 C         -3.2561  -19.9246  -57.4588 C.2       22 UNK         0.5000 
    122 N         -4.5408  -19.5906  -57.4833 N.am      22 UNK        -0.7600 
    123 O         -2.6692  -20.1218  -58.5191 O.2       22 UNK        -0.5000 
    124 C124       -1.1725  -19.2964  -56.0933 C.3       23 UNK        -0.0398 
    125 S125       -0.1810  -19.5567  -54.5843 S.3       23 UNK        -0.2404 
    126 C126       -0.1155  -17.8729  -53.8938 C.3       23 UNK        -0.0205 
    127 H127        1.1751  -21.2123  -43.0625 H         1 UNK         0.0600 
    128 H128        2.6325  -20.8567  -42.1302 H         1 UNK         0.0600 
    129 H129        2.4999  -22.3795  -43.0186 H         1 UNK         0.0600 
    130 H130        1.0888  -20.1274  -44.9648 H         1 UNK         0.3000 
    131 H131        1.4687  -19.1742  -46.8293 H         1 UNK         0.0600 
    132 H132        3.4385  -21.2524  -46.9873 H         1 UNK         0.0800 
    133 H133        4.2481  -19.8529  -47.5961 H         1 UNK         0.0800 
    134 H134        3.5084  -19.2082  -50.6567 H         1 UNK         0.0800 
    135 H135        3.2400  -18.2518  -49.2198 H         1 UNK         0.0800 
    136 H136        2.0392  -18.8200  -52.5162 H         1 UNK         0.1150 
    137 H137       -1.7854  -16.9631  -51.9313 H         1 UNK         0.1150 
    138 H138        0.7299  -17.8032  -48.5690 H         1 UNK         0.1150 
    139 H139       -1.2482  -16.5519  -48.2305 H         1 UNK         0.0800 
    140 H140       -2.0262  -15.7871  -49.5883 H         1 UNK         0.0800 
    141 H141       -1.7077  -19.7347  -49.0956 H         1 UNK         0.0800 
    142 H142       -3.2153  -20.1195  -48.3055 H         1 UNK         0.0800 
    143 H143       -0.8194  -18.6530  -47.0985 H         1 UNK         0.0600 
    144 H144       -1.9619  -17.8896  -45.4186 H         1 UNK         0.3000 
    145 H145       -5.2302  -18.2904  -44.1815 H         1 UNK         0.0600 
    146 H146       -4.0997  -18.5490  -41.9811 H         1 UNK         0.0600 
    147 H147       -4.0491  -20.0573  -42.8818 H         1 UNK         0.0600 
    148 H148       -2.6106  -19.0487  -42.7839 H         1 UNK         0.0600 
    149 H149       -3.0007  -16.6806  -43.3508 H         1 UNK         0.3000 
    150 H150       -3.9240  -13.8474  -45.3835 H         1 UNK         0.0600 
    151 H151       -3.9124  -12.8583  -43.1266 H         1 UNK         0.0600 
    152 H152       -5.3201  -13.8924  -43.3120 H         1 UNK         0.0600 
    153 H153       -3.9364  -14.4548  -42.3816 H         1 UNK         0.0600 
    154 H154       -1.7684  -14.3880  -43.5279 H         1 UNK         0.3000 
    155 H155        0.6336  -15.1743  -46.0500 H         1 UNK         0.0600 
    156 H156        0.3667  -12.6328  -44.3564 H         1 UNK         0.0600 
    157 H157        0.5965  -12.6790  -46.1012 H         1 UNK         0.0600 
    158 H158        1.8639  -13.2692  -45.0351 H         1 UNK         0.0600 
    159 H159        0.9071  -14.7810  -43.2419 H         1 UNK         0.3000 
    160 H160        0.0557  -18.1100  -42.2405 H         1 UNK         0.0600 
    161 H161        2.2945  -17.8538  -41.1958 H         1 UNK         0.0600 
    162 H162        2.6750  -16.5108  -42.2730 H         1 UNK         0.0600 
    163 H163        2.4555  -18.1241  -42.9215 H         1 UNK         0.0600 
    164 H164        0.8230  -15.7326  -40.8182 H         1 UNK         0.3000 
    165 H165       -2.4828  -14.5660  -40.1257 H         1 UNK         0.0600 
    166 H166       -1.6360  -14.8320  -37.8132 H         1 UNK         0.0600 
    167 H167       -2.0283  -16.4030  -38.4931 H         1 UNK         0.0600 
    168 H168       -0.3470  -15.8981  -38.3722 H         1 UNK         0.0600 
    169 H169        0.1183  -13.6608  -39.3322 H         1 UNK         0.3000 
    170 H170        0.6899  -11.4655  -42.0766 H         1 UNK         0.0600 
    171 H171       -0.8460  -10.2059  -40.5556 H         1 UNK         0.0600 
    172 H172       -0.0257  -10.8807  -39.1528 H         1 UNK         0.0600 
    173 H173        0.8354   -9.8014  -40.2508 H         1 UNK         0.0600 
    174 H174        2.2133  -11.8501  -39.7473 H         1 UNK         0.3000 
    175 H175        4.3216  -12.7934  -40.0547 H         1 UNK         0.0600 
    176 H176        3.1381  -15.6101  -39.6935 H         1 UNK         0.0600 
    177 H177        4.5240  -14.9579  -38.8209 H         1 UNK         0.0600 
    178 H178        2.9295  -14.2672  -38.5759 H         1 UNK         0.0600 
    179 H179        4.8921  -15.3003  -41.3643 H         1 UNK         0.3000 
    180 H180        5.7646  -14.3355  -44.4069 H         1 UNK         0.0600 
    181 H181        8.1425  -14.0704  -42.4992 H         1 UNK         0.0600 
    182 H182        7.6967  -12.9403  -43.7724 H         1 UNK         0.0600 
    183 H183        8.2460  -14.5537  -44.1915 H         1 UNK         0.0600 
    184 H184        6.7346  -16.1206  -42.2086 H         1 UNK         0.3000 
    185 H185        4.2503  -15.8928  -44.9304 H         1 UNK         0.0600 
    186 H186        6.5181  -17.4351  -46.3531 H         1 UNK         0.0600 
    187 H187        6.5990  -15.7197  -46.0017 H         1 UNK         0.0600 
    188 H188        5.3904  -16.3202  -47.1186 H         1 UNK         0.0600 
    189 H189        4.3842  -18.7707  -44.7963 H         1 UNK         0.3000 
    190 H190       -1.4849  -21.5786  -48.2197 H         1 UNK         0.3000 
    191 H191       -1.2097  -23.3180  -46.0009 H         1 UNK         0.0600 
    192 H192        1.0538  -24.2094  -46.5907 H         1 UNK         0.0600 
    193 H193        1.2047  -22.5260  -46.1357 H         1 UNK         0.0600 
    194 H194        1.2460  -22.9851  -47.8365 H         1 UNK         0.0600 
    195 H195       -0.9217  -25.6096  -46.9697 H         1 UNK         0.3000 
    196 H196       -2.8789  -26.0721  -48.9118 H         1 UNK         0.0600 
    197 H197       -2.0743  -28.4391  -48.7990 H         1 UNK         0.0600 
    198 H198       -2.2247  -27.7315  -47.1992 H         1 UNK         0.0600 
    199 H199       -0.6326  -27.9136  -47.9376 H         1 UNK         0.0600 
    200 H200        0.5365  -25.4866  -49.3658 H         1 UNK         0.3000 
    201 H201        0.8587  -26.4436  -52.0357 H         1 UNK         0.0600 
    202 H202        2.3323  -24.2372  -50.4928 H         1 UNK         0.0600 
    203 H203        2.8911  -24.9849  -51.9844 H         1 UNK         0.0600 
    204 H204        2.7667  -25.9473  -50.5208 H         1 UNK         0.0600 
    205 H205       -0.7221  -23.5623  -50.7668 H         1 UNK         0.3000 
    206 H206       -0.5693  -22.0657  -53.2881 H         1 UNK         0.0600 
    207 H207       -0.3342  -20.9237  -51.0488 H         1 UNK         0.0600 
    208 H208       -1.6784  -20.2986  -51.9906 H         1 UNK         0.0600 
    209 H209       -1.9908  -21.4008  -50.6633 H         1 UNK         0.0600 
    210 H210       -1.7052  -24.3978  -53.8800 H         1 UNK         0.3000 
    211 H211       -3.4396  -25.4979  -54.7677 H         1 UNK         0.0600 
    212 H212       -3.5811  -23.5147  -56.2475 H         1 UNK         0.0600 
    213 H213       -4.6642  -22.7112  -55.1159 H         1 UNK         0.0600 
    214 H214       -5.1831  -24.1712  -55.9515 H         1 UNK         0.0600 
    215 H215       -3.4141  -26.0099  -52.2997 H         1 UNK         0.3000 
    216 H216       -4.4409  -26.8154  -50.5398 H         1 UNK         0.0600 
    217 H217       -6.7952  -27.4809  -50.6259 H         1 UNK         0.0600 
    218 H218       -6.0617  -27.7929  -52.1889 H         1 UNK         0.0600 
    219 H219       -7.1147  -26.3957  -51.9690 H         1 UNK         0.0600 
    220 H220       -4.3081  -23.7439  -51.1069 H         1 UNK         0.3000 
    221 H221       -4.6799  -21.7828  -50.1956 H         1 UNK         0.0600 
    222 H222       -5.8238  -23.1615  -47.7075 H         1 UNK         0.0600 
    223 H223       -4.1208  -22.7912  -47.9632 H         1 UNK         0.0600 
    224 H224       -5.2933  -21.4954  -47.8335 H         1 UNK         0.0600 
    225 H225       -6.8683  -23.5185  -51.5926 H         1 UNK         0.3000 
    226 H226       -9.3687  -22.2166  -50.7285 H         1 UNK         0.0600 
    227 H227      -10.3873  -23.8147  -52.3455 H         1 UNK         0.0600 
    228 H228       -8.7909  -24.3714  -52.8351 H         1 UNK         0.0600 
    229 H229       -9.3597  -24.6528  -51.1922 H         1 UNK         0.0600 
    230 H230       -7.3423  -22.5431  -53.6839 H         1 UNK         0.3000 
    231 H231       -8.7819  -20.2965  -54.9882 H         1 UNK         0.0600 
    232 H232       -8.3978  -22.3811  -56.2799 H         1 UNK         0.0600 
    233 H233       -6.6589  -22.2094  -56.0720 H         1 UNK         0.0600 
    234 H234       -7.5550  -21.0195  -56.9997 H         1 UNK         0.0600 
    235 H235       -6.0553  -20.7054  -53.0036 H         1 UNK         0.3000 
    236 H236       -4.2620  -19.5104  -52.4213 H         1 UNK         0.0600 
    237 H237       -6.0114  -17.8582  -51.8094 H         1 UNK         0.0600 
    238 H238       -4.5319  -17.0525  -52.3045 H         1 UNK         0.0600 
    239 H239       -5.9029  -17.1180  -53.4064 H         1 UNK         0.0600 
    240 H240       -3.6056  -20.8151  -54.4430 H         1 UNK         0.3000 
    241 H241       -2.2181  -21.1646  -56.1014 H         1 UNK         0.0600 
    242 H242       -5.0485  -19.3626  -56.6372 H         1 UNK         0.3800 
    243 H243       -4.9996  -19.4904  -58.3746 H         1 UNK         0.3800 
    244 H244       -0.5460  -19.5872  -56.9381 H         1 UNK         0.0800 
    245 H245       -1.3743  -18.2337  -56.2322 H         1 UNK         0.0800 
    246 H246        0.6895  -17.3186  -54.3779 H         1 UNK         0.0800 
    247 H247       -1.0374  -17.3398  -54.1261 H         1 UNK         0.0800 
@<TRIPOS>BOND
     1    1    2 1    
     2    1  127 1    
     3    1  128 1    
     4    1  129 1    
     5    2    3 2    
     6    2    4 am   BACKBONE|DICT|INTERRES
     7    4    5 1    
     8    4  130 1    
     9    5    6 1    
    10    5   65 1    
    11    5  131 1    
    12    6    7 1    
    13    6  132 1    
    14    6  133 1    
    15    7    8 1    
    16    8    9 1    
    17    8  134 1    
    18    8  135 1    
    19    9   10 ar   
    20    9   14 ar   
    21   10   11 ar   
    22   10  136 1    
    23   11   12 ar   
    24   11  126 1    
    25   12   13 ar   
    26   12  137 1    
    27   13   14 ar   
    28   13   15 1    
    29   14  138 1    
    30   15   16 1    
    31   15  139 1    
    32   15  140 1    
    33   16   17 1    
    34   17   18 1    
    35   17  141 1    
    36   17  142 1    
    37   18   19 1    
    38   18   67 1    
    39   18  143 1    
    40   19   20 am   BACKBONE|DICT|INTERRES
    41   19  144 1    
    42   20   21 2    
    43   20   22 1    
    44   22   23 1    
    45   22   24 1    
    46   22  145 1    
    47   23  146 1    
    48   23  147 1    
    49   23  148 1    
    50   24   25 am   BACKBONE|DICT|INTERRES
    51   24  149 1    
    52   25   26 2    
    53   25   27 1    
    54   27   28 1    
    55   27   29 1    
    56   27  150 1    
    57   28  151 1    
    58   28  152 1    
    59   28  153 1    
    60   29   30 am   BACKBONE|DICT|INTERRES
    61   29  154 1    
    62   30   31 2    
    63   30   32 1    
    64   32   33 1    
    65   32   34 1    
    66   32  155 1    
    67   33  156 1    
    68   33  157 1    
    69   33  158 1    
    70   34   35 am   BACKBONE|DICT|INTERRES
    71   34  159 1    
    72   35   36 2    
    73   35   37 1    
    74   37   38 1    
    75   37   39 1    
    76   37  160 1    
    77   38  161 1    
    78   38  162 1    
    79   38  163 1    
    80   39   40 am   BACKBONE|DICT|INTERRES
    81   39  164 1    
    82   40   41 2    
    83   40   42 1    
    84   42   43 1    
    85   42   44 1    
    86   42  165 1    
    87   43  166 1    
    88   43  167 1    
    89   43  168 1    
    90   44   45 am   BACKBONE|DICT|INTERRES
    91   44  169 1    
    92   45   46 2    
    93   45   47 1    
    94   47   48 1    
    95   47   49 1    
    96   47  170 1    
    97   48  171 1    
    98   48  172 1    
    99   48  173 1    
   100   49   50 am   BACKBONE|DICT|INTERRES
   101   49  174 1    
   102   50   51 2    
   103   50   52 1    
   104   52   53 1    
   105   52   54 1    
   106   52  175 1    
   107   53  176 1    
   108   53  177 1    
   109   53  178 1    
   110   54   55 am   BACKBONE|DICT|INTERRES
   111   54  179 1    
   112   55   56 2    
   113   55   57 1    
   114   57   58 1    
   115   57   59 1    
   116   57  180 1    
   117   58  181 1    
   118   58  182 1    
   119   58  183 1    
   120   59   60 am   BACKBONE|DICT|INTERRES
   121   59  184 1    
   122   60   61 2    
   123   60   62 1    
   124   62   63 1    
   125   62   64 1    
   126   62  185 1    
   127   63  186 1    
   128   63  187 1    
   129   63  188 1    
   130   64   65 am   BACKBONE|DICT|INTERRES
   131   64  189 1    
   132   65   66 2    
   133   67   68 2    
   134   67   69 am   BACKBONE|DICT|INTERRES
   135   69   70 1    
   136   69  190 1    
   137   70   71 1    
   138   70   72 1    
   139   70  191 1    
   140   71  192 1    
   141   71  193 1    
   142   71  194 1    
   143   72   73 2    
   144   72   74 am   BACKBONE|DICT|INTERRES
   145   74   75 1    
   146   74  195 1    
   147   75   76 1    
   148   75   77 1    
   149   75  196 1    
   150   76  197 1    
   151   76  198 1    
   152   76  199 1    
   153   77   78 2    
   154   77   79 am   BACKBONE|DICT|INTERRES
   155   79   80 1    
   156   79  200 1    
   157   80   81 1    
   158   80   82 1    
   159   80  201 1    
   160   81  202 1    
   161   81  203 1    
   162   81  204 1    
   163   82   83 2    
   164   82   84 am   BACKBONE|DICT|INTERRES
   165   84   85 1    
   166   84  205 1    
   167   85   86 1    
   168   85   87 1    
   169   85  206 1    
   170   86  207 1    
   171   86  208 1    
   172   86  209 1    
   173   87   88 2    
   174   87   89 am   BACKBONE|DICT|INTERRES
   175   89   90 1    
   176   89  210 1    
   177   90   91 1    
   178   90   92 1    
   179   90  211 1    
   180   91  212 1    
   181   91  213 1    
   182   91  214 1    
   183   92   93 2    
   184   92   94 am   BACKBONE|DICT|INTERRES
   185   94   95 1    
   186   94  215 1    
   187   95   96 1    
   188   95   97 1    
   189   95  216 1    
   190   96  217 1    
   191   96  218 1    
   192   96  219 1    
   193   97   98 2    
   194   97   99 am   BACKBONE|DICT|INTERRES
   195   99  100 1    
   196   99  220 1    
   197  100  101 1    
   198  100  102 1    
   199  100  221 1    
   200  101  222 1    
   201  101  223 1    
   202  101  224 1    
   203  102  103 2    
   204  102  104 am   BACKBONE|DICT|INTERRES
   205  104  105 1    
   206  104  225 1    
   207  105  106 1    
   208  105  107 1    
   209  105  226 1    
   210  106  227 1    
   211  106  228 1    
   212  106  229 1    
   213  107  108 2    
   214  107  109 am   BACKBONE|DICT|INTERRES
   215  109  110 1    
   216  109  230 1    
   217  110  111 1    
   218  110  112 1    
   219  110  231 1    
   220  111  232 1    
   221  111  233 1    
   222  111  234 1    
   223  112  113 2    
   224  112  114 am   BACKBONE|DICT|INTERRES
   225  114  115 1    
   226  114  235 1    
   227  115  116 1    
   228  115  117 1    
   229  115  236 1    
   230  116  237 1    
   231  116  238 1    
   232  116  239 1    
   233  117  118 2    
   234  117  119 am   BACKBONE|DICT|INTERRES
   235  119  120 1    
   236  119  240 1    
   237  120  121 1    
   238  120  124 1    
   239  120  241 1    
   240  121  122 am   BACKBONE|DICT|INTERRES
   241  121  123 2    
   242  122  242 1    
   243  122  243 1    
   244  124  125 1    
   245  124  244 1    
   246  124  245 1    
   247  125  126 1    
   248  126  246 1    
   249  126  247 1    
@<TRIPOS>SUBSTRUCTURE
     1 UNK         1 GROUP             0       ****    0 ROOT    
