@<TRIPOS>MOLECULE
3R540
247   249    1
SMALL
USER_CHARGES


@<TRIPOS>ATOM
      1 CA          1.0926   -9.3214  -52.2215 C.3       0 UNK        -0.1800 
      2 C           1.2313  -10.7757  -51.7949 C.2       0 UNK         0.5000 
      3 O           1.8022  -11.5809  -52.5320 O.2       0 UNK        -0.5000 
      4 N           0.7196  -11.1177  -50.6062 N.am      1 UNK        -0.5000 
      5 CA          0.7472  -12.4615  -50.0172 C.3       1 UNK         0.1400 
      6 C6         -0.3831  -12.6653  -48.9748 C.3       23 UNK        -0.0398 
      7 S7         -2.0529  -12.4436  -49.6770 S.3       23 UNK        -0.2404 
      8 C8         -2.4135  -14.1061  -50.3297 C.3       23 UNK        -0.0205 
      9 C9         -2.6254  -15.1374  -49.2307 C.ar      23 UNK        -0.0193 
     10 C10        -3.8298  -15.1726  -48.5245 C.ar      23 UNK        -0.1150 
     11 C11        -4.0590  -16.1515  -47.5533 C.ar      23 UNK        -0.0193 
     12 C12        -3.0656  -17.0978  -47.2831 C.ar      23 UNK        -0.1150 
     13 C13        -1.8472  -17.0619  -47.9715 C.ar      23 UNK        -0.0193 
     14 C14        -1.6364  -16.0820  -48.9460 C.ar      23 UNK        -0.1150 
     15 C15        -0.7761  -18.1123  -47.7223 C.3       23 UNK        -0.0205 
     16 S16        -0.3627  -18.3181  -45.9608 S.3       23 UNK        -0.2404 
     17 C17         0.9975  -19.5310  -46.0950 C.3       23 UNK        -0.0398 
     18 CA          0.6072  -21.0109  -45.8602 C.3       11 UNK         0.1400 
     19 N           0.1833  -21.3096  -44.4909 N.am      11 UNK        -0.5000 
     20 C           0.1580  -22.5524  -43.9881 C.2       10 UNK         0.5000 
     21 O           0.5197  -23.5480  -44.6190 O.2       10 UNK        -0.5000 
     22 CA         -0.4098  -22.7276  -42.5682 C.3       10 UNK         0.1400 
     23 CB          0.5273  -22.1583  -41.4936 C.3       10 UNK        -0.1800 
     24 N          -1.7450  -22.1506  -42.4188 N.am      10 UNK        -0.5000 
     25 C          -2.8339  -22.5961  -43.0604 C.2       9 UNK         0.5000 
     26 O          -2.8228  -23.5275  -43.8649 O.2       9 UNK        -0.5000 
     27 CA         -4.1638  -21.8783  -42.7657 C.3       9 UNK         0.1400 
     28 CB         -4.8585  -22.5186  -41.5545 C.3       9 UNK        -0.1800 
     29 N          -4.0556  -20.4340  -42.5463 N.am      9 UNK        -0.5000 
     30 C          -3.5175  -19.5492  -43.3966 C.2       8 UNK         0.5000 
     31 O          -2.9305  -19.8673  -44.4309 O.2       8 UNK        -0.5000 
     32 CA         -3.6975  -18.0533  -43.0720 C.3       8 UNK         0.1400 
     33 CB         -4.5299  -17.7586  -41.8024 C.3       8 UNK        -0.1800 
     34 N          -2.4184  -17.3452  -43.0423 N.am      8 UNK        -0.5000 
     35 C          -1.4106  -17.5207  -42.1776 C.2       7 UNK         0.5000 
     36 O          -1.4326  -18.3108  -41.2299 O.2       7 UNK        -0.5000 
     37 CA         -0.1965  -16.5972  -42.4038 C.3       7 UNK         0.1400 
     38 CB         -0.4940  -15.1783  -41.8923 C.3       7 UNK        -0.1800 
     39 N           1.0490  -17.0566  -41.7890 N.am      7 UNK        -0.5000 
     40 C           1.6750  -18.2019  -42.0788 C.2       6 UNK         0.5000 
     41 O           1.2433  -19.0398  -42.8683 O.2       6 UNK        -0.5000 
     42 CA          3.0823  -18.3619  -41.4894 C.3       6 UNK         0.1400 
     43 CB          3.5176  -19.8338  -41.3753 C.3       6 UNK        -0.1800 
     44 N           3.9624  -17.6714  -42.4216 N.am      6 UNK        -0.5000 
     45 C           4.6988  -16.5866  -42.1553 C.2       5 UNK         0.5000 
     46 O           4.8987  -16.1454  -41.0233 O.2       5 UNK        -0.5000 
     47 CA          5.2499  -15.8371  -43.3847 C.3       5 UNK         0.1400 
     48 CB          6.5760  -16.4531  -43.8549 C.3       5 UNK        -0.1800 
     49 N           4.2881  -15.8559  -44.4901 N.am      5 UNK        -0.5000 
     50 C           3.1291  -15.1844  -44.5053 C.2       4 UNK         0.5000 
     51 O           2.8287  -14.3389  -43.6613 O.2       4 UNK        -0.5000 
     52 CA          2.1304  -15.5543  -45.6225 C.3       4 UNK         0.1400 
     53 CB          0.9263  -14.5979  -45.7004 C.3       4 UNK        -0.1800 
     54 N           2.7409  -15.6777  -46.9496 N.am      4 UNK        -0.5000 
     55 C           3.4386  -16.7379  -47.3848 C.2       3 UNK         0.5000 
     56 O           3.7223  -17.6943  -46.6628 O.2       3 UNK        -0.5000 
     57 CA          3.9015  -16.7530  -48.8557 C.3       3 UNK         0.1400 
     58 CB          3.0044  -17.6873  -49.6834 C.3       3 UNK        -0.1800 
     59 N           3.9102  -15.4336  -49.4862 N.am      3 UNK        -0.5000 
     60 C           4.7996  -14.4636  -49.2347 C.2       2 UNK         0.5000 
     61 O           5.7605  -14.5978  -48.4765 O.2       2 UNK        -0.5000 
     62 CA          4.5611  -13.1068  -49.9310 C.3       2 UNK         0.1400 
     63 CB          5.4253  -12.9912  -51.1956 C.3       2 UNK        -0.1800 
     64 N           3.1605  -12.8492  -50.2880 N.am      2 UNK        -0.5000 
     65 C           2.1394  -12.7729  -49.4244 C.2       1 UNK         0.5000 
     66 O           2.2747  -12.9406  -48.2125 O.2       1 UNK        -0.5000 
     67 C          -0.4059  -21.5221  -46.9009 C.2       11 UNK         0.5000 
     68 O           0.0155  -21.9818  -47.9602 O.2       11 UNK        -0.5000 
     69 N          -1.7102  -21.4614  -46.5881 N.am      12 UNK        -0.5000 
     70 CA         -2.7830  -21.9406  -47.4601 C.3       12 UNK         0.1400 
     71 CB         -4.1510  -21.5644  -46.8793 C.3       12 UNK        -0.1800 
     72 C          -2.6968  -23.4506  -47.7377 C.2       12 UNK         0.5000 
     73 O          -2.9019  -23.8606  -48.8789 O.2       12 UNK        -0.5000 
     74 N          -2.3410  -24.2431  -46.7162 N.am      13 UNK        -0.5000 
     75 CA         -2.0815  -25.6778  -46.8407 C.3       13 UNK         0.1400 
     76 CB         -1.8884  -26.2936  -45.4472 C.3       13 UNK        -0.1800 
     77 C          -0.8749  -25.9840  -47.7473 C.2       13 UNK         0.5000 
     78 O          -0.9670  -26.8700  -48.5973 O.2       13 UNK        -0.5000 
     79 N           0.2150  -25.2194  -47.5843 N.am      14 UNK        -0.5000 
     80 CA          1.4251  -25.3131  -48.4076 C.3       14 UNK         0.1400 
     81 CB          2.5433  -24.4769  -47.7670 C.3       14 UNK        -0.1800 
     82 C           1.1876  -24.8868  -49.8707 C.2       14 UNK         0.5000 
     83 O           1.7364  -25.5009  -50.7857 O.2       14 UNK        -0.5000 
     84 N           0.3421  -23.8668  -50.0598 N.am      15 UNK        -0.5000 
     85 CA         -0.1114  -23.3442  -51.3496 C.3       15 UNK         0.1400 
     86 CB         -0.6625  -21.9289  -51.1157 C.3       15 UNK        -0.1800 
     87 C          -1.1758  -24.2226  -52.0420 C.2       15 UNK         0.5000 
     88 O          -1.5793  -23.8983  -53.1604 O.2       15 UNK        -0.5000 
     89 N          -1.6391  -25.2849  -51.3635 N.am      16 UNK        -0.5000 
     90 CA         -2.6996  -26.2128  -51.7730 C.3       16 UNK         0.1400 
     91 CB         -2.2414  -27.0671  -52.9730 C.3       16 UNK        -0.1800 
     92 C          -4.0487  -25.5029  -52.0174 C.2       16 UNK         0.5000 
     93 O          -4.7835  -25.8629  -52.9396 O.2       16 UNK        -0.5000 
     94 N          -4.3267  -24.4818  -51.1943 N.am      17 UNK        -0.5000 
     95 CA         -5.4583  -23.5507  -51.1924 C.3       17 UNK         0.1400 
     96 CB         -6.7915  -24.2875  -50.9665 C.3       17 UNK        -0.1800 
     97 C          -5.5326  -22.6301  -52.4249 C.2       17 UNK         0.5000 
     98 O          -5.6727  -21.4174  -52.2660 O.2       17 UNK        -0.5000 
     99 N          -5.4385  -23.2138  -53.6248 N.am      18 UNK        -0.5000 
    100 CA        -5.6580  -22.5770  -54.9227 C.3       18 UNK         0.1400 
    101 CB        -5.5320  -23.6372  -56.0271 C.3       18 UNK        -0.1800 
    102 C         -4.7387  -21.3792  -55.2169 C.2       18 UNK         0.5000 
    103 O         -5.2164  -20.3744  -55.7448 O.2       18 UNK        -0.5000 
    104 N         -3.4491  -21.4936  -54.8686 N.am      19 UNK        -0.5000 
    105 CA        -2.4628  -20.4328  -55.0952 C.3       19 UNK         0.1400 
    106 CB        -1.0555  -21.0438  -55.1760 C.3       19 UNK        -0.1800 
    107 C         -2.5321  -19.3071  -54.0440 C.2       19 UNK         0.5000 
    108 O         -2.1001  -18.1905  -54.3325 O.2       19 UNK        -0.5000 
    109 N         -3.0775  -19.6069  -52.8574 N.am      20 UNK        -0.5000 
    110 CA        -3.3114  -18.6334  -51.7891 C.3       20 UNK         0.1400 
    111 CB        -3.2853  -19.3560  -50.4330 C.3       20 UNK        -0.1800 
    112 C         -4.6456  -17.8883  -51.9648 C.2       20 UNK         0.5000 
    113 O         -4.7325  -16.7135  -51.6108 O.2       20 UNK        -0.5000 
    114 N         -5.6571  -18.6001  -52.4851 N.am      21 UNK        -0.5000 
    115 CA        -7.0746  -18.2271  -52.5381 C.3       21 UNK         0.1400 
    116 CB        -7.3037  -16.9644  -53.3951 C.3       21 UNK        -0.1800 
    117 C         -7.7011  -18.1417  -51.1278 C.2       21 UNK         0.5000 
    118 O         -8.5988  -17.3304  -50.8942 O.2       21 UNK        -0.5000 
    119 N         -7.2149  -18.9990  -50.2228 N.am      22 UNK        -0.5000 
    120 CA        -7.6350  -19.1360  -48.8237 C.3       22 UNK         0.1400 
    121 C         -7.8071  -20.6354  -48.4715 C.2       22 UNK         0.5000 
    122 N         -8.6660  -20.9586  -47.5150 N.am      22 UNK        -0.7600 
    123 O         -7.1503  -21.5078  -49.0326 O.2       22 UNK        -0.5000 
    124 C124       -6.6288  -18.4613  -47.8528 C.3       23 UNK        -0.0398 
    125 S125       -6.7751  -16.6456  -47.8587 S.3       23 UNK        -0.2404 
    126 C126       -5.3775  -16.1675  -46.7948 C.3       23 UNK        -0.0205 
    127 H127        0.5654   -8.7281  -51.4740 H         1 UNK         0.0600 
    128 H128        2.0774   -8.8799  -52.3741 H         1 UNK         0.0600 
    129 H129        0.5396   -9.2570  -53.1586 H         1 UNK         0.0600 
    130 H130        0.2724  -10.4090  -50.0421 H         1 UNK         0.3000 
    131 H131        0.5826  -13.1885  -50.8154 H         1 UNK         0.0600 
    132 H132       -0.2718  -11.9574  -48.1516 H         1 UNK         0.0800 
    133 H133       -0.3190  -13.6550  -48.5227 H         1 UNK         0.0800 
    134 H134       -3.3151  -14.0541  -50.9421 H         1 UNK         0.0800 
    135 H135       -1.6131  -14.4165  -51.0027 H         1 UNK         0.0800 
    136 H136       -4.5993  -14.4460  -48.7445 H         1 UNK         0.1150 
    137 H137       -3.2371  -17.8663  -46.5419 H         1 UNK         0.1150 
    138 H138       -0.7076  -16.0644  -49.4984 H         1 UNK         0.1150 
    139 H139       -1.1261  -19.0588  -48.1316 H         1 UNK         0.0800 
    140 H140        0.1353  -17.8566  -48.2631 H         1 UNK         0.0800 
    141 H141        1.4734  -19.4290  -47.0715 H         1 UNK         0.0800 
    142 H142        1.7706  -19.2453  -45.3822 H         1 UNK         0.0800 
    143 H143        1.5220  -21.5838  -46.0289 H         1 UNK         0.0600 
    144 H144       -0.0806  -20.5195  -43.9147 H         1 UNK         0.3000 
    145 H145       -0.4931  -23.8022  -42.3911 H         1 UNK         0.0600 
    146 H146        0.2360  -22.5017  -40.5009 H         1 UNK         0.0600 
    147 H147        1.5577  -22.4761  -41.6583 H         1 UNK         0.0600 
    148 H148        0.5122  -21.0699  -41.4812 H         1 UNK         0.0600 
    149 H149       -1.8368  -21.3511  -41.8085 H         1 UNK         0.3000 
    150 H150       -4.8094  -22.0227  -43.6331 H         1 UNK         0.0600 
    151 H151       -4.9765  -23.5941  -41.6946 H         1 UNK         0.0600 
    152 H152       -5.8545  -22.1019  -41.4036 H         1 UNK         0.0600 
    153 H153       -4.2877  -22.3677  -40.6373 H         1 UNK         0.0600 
    154 H154       -4.4986  -20.0770  -41.7125 H         1 UNK         0.3000 
    155 H155       -4.2467  -17.6373  -43.9168 H         1 UNK         0.0600 
    156 H156       -4.6460  -16.6845  -41.6568 H         1 UNK         0.0600 
    157 H157       -4.0714  -18.1636  -40.8999 H         1 UNK         0.0600 
    158 H158       -5.5339  -18.1770  -41.8834 H         1 UNK         0.0600 
    159 H159       -2.2759  -16.7009  -43.8068 H         1 UNK         0.3000 
    160 H160       -0.0199  -16.5477  -43.4791 H         1 UNK         0.0600 
    161 H161       -0.6610  -15.1685  -40.8145 H         1 UNK         0.0600 
    162 H162       -1.3850  -14.7643  -42.3659 H         1 UNK         0.0600 
    163 H163        0.3302  -14.4985  -42.1110 H         1 UNK         0.0600 
    164 H164        1.4866  -16.4172  -41.1423 H         1 UNK         0.3000 
    165 H165        3.1083  -17.9068  -40.4971 H         1 UNK         0.0600 
    166 H166        3.4898  -20.3462  -42.3380 H         1 UNK         0.0600 
    167 H167        4.5330  -19.9116  -40.9870 H         1 UNK         0.0600 
    168 H168        2.8655  -20.3776  -40.6916 H         1 UNK         0.0600 
    169 H169        3.8419  -17.9310  -43.3904 H         1 UNK         0.3000 
    170 H170        5.4328  -14.7995  -43.0975 H         1 UNK         0.0600 
    171 H171        7.3174  -16.4394  -43.0550 H         1 UNK         0.0600 
    172 H172        6.4511  -17.4897  -44.1706 H         1 UNK         0.0600 
    173 H173        6.9927  -15.8954  -44.6940 H         1 UNK         0.0600 
    174 H174        4.4374  -16.5413  -45.2234 H         1 UNK         0.3000 
    175 H175        1.7405  -16.5322  -45.3411 H         1 UNK         0.0600 
    176 H176        1.2348  -13.5789  -45.9318 H         1 UNK         0.0600 
    177 H177        0.2158  -14.9212  -46.4612 H         1 UNK         0.0600 
    178 H178        0.3867  -14.5621  -44.7545 H         1 UNK         0.0600 
    179 H179        2.6170  -14.8820  -47.5655 H         1 UNK         0.3000 
    180 H180        4.9181  -17.1514  -48.8727 H         1 UNK         0.0600 
    181 H181        1.9824  -17.3128  -49.7466 H         1 UNK         0.0600 
    182 H182        2.9631  -18.6853  -49.2446 H         1 UNK         0.0600 
    183 H183        3.3834  -17.7976  -50.6996 H         1 UNK         0.0600 
    184 H184        3.1639  -15.2353  -50.1356 H         1 UNK         0.3000 
    185 H185        4.8709  -12.3269  -49.2325 H         1 UNK         0.0600 
    186 H186        6.4802  -13.1465  -50.9651 H         1 UNK         0.0600 
    187 H187        5.1401  -13.7299  -51.9456 H         1 UNK         0.0600 
    188 H188        5.3346  -12.0027  -51.6465 H         1 UNK         0.0600 
    189 H189        2.9638  -12.6459  -51.2630 H         1 UNK         0.3000 
    190 H190       -1.9903  -21.0152  -45.7182 H         1 UNK         0.3000 
    191 H191       -2.6785  -21.4267  -48.4162 H         1 UNK         0.0600 
    192 H192       -4.9556  -21.9016  -47.5328 H         1 UNK         0.0600 
    193 H193       -4.2503  -20.4845  -46.7698 H         1 UNK         0.0600 
    194 H194       -4.3096  -22.0203  -45.9034 H         1 UNK         0.0600 
    195 H195       -2.2361  -23.8401  -45.7904 H         1 UNK         0.3000 
    196 H196       -2.9617  -26.1377  -47.2949 H         1 UNK         0.0600 
    197 H197       -1.6865  -27.3633  -45.5156 H         1 UNK         0.0600 
    198 H198       -2.7828  -26.1705  -44.8363 H         1 UNK         0.0600 
    199 H199       -1.0552  -25.8337  -44.9146 H         1 UNK         0.0600 
    200 H200        0.2049  -24.5082  -46.8648 H         1 UNK         0.3000 
    201 H201        1.7448  -26.3572  -48.4148 H         1 UNK         0.0600 
    202 H202        2.7457  -24.8039  -46.7468 H         1 UNK         0.0600 
    203 H203        2.2887  -23.4175  -47.7338 H         1 UNK         0.0600 
    204 H204        3.4723  -24.5726  -48.3304 H         1 UNK         0.0600 
    205 H205        0.0067  -23.3684  -49.2391 H         1 UNK         0.3000 
    206 H206        0.7464  -23.2766  -52.0213 H         1 UNK         0.0600 
    207 H207        0.0889  -21.2789  -50.6669 H         1 UNK         0.0600 
    208 H208       -0.9797  -21.4591  -52.0441 H         1 UNK         0.0600 
    209 H209       -1.5267  -21.9513  -50.4529 H         1 UNK         0.0600 
    210 H210       -1.2647  -25.4423  -50.4370 H         1 UNK         0.3000 
    211 H211       -2.8585  -26.8851  -50.9288 H         1 UNK         0.0600 
    212 H212       -2.1184  -26.4666  -53.8748 H         1 UNK         0.0600 
    213 H213       -2.9685  -27.8483  -53.1972 H         1 UNK         0.0600 
    214 H214       -1.2912  -27.5592  -52.7653 H         1 UNK         0.0600 
    215 H215       -3.6476  -24.2920  -50.4578 H         1 UNK         0.3000 
    216 H216       -5.2917  -22.9020  -50.3315 H         1 UNK         0.0600 
    217 H217       -7.0293  -24.9693  -51.7832 H         1 UNK         0.0600 
    218 H218       -7.6161  -23.5783  -50.8849 H         1 UNK         0.0600 
    219 H219       -6.7682  -24.8641  -50.0419 H         1 UNK         0.0600 
    220 H220       -5.2833  -24.2193  -53.6292 H         1 UNK         0.3000 
    221 H221       -6.6845  -22.2051  -54.9266 H         1 UNK         0.0600 
    222 H222       -4.5392  -24.0891  -56.0381 H         1 UNK         0.0600 
    223 H223       -6.2612  -24.4361  -55.8913 H         1 UNK         0.0600 
    224 H224       -5.7073  -23.2015  -57.0117 H         1 UNK         0.0600 
    225 H225       -3.1221  -22.3488  -54.4370 H         1 UNK         0.3000 
    226 H226       -2.6662  -19.9712  -56.0640 H         1 UNK         0.0600 
    227 H227       -0.9833  -21.7502  -56.0030 H         1 UNK         0.0600 
    228 H228       -0.3026  -20.2723  -55.3426 H         1 UNK         0.0600 
    229 H229       -0.7848  -21.5740  -54.2657 H         1 UNK         0.0600 
    230 H230       -3.4451  -20.5370  -52.7187 H         1 UNK         0.3000 
    231 H231       -2.5127  -17.8881  -51.7873 H         1 UNK         0.0600 
    232 H232       -3.9629  -20.2100  -50.4093 H         1 UNK         0.0600 
    233 H233       -2.2820  -19.7100  -50.2030 H         1 UNK         0.0600 
    234 H234       -3.5814  -18.6843  -49.6273 H         1 UNK         0.0600 
    235 H235       -5.4801  -19.5803  -52.6859 H         1 UNK         0.3000 
    236 H236       -7.5783  -19.0547  -53.0394 H         1 UNK         0.0600 
    237 H237       -6.8234  -17.0572  -54.3692 H         1 UNK         0.0600 
    238 H238       -8.3676  -16.8034  -53.5718 H         1 UNK         0.0600 
    239 H239       -6.9167  -16.0669  -52.9123 H         1 UNK         0.0600 
    240 H240       -6.5443  -19.6920  -50.5287 H         1 UNK         0.3000 
    241 H241       -8.6156  -18.6725  -48.6980 H         1 UNK         0.0600 
    242 H242       -9.2172  -20.2633  -47.0360 H         1 UNK         0.3800 
    243 H243       -8.7783  -21.9305  -47.2726 H         1 UNK         0.3800 
    244 H244       -6.7954  -18.7911  -46.8255 H         1 UNK         0.0800 
    245 H245       -5.6049  -18.7433  -48.1030 H         1 UNK         0.0800 
    246 H246       -5.3284  -16.8337  -45.9330 H         1 UNK         0.0800 
    247 H247       -5.5662  -15.1691  -46.3978 H         1 UNK         0.0800 
@<TRIPOS>BOND
     1    1    2 1    
     2    1  127 1    
     3    1  128 1    
     4    1  129 1    
     5    2    3 2    
     6    2    4 am   BACKBONE|DICT|INTERRES
     7    4    5 1    
     8    4  130 1    
     9    5    6 1    
    10    5   65 1    
    11    5  131 1    
    12    6    7 1    
    13    6  132 1    
    14    6  133 1    
    15    7    8 1    
    16    8    9 1    
    17    8  134 1    
    18    8  135 1    
    19    9   10 ar   
    20    9   14 ar   
    21   10   11 ar   
    22   10  136 1    
    23   11   12 ar   
    24   11  126 1    
    25   12   13 ar   
    26   12  137 1    
    27   13   14 ar   
    28   13   15 1    
    29   14  138 1    
    30   15   16 1    
    31   15  139 1    
    32   15  140 1    
    33   16   17 1    
    34   17   18 1    
    35   17  141 1    
    36   17  142 1    
    37   18   19 1    
    38   18   67 1    
    39   18  143 1    
    40   19   20 am   BACKBONE|DICT|INTERRES
    41   19  144 1    
    42   20   21 2    
    43   20   22 1    
    44   22   23 1    
    45   22   24 1    
    46   22  145 1    
    47   23  146 1    
    48   23  147 1    
    49   23  148 1    
    50   24   25 am   BACKBONE|DICT|INTERRES
    51   24  149 1    
    52   25   26 2    
    53   25   27 1    
    54   27   28 1    
    55   27   29 1    
    56   27  150 1    
    57   28  151 1    
    58   28  152 1    
    59   28  153 1    
    60   29   30 am   BACKBONE|DICT|INTERRES
    61   29  154 1    
    62   30   31 2    
    63   30   32 1    
    64   32   33 1    
    65   32   34 1    
    66   32  155 1    
    67   33  156 1    
    68   33  157 1    
    69   33  158 1    
    70   34   35 am   BACKBONE|DICT|INTERRES
    71   34  159 1    
    72   35   36 2    
    73   35   37 1    
    74   37   38 1    
    75   37   39 1    
    76   37  160 1    
    77   38  161 1    
    78   38  162 1    
    79   38  163 1    
    80   39   40 am   BACKBONE|DICT|INTERRES
    81   39  164 1    
    82   40   41 2    
    83   40   42 1    
    84   42   43 1    
    85   42   44 1    
    86   42  165 1    
    87   43  166 1    
    88   43  167 1    
    89   43  168 1    
    90   44   45 am   BACKBONE|DICT|INTERRES
    91   44  169 1    
    92   45   46 2    
    93   45   47 1    
    94   47   48 1    
    95   47   49 1    
    96   47  170 1    
    97   48  171 1    
    98   48  172 1    
    99   48  173 1    
   100   49   50 am   BACKBONE|DICT|INTERRES
   101   49  174 1    
   102   50   51 2    
   103   50   52 1    
   104   52   53 1    
   105   52   54 1    
   106   52  175 1    
   107   53  176 1    
   108   53  177 1    
   109   53  178 1    
   110   54   55 am   BACKBONE|DICT|INTERRES
   111   54  179 1    
   112   55   56 2    
   113   55   57 1    
   114   57   58 1    
   115   57   59 1    
   116   57  180 1    
   117   58  181 1    
   118   58  182 1    
   119   58  183 1    
   120   59   60 am   BACKBONE|DICT|INTERRES
   121   59  184 1    
   122   60   61 2    
   123   60   62 1    
   124   62   63 1    
   125   62   64 1    
   126   62  185 1    
   127   63  186 1    
   128   63  187 1    
   129   63  188 1    
   130   64   65 am   BACKBONE|DICT|INTERRES
   131   64  189 1    
   132   65   66 2    
   133   67   68 2    
   134   67   69 am   BACKBONE|DICT|INTERRES
   135   69   70 1    
   136   69  190 1    
   137   70   71 1    
   138   70   72 1    
   139   70  191 1    
   140   71  192 1    
   141   71  193 1    
   142   71  194 1    
   143   72   73 2    
   144   72   74 am   BACKBONE|DICT|INTERRES
   145   74   75 1    
   146   74  195 1    
   147   75   76 1    
   148   75   77 1    
   149   75  196 1    
   150   76  197 1    
   151   76  198 1    
   152   76  199 1    
   153   77   78 2    
   154   77   79 am   BACKBONE|DICT|INTERRES
   155   79   80 1    
   156   79  200 1    
   157   80   81 1    
   158   80   82 1    
   159   80  201 1    
   160   81  202 1    
   161   81  203 1    
   162   81  204 1    
   163   82   83 2    
   164   82   84 am   BACKBONE|DICT|INTERRES
   165   84   85 1    
   166   84  205 1    
   167   85   86 1    
   168   85   87 1    
   169   85  206 1    
   170   86  207 1    
   171   86  208 1    
   172   86  209 1    
   173   87   88 2    
   174   87   89 am   BACKBONE|DICT|INTERRES
   175   89   90 1    
   176   89  210 1    
   177   90   91 1    
   178   90   92 1    
   179   90  211 1    
   180   91  212 1    
   181   91  213 1    
   182   91  214 1    
   183   92   93 2    
   184   92   94 am   BACKBONE|DICT|INTERRES
   185   94   95 1    
   186   94  215 1    
   187   95   96 1    
   188   95   97 1    
   189   95  216 1    
   190   96  217 1    
   191   96  218 1    
   192   96  219 1    
   193   97   98 2    
   194   97   99 am   BACKBONE|DICT|INTERRES
   195   99  100 1    
   196   99  220 1    
   197  100  101 1    
   198  100  102 1    
   199  100  221 1    
   200  101  222 1    
   201  101  223 1    
   202  101  224 1    
   203  102  103 2    
   204  102  104 am   BACKBONE|DICT|INTERRES
   205  104  105 1    
   206  104  225 1    
   207  105  106 1    
   208  105  107 1    
   209  105  226 1    
   210  106  227 1    
   211  106  228 1    
   212  106  229 1    
   213  107  108 2    
   214  107  109 am   BACKBONE|DICT|INTERRES
   215  109  110 1    
   216  109  230 1    
   217  110  111 1    
   218  110  112 1    
   219  110  231 1    
   220  111  232 1    
   221  111  233 1    
   222  111  234 1    
   223  112  113 2    
   224  112  114 am   BACKBONE|DICT|INTERRES
   225  114  115 1    
   226  114  235 1    
   227  115  116 1    
   228  115  117 1    
   229  115  236 1    
   230  116  237 1    
   231  116  238 1    
   232  116  239 1    
   233  117  118 2    
   234  117  119 am   BACKBONE|DICT|INTERRES
   235  119  120 1    
   236  119  240 1    
   237  120  121 1    
   238  120  124 1    
   239  120  241 1    
   240  121  122 am   BACKBONE|DICT|INTERRES
   241  121  123 2    
   242  122  242 1    
   243  122  243 1    
   244  124  125 1    
   245  124  244 1    
   246  124  245 1    
   247  125  126 1    
   248  126  246 1    
   249  126  247 1    
@<TRIPOS>SUBSTRUCTURE
     1 UNK         1 GROUP             0       ****    0 ROOT    
