@<TRIPOS>MOLECULE
3R540
247   249    1
SMALL
USER_CHARGES


@<TRIPOS>ATOM
      1 CA          0.8543  -16.8394  -40.1023 C.3       0 UNK        -0.1800 
      2 C           0.3199  -15.7033  -40.9623 C.2       0 UNK         0.5000 
      3 O          -0.0577  -14.6609  -40.4268 O.2       0 UNK        -0.5000 
      4 N           0.2892  -15.8932  -42.2873 N.am      1 UNK        -0.5000 
      5 CA         -0.0683  -14.8572  -43.2555 C.3       1 UNK         0.1400 
      6 C6         -0.5180  -15.4497  -44.6125 C.3       23 UNK        -0.0398 
      7 S7         -1.2633  -14.1675  -45.6830 S.3       23 UNK        -0.2404 
      8 C8         -2.8235  -14.9425  -46.2352 C.3       23 UNK        -0.0205 
      9 C9         -2.7654  -15.6299  -47.6027 C.ar      23 UNK        -0.0193 
     10 C10        -3.9653  -15.8430  -48.2892 C.ar      23 UNK        -0.1150 
     11 C11        -3.9737  -16.4100  -49.5669 C.ar      23 UNK        -0.0193 
     12 C12        -2.7672  -16.7862  -50.1591 C.ar      23 UNK        -0.1150 
     13 C13        -1.5580  -16.5909  -49.4863 C.ar      23 UNK        -0.0193 
     14 C14        -1.5641  -16.0256  -48.2073 C.ar      23 UNK        -0.1150 
     15 C15        -0.2409  -16.9433  -50.1625 C.3       23 UNK        -0.0205 
     16 S16         0.5602  -18.3981  -49.4205 S.3       23 UNK        -0.2404 
     17 C17        -0.6403  -19.7166  -49.8013 C.3       23 UNK        -0.0398 
     18 CA         -1.1659  -20.4129  -48.5260 C.3       11 UNK         0.1400 
     19 N          -1.7930  -19.4861  -47.5742 N.am      11 UNK        -0.5000 
     20 C          -2.1517  -19.8321  -46.3325 C.2       10 UNK         0.5000 
     21 O          -1.9999  -20.9692  -45.8788 O.2       10 UNK        -0.5000 
     22 CA         -2.8542  -18.7640  -45.4934 C.3       10 UNK         0.1400 
     23 CB         -4.3399  -18.6661  -45.8899 C.3       10 UNK        -0.1800 
     24 N          -2.7187  -19.1218  -44.0874 N.am      10 UNK        -0.5000 
     25 C          -2.9843  -18.3479  -43.0325 C.2       9 UNK         0.5000 
     26 O          -3.3952  -17.1909  -43.1201 O.2       9 UNK        -0.5000 
     27 CA         -2.7353  -18.9561  -41.6378 C.3       9 UNK         0.1400 
     28 CB         -3.7818  -20.0354  -41.2967 C.3       9 UNK        -0.1800 
     29 N          -1.3634  -19.4410  -41.4330 N.am      9 UNK        -0.5000 
     30 C          -0.7391  -20.4653  -42.0290 C.2       8 UNK         0.5000 
     31 O          -1.2653  -21.2216  -42.8458 O.2       8 UNK        -0.5000 
     32 CA          0.7404  -20.6711  -41.6632 C.3       8 UNK         0.1400 
     33 CB          0.9572  -22.0456  -41.0114 C.3       8 UNK        -0.1800 
     34 N           1.5850  -20.5663  -42.8510 N.am      8 UNK        -0.5000 
     35 C           1.7854  -19.4454  -43.5538 C.2       7 UNK         0.5000 
     36 O           1.3530  -18.3370  -43.2306 O.2       7 UNK        -0.5000 
     37 CA          2.6190  -19.5781  -44.8305 C.3       7 UNK         0.1400 
     38 CB          1.8019  -19.1700  -46.0666 C.3       7 UNK        -0.1800 
     39 N           3.7952  -18.7229  -44.7012 N.am      7 UNK        -0.5000 
     40 C           5.0294  -19.0665  -45.0939 C.2       6 UNK         0.5000 
     41 O           5.2843  -20.1302  -45.6612 O.2       6 UNK        -0.5000 
     42 CA          6.1644  -18.0617  -44.8144 C.3       6 UNK         0.1400 
     43 CB          7.3436  -18.2084  -45.7989 C.3       6 UNK        -0.1800 
     44 N           5.6688  -16.6862  -44.8317 N.am      6 UNK        -0.5000 
     45 C           6.2478  -15.6397  -44.2294 C.2       5 UNK         0.5000 
     46 O           7.2509  -15.7382  -43.5207 O.2       5 UNK        -0.5000 
     47 CA          5.5933  -14.2541  -44.4295 C.3       5 UNK         0.1400 
     48 CB          6.6306  -13.1422  -44.6866 C.3       5 UNK        -0.1800 
     49 N           4.5314  -14.2309  -45.4422 N.am      5 UNK        -0.5000 
     50 C           4.6361  -14.4053  -46.7689 C.2       4 UNK         0.5000 
     51 O           5.6957  -14.5944  -47.3653 O.2       4 UNK        -0.5000 
     52 CA          3.3141  -14.3946  -47.5524 C.3       4 UNK         0.1400 
     53 CB          2.5976  -15.7447  -47.4006 C.3       4 UNK        -0.1800 
     54 N           2.4328  -13.3234  -47.0901 N.am      4 UNK        -0.5000 
     55 C           2.5066  -12.0539  -47.5131 C.2       3 UNK         0.5000 
     56 O           3.2689  -11.6690  -48.4005 O.2       3 UNK        -0.5000 
     57 CA          1.5815  -11.0377  -46.8170 C.3       3 UNK         0.1400 
     58 CB          0.2103  -10.9905  -47.5085 C.3       3 UNK        -0.1800 
     59 N           1.4004  -11.3273  -45.3933 N.am      3 UNK        -0.5000 
     60 C           2.3543  -11.1722  -44.4628 C.2       2 UNK         0.5000 
     61 O           3.4708  -10.7108  -44.6999 O.2       2 UNK        -0.5000 
     62 CA          2.0146  -11.6182  -43.0266 C.3       2 UNK         0.1400 
     63 CB          1.5667  -10.4159  -42.1820 C.3       2 UNK        -0.1800 
     64 N           0.9868  -12.6606  -42.9550 N.am      2 UNK        -0.5000 
     65 C           1.1299  -13.9056  -43.4260 C.2       1 UNK         0.5000 
     66 O           2.1460  -14.3096  -43.9946 O.2       1 UNK        -0.5000 
     67 C          -2.0827  -21.6003  -48.8873 C.2       11 UNK         0.5000 
     68 O          -1.5736  -22.6639  -49.2244 O.2       11 UNK        -0.5000 
     69 N          -3.4069  -21.4214  -48.7728 N.am      12 UNK        -0.5000 
     70 CA         -4.4005  -22.4779  -48.9679 C.3       12 UNK         0.1400 
     71 CB         -5.7802  -21.8334  -49.1676 C.3       12 UNK        -0.1800 
     72 C          -4.4463  -23.5061  -47.8204 C.2       12 UNK         0.5000 
     73 O          -4.9779  -24.5984  -48.0200 O.2       12 UNK        -0.5000 
     74 N          -3.9085  -23.1444  -46.6477 N.am      13 UNK        -0.5000 
     75 CA         -3.7446  -24.0375  -45.5036 C.3       13 UNK         0.1400 
     76 CB         -4.0322  -23.2634  -44.2069 C.3       13 UNK        -0.1800 
     77 C          -2.3280  -24.6350  -45.4862 C.2       13 UNK         0.5000 
     78 O          -2.1765  -25.8287  -45.2240 O.2       13 UNK        -0.5000 
     79 N          -1.3182  -23.7993  -45.7678 N.am      14 UNK        -0.5000 
     80 CA          0.0955  -24.1763  -45.7687 C.3       14 UNK         0.1400 
     81 CB          0.9447  -22.8981  -45.7166 C.3       14 UNK        -0.1800 
     82 C           0.5094  -25.0477  -46.9718 C.2       14 UNK         0.5000 
     83 O           1.4325  -25.8529  -46.8411 O.2       14 UNK        -0.5000 
     84 N          -0.1588  -24.8669  -48.1154 N.am      15 UNK        -0.5000 
     85 CA          0.1001  -25.5457  -49.3815 C.3       15 UNK         0.1400 
     86 CB          1.1006  -24.7144  -50.2119 C.3       15 UNK        -0.1800 
     87 C          -1.2341  -25.8164  -50.1059 C.2       15 UNK         0.5000 
     88 O          -2.2618  -25.9913  -49.4475 O.2       15 UNK        -0.5000 
     89 N          -1.1981  -25.8941  -51.4426 N.am      16 UNK        -0.5000 
     90 CA         -2.3548  -26.1756  -52.2900 C.3       16 UNK         0.1400 
     91 CB         -1.8669  -26.6161  -53.6791 C.3       16 UNK        -0.1800 
     92 C          -3.2930  -24.9621  -52.4117 C.2       16 UNK         0.5000 
     93 O          -2.8411  -23.8640  -52.7452 O.2       16 UNK        -0.5000 
     94 N          -4.5946  -25.2023  -52.2097 N.am      17 UNK        -0.5000 
     95 CA         -5.6676  -24.2122  -52.3300 C.3       17 UNK         0.1400 
     96 CB         -6.9830  -24.8425  -51.8503 C.3       17 UNK        -0.1800 
     97 C          -5.8243  -23.6363  -53.7484 C.2       17 UNK         0.5000 
     98 O          -6.1528  -22.4576  -53.8882 O.2       17 UNK        -0.5000 
     99 N          -5.5601  -24.4664  -54.7667 N.am      18 UNK        -0.5000 
    100 CA        -5.5958  -24.0851  -56.1788 C.3       18 UNK         0.1400 
    101 CB        -5.5640  -25.3527  -57.0460 C.3       18 UNK        -0.1800 
    102 C         -4.4491  -23.1343  -56.5677 C.2       18 UNK         0.5000 
    103 O         -4.6615  -22.2298  -57.3752 O.2       18 UNK        -0.5000 
    104 N         -3.2652  -23.3404  -55.9724 N.am      19 UNK        -0.5000 
    105 CA        -2.0879  -22.4903  -56.1620 C.3       19 UNK         0.1400 
    106 CB        -0.8314  -23.2427  -55.6974 C.3       19 UNK        -0.1800 
    107 C         -2.2279  -21.1527  -55.4157 C.2       19 UNK         0.5000 
    108 O         -1.8303  -20.1123  -55.9403 O.2       19 UNK        -0.5000 
    109 N         -2.8148  -21.2093  -54.2133 N.am      20 UNK        -0.5000 
    110 CA        -3.1196  -20.0553  -53.3692 C.3       20 UNK         0.1400 
    111 CB        -3.4909  -20.5784  -51.9800 C.3       20 UNK        -0.1800 
    112 C         -4.2674  -19.1811  -53.9040 C.2       20 UNK         0.5000 
    113 O         -4.3657  -18.0169  -53.5194 O.2       20 UNK        -0.5000 
    114 N         -5.1427  -19.7784  -54.7237 N.am      21 UNK        -0.5000 
    115 CA        -6.3908  -19.2618  -55.2973 C.3       21 UNK         0.1400 
    116 CB        -6.1709  -17.9530  -56.0796 C.3       21 UNK        -0.1800 
    117 C         -7.5421  -19.1302  -54.2796 C.2       21 UNK         0.5000 
    118 O         -8.6984  -19.3101  -54.6639 O.2       21 UNK        -0.5000 
    119 N         -7.2241  -18.8538  -53.0090 N.am      22 UNK        -0.5000 
    120 CA        -8.1689  -18.8276  -51.8818 C.3       22 UNK         0.1400 
    121 C         -8.5762  -20.2251  -51.3263 C.2       22 UNK         0.5000 
    122 N         -8.0670  -21.3352  -51.8454 N.am      22 UNK        -0.7600 
    123 O         -9.3976  -20.3085  -50.4172 O.2       22 UNK        -0.5000 
    124 C124       -7.7203  -17.8491  -50.7646 C.3       23 UNK        -0.0398 
    125 S125       -6.0619  -18.1716  -50.0597 S.3       23 UNK        -0.2404 
    126 C126       -5.2801  -16.5528  -50.3308 C.3       23 UNK        -0.0205 
    127 H127        1.4066  -17.5672  -40.6947 H         1 UNK         0.0600 
    128 H128        0.0350  -17.3470  -39.5943 H         1 UNK         0.0600 
    129 H129        1.5326  -16.4471  -39.3446 H         1 UNK         0.0600 
    130 H130        0.6596  -16.7598  -42.6761 H         1 UNK         0.3000 
    131 H131       -0.9134  -14.2960  -42.8498 H         1 UNK         0.0600 
    132 H132        0.3080  -15.9312  -45.1371 H         1 UNK         0.0800 
    133 H133       -1.2490  -16.2339  -44.4297 H         1 UNK         0.0800 
    134 H134       -3.1954  -15.6377  -45.4829 H         1 UNK         0.0800 
    135 H135       -3.5651  -14.1440  -46.2873 H         1 UNK         0.0800 
    136 H136       -4.8998  -15.5399  -47.8377 H         1 UNK         0.1150 
    137 H137       -2.7723  -17.2068  -51.1554 H         1 UNK         0.1150 
    138 H138       -0.6224  -15.8758  -47.7022 H         1 UNK         0.1150 
    139 H139       -0.3866  -17.1206  -51.2293 H         1 UNK         0.0800 
    140 H140        0.4366  -16.0917  -50.0892 H         1 UNK         0.0800 
    141 H141       -0.1389  -20.4385  -50.4488 H         1 UNK         0.0800 
    142 H142       -1.4637  -19.3093  -50.3861 H         1 UNK         0.0800 
    143 H143       -0.3002  -20.8445  -48.0215 H         1 UNK         0.0600 
    144 H144       -1.9360  -18.5393  -47.8988 H         1 UNK         0.3000 
    145 H145       -2.3531  -17.8140  -45.6709 H         1 UNK         0.0600 
    146 H146       -4.8445  -17.8631  -45.3531 H         1 UNK         0.0600 
    147 H147       -4.4536  -18.4566  -46.9543 H         1 UNK         0.0600 
    148 H148       -4.8719  -19.5949  -45.6795 H         1 UNK         0.0600 
    149 H149       -2.3265  -20.0487  -43.9217 H         1 UNK         0.3000 
    150 H150       -2.8665  -18.1453  -40.9193 H         1 UNK         0.0600 
    151 H151       -3.7379  -20.8844  -41.9791 H         1 UNK         0.0600 
    152 H152       -4.7914  -19.6270  -41.3550 H         1 UNK         0.0600 
    153 H153       -3.6419  -20.4130  -40.2839 H         1 UNK         0.0600 
    154 H154       -0.8192  -18.8810  -40.7943 H         1 UNK         0.3000 
    155 H155        1.0498  -19.9054  -40.9500 H         1 UNK         0.0600 
    156 H156        0.6931  -22.8598  -41.6880 H         1 UNK         0.0600 
    157 H157        0.3448  -22.1526  -40.1152 H         1 UNK         0.0600 
    158 H158        1.9967  -22.1815  -40.7125 H         1 UNK         0.0600 
    159 H159        1.9723  -21.4333  -43.1917 H         1 UNK         0.3000 
    160 H160        2.9177  -20.6225  -44.9436 H         1 UNK         0.0600 
    161 H161        1.4434  -18.1432  -45.9986 H         1 UNK         0.0600 
    162 H162        0.9281  -19.8107  -46.1795 H         1 UNK         0.0600 
    163 H163        2.3929  -19.2600  -46.9780 H         1 UNK         0.0600 
    164 H164        3.6544  -17.8718  -44.1737 H         1 UNK         0.3000 
    165 H165        6.5261  -18.2891  -43.8096 H         1 UNK         0.0600 
    166 H166        7.7575  -19.2172  -45.7747 H         1 UNK         0.0600 
    167 H167        7.0334  -18.0018  -46.8239 H         1 UNK         0.0600 
    168 H168        8.1568  -17.5259  -45.5526 H         1 UNK         0.0600 
    169 H169        4.8549  -16.5148  -45.4036 H         1 UNK         0.3000 
    170 H170        5.0981  -14.0235  -43.4852 H         1 UNK         0.0600 
    171 H171        7.3198  -13.0480  -43.8469 H         1 UNK         0.0600 
    172 H172        7.2282  -13.3409  -45.5764 H         1 UNK         0.0600 
    173 H173        6.1451  -12.1746  -44.8161 H         1 UNK         0.0600 
    174 H174        3.5960  -14.1436  -45.0483 H         1 UNK         0.3000 
    175 H175        3.5425  -14.2490  -48.6105 H         1 UNK         0.0600 
    176 H176        2.3501  -15.9549  -46.3604 H         1 UNK         0.0600 
    177 H177        1.6744  -15.7639  -47.9767 H         1 UNK         0.0600 
    178 H178        3.2206  -16.5637  -47.7623 H         1 UNK         0.0600 
    179 H179        1.7968  -13.5454  -46.3383 H         1 UNK         0.3000 
    180 H180        2.0408  -10.0511  -46.9087 H         1 UNK         0.0600 
    181 H181       -0.2966  -11.9549  -47.4706 H         1 UNK         0.0600 
    182 H182        0.3150  -10.7190  -48.5597 H         1 UNK         0.0600 
    183 H183       -0.4412  -10.2492  -47.0455 H         1 UNK         0.0600 
    184 H184        0.5066  -11.7032  -45.1121 H         1 UNK         0.3000 
    185 H185        2.9296  -12.0219  -42.5877 H         1 UNK         0.0600 
    186 H186        1.4065  -10.7016  -41.1421 H         1 UNK         0.0600 
    187 H187        2.3232   -9.6299  -42.1884 H         1 UNK         0.0600 
    188 H188        0.6396   -9.9823  -42.5590 H         1 UNK         0.0600 
    189 H189        0.1292  -12.4132  -42.4821 H         1 UNK         0.3000 
    190 H190       -3.7550  -20.5149  -48.4986 H         1 UNK         0.3000 
    191 H191       -4.1343  -23.0254  -49.8732 H         1 UNK         0.0600 
    192 H192       -5.7861  -21.1767  -50.0361 H         1 UNK         0.0600 
    193 H193       -6.5483  -22.5900  -49.3323 H         1 UNK         0.0600 
    194 H194       -6.0800  -21.2436  -48.3006 H         1 UNK         0.0600 
    195 H195       -3.4659  -22.2372  -46.5693 H         1 UNK         0.3000 
    196 H196       -4.4571  -24.8630  -45.5626 H         1 UNK         0.0600 
    197 H197       -3.9159  -23.9070  -43.3342 H         1 UNK         0.0600 
    198 H198       -5.0523  -22.8796  -44.1959 H         1 UNK         0.0600 
    199 H199       -3.3574  -22.4173  -44.0801 H         1 UNK         0.0600 
    200 H200       -1.5249  -22.8131  -45.8981 H         1 UNK         0.3000 
    201 H201        0.2917  -24.7487  -44.8597 H         1 UNK         0.0600 
    202 H202        2.0001  -23.1353  -45.5784 H         1 UNK         0.0600 
    203 H203        0.8562  -22.3208  -46.6364 H         1 UNK         0.0600 
    204 H204        0.6369  -22.2589  -44.8897 H         1 UNK         0.0600 
    205 H205       -0.9124  -24.1876  -48.1558 H         1 UNK         0.3000 
    206 H206        0.5422  -26.5237  -49.1820 H         1 UNK         0.0600 
    207 H207        2.0010  -24.4956  -49.6377 H         1 UNK         0.0600 
    208 H208        1.4202  -25.2480  -51.1073 H         1 UNK         0.0600 
    209 H209        0.6680  -23.7628  -50.5239 H         1 UNK         0.0600 
    210 H210       -0.3299  -25.6979  -51.9178 H         1 UNK         0.3000 
    211 H211       -2.9073  -27.0083  -51.8490 H         1 UNK         0.0600 
    212 H212       -1.2625  -25.8461  -54.1589 H         1 UNK         0.0600 
    213 H213       -2.7068  -26.8344  -54.3399 H         1 UNK         0.0600 
    214 H214       -1.2630  -27.5214  -53.6146 H         1 UNK         0.0600 
    215 H215       -4.8789  -26.1330  -51.9396 H         1 UNK         0.3000 
    216 H216       -5.4339  -23.3738  -51.6752 H         1 UNK         0.0600 
    217 H217       -7.8185  -24.1514  -51.9587 H         1 UNK         0.0600 
    218 H218       -6.9244  -25.1170  -50.7966 H         1 UNK         0.0600 
    219 H219       -7.2299  -25.7401  -52.4186 H         1 UNK         0.0600 
    220 H220       -5.3101  -25.4213  -54.5570 H         1 UNK         0.3000 
    221 H221       -6.5376  -23.5652  -56.3681 H         1 UNK         0.0600 
    222 H222       -4.6531  -25.9304  -56.8842 H         1 UNK         0.0600 
    223 H223       -6.4149  -25.9992  -56.8304 H         1 UNK         0.0600 
    224 H224       -5.6093  -25.1010  -58.1064 H         1 UNK         0.0600 
    225 H225       -3.1856  -24.0814  -55.2922 H         1 UNK         0.3000 
    226 H226       -1.9811  -22.2746  -57.2273 H         1 UNK         0.0600 
    227 H227        0.0657  -22.6511  -55.8839 H         1 UNK         0.0600 
    228 H228       -0.8615  -23.4605  -54.6293 H         1 UNK         0.0600 
    229 H229       -0.7151  -24.1861  -56.2311 H         1 UNK         0.0600 
    230 H230       -3.0417  -22.1210  -53.8299 H         1 UNK         0.3000 
    231 H231       -2.2251  -19.4345  -53.2871 H         1 UNK         0.0600 
    232 H232       -4.4086  -21.1655  -52.0070 H         1 UNK         0.0600 
    233 H233       -3.6448  -19.7610  -51.2750 H         1 UNK         0.0600 
    234 H234       -2.7014  -21.2191  -51.5916 H         1 UNK         0.0600 
    235 H235       -4.9976  -20.7670  -54.8830 H         1 UNK         0.3000 
    236 H236       -6.7047  -20.0202  -56.0163 H         1 UNK         0.0600 
    237 H237       -5.3699  -18.0606  -56.8111 H         1 UNK         0.0600 
    238 H238       -7.0735  -17.6728  -56.6237 H         1 UNK         0.0600 
    239 H239       -5.9192  -17.1199  -55.4232 H         1 UNK         0.0600 
    240 H240       -6.2524  -18.6818  -52.7838 H         1 UNK         0.3000 
    241 H241       -9.1042  -18.4188  -52.2689 H         1 UNK         0.0600 
    242 H242       -7.4148  -21.3140  -52.6186 H         1 UNK         0.3800 
    243 H243       -8.3776  -22.2171  -51.4755 H         1 UNK         0.3800 
    244 H244       -7.7462  -16.8365  -51.1686 H         1 UNK         0.0800 
    245 H245       -8.4414  -17.8427  -49.9456 H         1 UNK         0.0800 
    246 H246       -5.9650  -15.7615  -50.0222 H         1 UNK         0.0800 
    247 H247       -5.1089  -16.4097  -51.3989 H         1 UNK         0.0800 
@<TRIPOS>BOND
     1    1    2 1    
     2    1  127 1    
     3    1  128 1    
     4    1  129 1    
     5    2    3 2    
     6    2    4 am   BACKBONE|DICT|INTERRES
     7    4    5 1    
     8    4  130 1    
     9    5    6 1    
    10    5   65 1    
    11    5  131 1    
    12    6    7 1    
    13    6  132 1    
    14    6  133 1    
    15    7    8 1    
    16    8    9 1    
    17    8  134 1    
    18    8  135 1    
    19    9   10 ar   
    20    9   14 ar   
    21   10   11 ar   
    22   10  136 1    
    23   11   12 ar   
    24   11  126 1    
    25   12   13 ar   
    26   12  137 1    
    27   13   14 ar   
    28   13   15 1    
    29   14  138 1    
    30   15   16 1    
    31   15  139 1    
    32   15  140 1    
    33   16   17 1    
    34   17   18 1    
    35   17  141 1    
    36   17  142 1    
    37   18   19 1    
    38   18   67 1    
    39   18  143 1    
    40   19   20 am   BACKBONE|DICT|INTERRES
    41   19  144 1    
    42   20   21 2    
    43   20   22 1    
    44   22   23 1    
    45   22   24 1    
    46   22  145 1    
    47   23  146 1    
    48   23  147 1    
    49   23  148 1    
    50   24   25 am   BACKBONE|DICT|INTERRES
    51   24  149 1    
    52   25   26 2    
    53   25   27 1    
    54   27   28 1    
    55   27   29 1    
    56   27  150 1    
    57   28  151 1    
    58   28  152 1    
    59   28  153 1    
    60   29   30 am   BACKBONE|DICT|INTERRES
    61   29  154 1    
    62   30   31 2    
    63   30   32 1    
    64   32   33 1    
    65   32   34 1    
    66   32  155 1    
    67   33  156 1    
    68   33  157 1    
    69   33  158 1    
    70   34   35 am   BACKBONE|DICT|INTERRES
    71   34  159 1    
    72   35   36 2    
    73   35   37 1    
    74   37   38 1    
    75   37   39 1    
    76   37  160 1    
    77   38  161 1    
    78   38  162 1    
    79   38  163 1    
    80   39   40 am   BACKBONE|DICT|INTERRES
    81   39  164 1    
    82   40   41 2    
    83   40   42 1    
    84   42   43 1    
    85   42   44 1    
    86   42  165 1    
    87   43  166 1    
    88   43  167 1    
    89   43  168 1    
    90   44   45 am   BACKBONE|DICT|INTERRES
    91   44  169 1    
    92   45   46 2    
    93   45   47 1    
    94   47   48 1    
    95   47   49 1    
    96   47  170 1    
    97   48  171 1    
    98   48  172 1    
    99   48  173 1    
   100   49   50 am   BACKBONE|DICT|INTERRES
   101   49  174 1    
   102   50   51 2    
   103   50   52 1    
   104   52   53 1    
   105   52   54 1    
   106   52  175 1    
   107   53  176 1    
   108   53  177 1    
   109   53  178 1    
   110   54   55 am   BACKBONE|DICT|INTERRES
   111   54  179 1    
   112   55   56 2    
   113   55   57 1    
   114   57   58 1    
   115   57   59 1    
   116   57  180 1    
   117   58  181 1    
   118   58  182 1    
   119   58  183 1    
   120   59   60 am   BACKBONE|DICT|INTERRES
   121   59  184 1    
   122   60   61 2    
   123   60   62 1    
   124   62   63 1    
   125   62   64 1    
   126   62  185 1    
   127   63  186 1    
   128   63  187 1    
   129   63  188 1    
   130   64   65 am   BACKBONE|DICT|INTERRES
   131   64  189 1    
   132   65   66 2    
   133   67   68 2    
   134   67   69 am   BACKBONE|DICT|INTERRES
   135   69   70 1    
   136   69  190 1    
   137   70   71 1    
   138   70   72 1    
   139   70  191 1    
   140   71  192 1    
   141   71  193 1    
   142   71  194 1    
   143   72   73 2    
   144   72   74 am   BACKBONE|DICT|INTERRES
   145   74   75 1    
   146   74  195 1    
   147   75   76 1    
   148   75   77 1    
   149   75  196 1    
   150   76  197 1    
   151   76  198 1    
   152   76  199 1    
   153   77   78 2    
   154   77   79 am   BACKBONE|DICT|INTERRES
   155   79   80 1    
   156   79  200 1    
   157   80   81 1    
   158   80   82 1    
   159   80  201 1    
   160   81  202 1    
   161   81  203 1    
   162   81  204 1    
   163   82   83 2    
   164   82   84 am   BACKBONE|DICT|INTERRES
   165   84   85 1    
   166   84  205 1    
   167   85   86 1    
   168   85   87 1    
   169   85  206 1    
   170   86  207 1    
   171   86  208 1    
   172   86  209 1    
   173   87   88 2    
   174   87   89 am   BACKBONE|DICT|INTERRES
   175   89   90 1    
   176   89  210 1    
   177   90   91 1    
   178   90   92 1    
   179   90  211 1    
   180   91  212 1    
   181   91  213 1    
   182   91  214 1    
   183   92   93 2    
   184   92   94 am   BACKBONE|DICT|INTERRES
   185   94   95 1    
   186   94  215 1    
   187   95   96 1    
   188   95   97 1    
   189   95  216 1    
   190   96  217 1    
   191   96  218 1    
   192   96  219 1    
   193   97   98 2    
   194   97   99 am   BACKBONE|DICT|INTERRES
   195   99  100 1    
   196   99  220 1    
   197  100  101 1    
   198  100  102 1    
   199  100  221 1    
   200  101  222 1    
   201  101  223 1    
   202  101  224 1    
   203  102  103 2    
   204  102  104 am   BACKBONE|DICT|INTERRES
   205  104  105 1    
   206  104  225 1    
   207  105  106 1    
   208  105  107 1    
   209  105  226 1    
   210  106  227 1    
   211  106  228 1    
   212  106  229 1    
   213  107  108 2    
   214  107  109 am   BACKBONE|DICT|INTERRES
   215  109  110 1    
   216  109  230 1    
   217  110  111 1    
   218  110  112 1    
   219  110  231 1    
   220  111  232 1    
   221  111  233 1    
   222  111  234 1    
   223  112  113 2    
   224  112  114 am   BACKBONE|DICT|INTERRES
   225  114  115 1    
   226  114  235 1    
   227  115  116 1    
   228  115  117 1    
   229  115  236 1    
   230  116  237 1    
   231  116  238 1    
   232  116  239 1    
   233  117  118 2    
   234  117  119 am   BACKBONE|DICT|INTERRES
   235  119  120 1    
   236  119  240 1    
   237  120  121 1    
   238  120  124 1    
   239  120  241 1    
   240  121  122 am   BACKBONE|DICT|INTERRES
   241  121  123 2    
   242  122  242 1    
   243  122  243 1    
   244  124  125 1    
   245  124  244 1    
   246  124  245 1    
   247  125  126 1    
   248  126  246 1    
   249  126  247 1    
@<TRIPOS>SUBSTRUCTURE
     1 UNK         1 GROUP             0       ****    0 ROOT    
