@<TRIPOS>MOLECULE
3R540
247   249    1
SMALL
USER_CHARGES


@<TRIPOS>ATOM
      1 CA          4.8133  -18.8816  -48.5414 C.3       0 UNK        -0.1800 
      2 C           4.7940  -17.5489  -49.2753 C.2       0 UNK         0.5000 
      3 O           5.8549  -16.9865  -49.5453 O.2       0 UNK        -0.5000 
      4 N           3.5911  -17.0472  -49.5890 N.am      1 UNK        -0.5000 
      5 CA          3.3318  -15.7539  -50.2353 C.3       1 UNK         0.1400 
      6 C6          3.8327  -15.7078  -51.7060 C.3       23 UNK        -0.0398 
      7 S7          2.8632  -14.5536  -52.7375 S.3       23 UNK        -0.2404 
      8 C8          1.6292  -15.6661  -53.4896 C.3       23 UNK        -0.0205 
      9 C9          0.7254  -16.3037  -52.4448 C.ar      23 UNK        -0.0193 
     10 C10        -0.2166  -15.5272  -51.7644 C.ar      23 UNK        -0.1150 
     11 C11        -1.0300  -16.0926  -50.7771 C.ar      23 UNK        -0.0193 
     12 C12        -0.8987  -17.4521  -50.4842 C.ar      23 UNK        -0.1150 
     13 C13         0.0398  -18.2420  -51.1561 C.ar      23 UNK        -0.0193 
     14 C14         0.8474  -17.6618  -52.1375 C.ar      23 UNK        -0.1150 
     15 C15         0.1938  -19.7173  -50.8211 C.3       23 UNK        -0.0205 
     16 S16         1.5561  -19.9832  -49.6492 S.3       23 UNK        -0.2404 
     17 C17         1.5529  -21.8001  -49.4866 C.3       23 UNK        -0.0398 
     18 CA          1.0445  -22.3288  -48.1219 C.3       11 UNK         0.1400 
     19 N           1.8036  -21.7794  -46.9910 N.am      11 UNK        -0.5000 
     20 C           1.9214  -22.3564  -45.7882 C.2       10 UNK         0.5000 
     21 O           1.3761  -23.4223  -45.5000 O.2       10 UNK        -0.5000 
     22 CA          2.7177  -21.6101  -44.6936 C.3       10 UNK         0.1400 
     23 CB          3.2869  -20.2449  -45.1429 C.3       10 UNK        -0.1800 
     24 N           1.9239  -21.4474  -43.4681 N.am      10 UNK        -0.5000 
     25 C           0.7188  -20.8664  -43.3881 C.2       9 UNK         0.5000 
     26 O           0.1290  -20.4149  -44.3713 O.2       9 UNK        -0.5000 
     27 CA          0.0584  -20.8058  -41.9987 C.3       9 UNK         0.1400 
     28 CB          0.9346  -20.0811  -40.9619 C.3       9 UNK        -0.1800 
     29 N          -1.2176  -20.1001  -42.0940 N.am      9 UNK        -0.5000 
     30 C          -2.4055  -20.5837  -41.7156 C.2       8 UNK         0.5000 
     31 O          -2.5488  -21.6836  -41.1797 O.2       8 UNK        -0.5000 
     32 CA         -3.6367  -19.6911  -41.9689 C.3       8 UNK         0.1400 
     33 CB         -4.7868  -19.9674  -40.9799 C.3       8 UNK        -0.1800 
     34 N          -3.2921  -18.2680  -41.9384 N.am      8 UNK        -0.5000 
     35 C          -3.9196  -17.3111  -42.6340 C.2       7 UNK         0.5000 
     36 O          -4.8354  -17.5417  -43.4253 O.2       7 UNK        -0.5000 
     37 CA         -3.4833  -15.8504  -42.3951 C.3       7 UNK         0.1400 
     38 CB         -2.5646  -15.6566  -41.1715 C.3       7 UNK        -0.1800 
     39 N          -2.8066  -15.3391  -43.5812 N.am      7 UNK        -0.5000 
     40 C          -3.3921  -14.7222  -44.6175 C.2       6 UNK         0.5000 
     41 O          -4.5835  -14.4115  -44.6482 O.2       6 UNK        -0.5000 
     42 CA         -2.4956  -14.3927  -45.8313 C.3       6 UNK         0.1400 
     43 CB         -2.0365  -12.9279  -45.7905 C.3       6 UNK        -0.1800 
     44 N          -1.3202  -15.2603  -45.9108 N.am      6 UNK        -0.5000 
     45 C          -1.3647  -16.5575  -46.2403 C.2       5 UNK         0.5000 
     46 O          -2.3751  -17.1162  -46.6635 O.2       5 UNK        -0.5000 
     47 CA         -0.0748  -17.3700  -46.0418 C.3       5 UNK         0.1400 
     48 CB          0.7157  -17.4635  -47.3492 C.3       5 UNK        -0.1800 
     49 N           0.7937  -16.8130  -45.0065 N.am      5 UNK        -0.5000 
     50 C           0.5993  -16.9488  -43.6893 C.2       4 UNK         0.5000 
     51 O          -0.3626  -17.5325  -43.1903 O.2       4 UNK        -0.5000 
     52 CA          1.6471  -16.2795  -42.7804 C.3       4 UNK         0.1400 
     53 CB          2.9356  -17.1180  -42.7399 C.3       4 UNK        -0.1800 
     54 N           1.9819  -14.9225  -43.2152 N.am      4 UNK        -0.5000 
     55 C           1.1217  -13.8959  -43.2727 C.2       3 UNK         0.5000 
     56 O          -0.0404  -13.9561  -42.8743 O.2       3 UNK        -0.5000 
     57 CA          1.6302  -12.5971  -43.9333 C.3       3 UNK         0.1400 
     58 CB          2.1939  -11.6422  -42.8707 C.3       3 UNK        -0.1800 
     59 N           2.6389  -12.7997  -44.9822 N.am      3 UNK        -0.5000 
     60 C           2.4844  -13.5633  -46.0729 C.2       2 UNK         0.5000 
     61 O           1.4654  -14.2212  -46.3028 O.2       2 UNK        -0.5000 
     62 CA          3.6748  -13.6374  -47.0435 C.3       2 UNK         0.1400 
     63 CB          4.9665  -14.0938  -46.3375 C.3       2 UNK        -0.1800 
     64 N           3.3481  -14.5865  -48.1005 N.am      2 UNK        -0.5000 
     65 C           3.8149  -14.5789  -49.3526 C.2       1 UNK         0.5000 
     66 O           4.6007  -13.7329  -49.7841 O.2       1 UNK        -0.5000 
     67 C          -0.4951  -22.2369  -47.9700 C.2       11 UNK         0.5000 
     68 O          -1.2105  -22.7010  -48.8595 O.2       11 UNK        -0.5000 
     69 N          -1.0002  -21.6789  -46.8585 N.am      12 UNK        -0.5000 
     70 CA         -2.4033  -21.8208  -46.4606 C.3       12 UNK         0.1400 
     71 CB         -2.8626  -20.5733  -45.6939 C.3       12 UNK        -0.1800 
     72 C          -2.6368  -23.0915  -45.6232 C.2       12 UNK         0.5000 
     73 O          -3.7685  -23.5730  -45.5790 O.2       12 UNK        -0.5000 
     74 N          -1.5794  -23.6197  -44.9916 N.am      13 UNK        -0.5000 
     75 CA         -1.6102  -24.8612  -44.2216 C.3       13 UNK         0.1400 
     76 CB         -0.7454  -24.7036  -42.9606 C.3       13 UNK        -0.1800 
     77 C          -1.1271  -26.0373  -45.0838 C.2       13 UNK         0.5000 
     78 O          -1.8178  -27.0525  -45.1753 O.2       13 UNK        -0.5000 
     79 N           0.0406  -25.8730  -45.7184 N.am      14 UNK        -0.5000 
     80 CA          0.6300  -26.8302  -46.6484 C.3       14 UNK         0.1400 
     81 CB          2.1322  -26.5370  -46.7886 C.3       14 UNK        -0.1800 
     82 C          -0.0818  -26.7346  -48.0056 C.2       14 UNK         0.5000 
     83 O          -0.0244  -25.6834  -48.6442 O.2       14 UNK        -0.5000 
     84 N          -0.7787  -27.8097  -48.3963 N.am      15 UNK        -0.5000 
     85 CA         -1.5540  -27.9987  -49.6346 C.3       15 UNK         0.1400 
     86 CB         -0.6461  -27.8770  -50.8752 C.3       15 UNK        -0.1800 
     87 C          -2.8097  -27.1096  -49.7865 C.2       15 UNK         0.5000 
     88 O          -3.6702  -27.4390  -50.6036 O.2       15 UNK        -0.5000 
     89 N          -2.9012  -26.0201  -49.0108 N.am      16 UNK        -0.5000 
     90 CA         -3.9489  -24.9946  -49.0199 C.3       16 UNK         0.1400 
     91 CB         -5.3055  -25.5742  -48.5703 C.3       16 UNK        -0.1800 
     92 C          -4.0232  -24.2329  -50.3590 C.2       16 UNK         0.5000 
     93 O          -5.1075  -23.8451  -50.7976 O.2       16 UNK        -0.5000 
     94 N          -2.8524  -23.9981  -50.9697 N.am      17 UNK        -0.5000 
     95 CA         -2.6742  -23.2561  -52.2205 C.3       17 UNK         0.1400 
     96 CB         -1.2038  -23.3424  -52.6511 C.3       17 UNK        -0.1800 
     97 C          -3.1238  -21.7860  -52.1311 C.2       17 UNK         0.5000 
     98 O          -3.4839  -21.1987  -53.1525 O.2       17 UNK        -0.5000 
     99 N          -3.1551  -21.2338  -50.9085 N.am      18 UNK        -0.5000 
    100 CA        -3.6820  -19.9054  -50.5880 C.3       18 UNK         0.1400 
    101 CB        -3.5457  -19.6476  -49.0829 C.3       18 UNK        -0.1800 
    102 C         -5.1412  -19.6858  -51.0233 C.2       18 UNK         0.5000 
    103 O         -5.5038  -18.5514  -51.3297 O.2       18 UNK        -0.5000 
    104 N         -5.9383  -20.7621  -51.0983 N.am      19 UNK        -0.5000 
    105 CA        -7.3143  -20.7383  -51.5996 C.3       19 UNK         0.1400 
    106 CB        -7.9672  -22.1044  -51.3420 C.3       19 UNK        -0.1800 
    107 C         -7.4192  -20.3625  -53.0925 C.2       19 UNK         0.5000 
    108 O         -8.4544  -19.8396  -53.5062 O.2       19 UNK        -0.5000 
    109 N         -6.3530  -20.6189  -53.8626 N.am      20 UNK        -0.5000 
    110 CA        -6.2312  -20.2394  -55.2676 C.3       20 UNK         0.1400 
    111 CB        -5.6160  -21.4090  -56.0530 C.3       20 UNK        -0.1800 
    112 C         -5.3752  -18.9721  -55.4289 C.2       20 UNK         0.5000 
    113 O         -5.7353  -18.0980  -56.2181 O.2       20 UNK        -0.5000 
    114 N         -4.2518  -18.9004  -54.6998 N.am      21 UNK        -0.5000 
    115 CA        -3.2581  -17.8313  -54.8188 C.3       21 UNK         0.1400 
    116 CB        -1.9497  -18.2860  -54.1609 C.3       21 UNK        -0.1800 
    117 C         -3.7206  -16.4778  -54.2459 C.2       21 UNK         0.5000 
    118 O         -3.3827  -15.4402  -54.8178 O.2       21 UNK        -0.5000 
    119 N         -4.4925  -16.5129  -53.1545 N.am      22 UNK        -0.5000 
    120 CA        -5.1287  -15.3459  -52.5258 C.3       22 UNK         0.1400 
    121 C         -6.6761  -15.4616  -52.5680 C.2       22 UNK         0.5000 
    122 N         -7.2531  -16.6221  -52.2859 N.am      22 UNK        -0.7600 
    123 O         -7.3625  -14.4889  -52.8692 O.2       22 UNK        -0.5000 
    124 C124       -4.6297  -15.1305  -51.0716 C.3       23 UNK        -0.0398 
    125 S125       -3.0697  -14.1861  -51.0086 S.3       23 UNK        -0.2404 
    126 C126       -1.9873  -15.2236  -49.9695 C.3       23 UNK        -0.0205 
    127 H127        5.6160  -18.8984  -47.8041 H         1 UNK         0.0600 
    128 H128        4.9745  -19.6980  -49.2452 H         1 UNK         0.0600 
    129 H129        3.8751  -19.0570  -48.0170 H         1 UNK         0.0600 
    130 H130        2.7682  -17.5952  -49.3787 H         1 UNK         0.3000 
    131 H131        2.2451  -15.6731  -50.2475 H         1 UNK         0.0600 
    132 H132        4.8893  -15.4406  -51.7587 H         1 UNK         0.0800 
    133 H133        3.7639  -16.6991  -52.1558 H         1 UNK         0.0800 
    134 H134        2.1396  -16.4278  -54.0810 H         1 UNK         0.0800 
    135 H135        1.0175  -15.0951  -54.1895 H         1 UNK         0.0800 
    136 H136       -0.2967  -14.4724  -51.9867 H         1 UNK         0.1150 
    137 H137       -1.5083  -17.8878  -49.7078 H         1 UNK         0.1150 
    138 H138        1.5800  -18.2676  -52.6519 H         1 UNK         0.1150 
    139 H139       -0.7250  -20.1080  -50.3875 H         1 UNK         0.0800 
    140 H140        0.3749  -20.2859  -51.7346 H         1 UNK         0.0800 
    141 H141        2.5817  -22.1327  -49.6297 H         1 UNK         0.0800 
    142 H142        0.9962  -22.2494  -50.3089 H         1 UNK         0.0800 
    143 H143        1.2475  -23.4012  -48.1322 H         1 UNK         0.0600 
    144 H144        2.2349  -20.8807  -47.1480 H         1 UNK         0.3000 
    145 H145        3.5595  -22.2549  -44.4381 H         1 UNK         0.0600 
    146 H146        3.9729  -20.3624  -45.9819 H         1 UNK         0.0600 
    147 H147        2.5035  -19.5459  -45.4380 H         1 UNK         0.0600 
    148 H148        3.8529  -19.7781  -44.3369 H         1 UNK         0.0600 
    149 H149        2.3296  -21.8415  -42.6315 H         1 UNK         0.3000 
    150 H150       -0.0878  -21.8370  -41.6737 H         1 UNK         0.0600 
    151 H151        1.9330  -20.5135  -40.8942 H         1 UNK         0.0600 
    152 H152        0.4897  -20.1483  -39.9690 H         1 UNK         0.0600 
    153 H153        1.0425  -19.0233  -41.1976 H         1 UNK         0.0600 
    154 H154       -1.1694  -19.2200  -42.6027 H         1 UNK         0.3000 
    155 H155       -3.9861  -19.9494  -42.9700 H         1 UNK         0.0600 
    156 H156       -4.4900  -19.7508  -39.9532 H         1 UNK         0.0600 
    157 H157       -5.1018  -21.0108  -41.0205 H         1 UNK         0.0600 
    158 H158       -5.6628  -19.3610  -41.2104 H         1 UNK         0.0600 
    159 H159       -2.5264  -18.0089  -41.3316 H         1 UNK         0.3000 
    160 H160       -4.3922  -15.2728  -42.2151 H         1 UNK         0.0600 
    161 H161       -1.6063  -16.1630  -41.2864 H         1 UNK         0.0600 
    162 H162       -3.0358  -16.0274  -40.2604 H         1 UNK         0.0600 
    163 H163       -2.3529  -14.5988  -41.0135 H         1 UNK         0.0600 
    164 H164       -1.8200  -15.5487  -43.6490 H         1 UNK         0.3000 
    165 H165       -3.0905  -14.5376  -46.7357 H         1 UNK         0.0600 
    166 H166       -1.3849  -12.6922  -46.6323 H         1 UNK         0.0600 
    167 H167       -2.8913  -12.2523  -45.8393 H         1 UNK         0.0600 
    168 H168       -1.4962  -12.7032  -44.8714 H         1 UNK         0.0600 
    169 H169       -0.4251  -14.8566  -45.6604 H         1 UNK         0.3000 
    170 H170       -0.3668  -18.3785  -45.7495 H         1 UNK         0.0600 
    171 H171        0.1528  -18.0518  -48.0691 H         1 UNK         0.0600 
    172 H172        0.8983  -16.4836  -47.7907 H         1 UNK         0.0600 
    173 H173        1.6741  -17.9604  -47.2031 H         1 UNK         0.0600 
    174 H174        1.5498  -16.2246  -45.3257 H         1 UNK         0.3000 
    175 H175        1.2315  -16.2264  -41.7720 H         1 UNK         0.0600 
    176 H176        3.4439  -17.1239  -43.7050 H         1 UNK         0.0600 
    177 H177        3.6332  -16.7303  -41.9974 H         1 UNK         0.0600 
    178 H178        2.7306  -18.1563  -42.4805 H         1 UNK         0.0600 
    179 H179        2.9209  -14.7722  -43.5524 H         1 UNK         0.3000 
    180 H180        0.7714  -12.1133  -44.4012 H         1 UNK         0.0600 
    181 H181        2.4600  -10.6788  -43.3062 H         1 UNK         0.0600 
    182 H182        3.0837  -12.0529  -42.3920 H         1 UNK         0.0600 
    183 H183        1.4586  -11.4504  -42.0879 H         1 UNK         0.0600 
    184 H184        3.5060  -12.2961  -44.8635 H         1 UNK         0.3000 
    185 H185        3.8177  -12.6439  -47.4729 H         1 UNK         0.0600 
    186 H186        5.7896  -14.1885  -47.0462 H         1 UNK         0.0600 
    187 H187        5.2832  -13.3792  -45.5775 H         1 UNK         0.0600 
    188 H188        4.8371  -15.0612  -45.8505 H         1 UNK         0.0600 
    189 H189        2.6463  -15.2644  -47.8378 H         1 UNK         0.3000 
    190 H190       -0.3787  -21.2633  -46.1719 H         1 UNK         0.3000 
    191 H191       -3.0295  -21.9097  -47.3488 H         1 UNK         0.0600 
    192 H192       -3.9354  -20.6076  -45.5019 H         1 UNK         0.0600 
    193 H193       -2.6637  -19.6664  -46.2610 H         1 UNK         0.0600 
    194 H194       -2.3636  -20.4797  -44.7325 H         1 UNK         0.0600 
    195 H195       -0.6673  -23.2026  -45.1293 H         1 UNK         0.3000 
    196 H196       -2.6296  -25.0802  -43.8969 H         1 UNK         0.0600 
    197 H197        0.2830  -24.4302  -43.1986 H         1 UNK         0.0600 
    198 H198       -1.1534  -23.9347  -42.3049 H         1 UNK         0.0600 
    199 H199       -0.7154  -25.6322  -42.3894 H         1 UNK         0.0600 
    200 H200        0.5388  -24.9909  -45.6140 H         1 UNK         0.3000 
    201 H201        0.5159  -27.8385  -46.2446 H         1 UNK         0.0600 
    202 H202        2.6402  -26.6190  -45.8276 H         1 UNK         0.0600 
    203 H203        2.3155  -25.5345  -47.1772 H         1 UNK         0.0600 
    204 H204        2.6054  -27.2451  -47.4699 H         1 UNK         0.0600 
    205 H205       -0.8092  -28.5966  -47.7623 H         1 UNK         0.3000 
    206 H206       -1.9182  -29.0265  -49.5964 H         1 UNK         0.0600 
    207 H207        0.2163  -28.5394  -50.8004 H         1 UNK         0.0600 
    208 H208       -1.1870  -28.1509  -51.7819 H         1 UNK         0.0600 
    209 H209       -0.2784  -26.8599  -51.0143 H         1 UNK         0.0600 
    210 H210       -2.0881  -25.8080  -48.4457 H         1 UNK         0.3000 
    211 H211       -3.6493  -24.2553  -48.2777 H         1 UNK         0.0600 
    212 H212       -6.0436  -24.7818  -48.4407 H         1 UNK         0.0600 
    213 H213       -5.2145  -26.0896  -47.6141 H         1 UNK         0.0600 
    214 H214       -5.7087  -26.2794  -49.2973 H         1 UNK         0.0600 
    215 H215       -2.0074  -24.2819  -50.4912 H         1 UNK         0.3000 
    216 H216       -3.2871  -23.7385  -52.9843 H         1 UNK         0.0600 
    217 H217       -0.5450  -22.8883  -51.9119 H         1 UNK         0.0600 
    218 H218       -1.0420  -22.8252  -53.5979 H         1 UNK         0.0600 
    219 H219       -0.8922  -24.3781  -52.7882 H         1 UNK         0.0600 
    220 H220       -2.7999  -21.7868  -50.1378 H         1 UNK         0.3000 
    221 H221       -3.0726  -19.1763  -51.1214 H         1 UNK         0.0600 
    222 H222       -2.5249  -19.8107  -48.7386 H         1 UNK         0.0600 
    223 H223       -4.2080  -20.2937  -48.5065 H         1 UNK         0.0600 
    224 H224       -3.8076  -18.6169  -48.8387 H         1 UNK         0.0600 
    225 H225       -5.5617  -21.6723  -50.8609 H         1 UNK         0.3000 
    226 H226       -7.8636  -19.9846  -51.0316 H         1 UNK         0.0600 
    227 H227       -7.4662  -22.8992  -51.8961 H         1 UNK         0.0600 
    228 H228       -7.9379  -22.3642  -50.2836 H         1 UNK         0.0600 
    229 H229       -9.0141  -22.1011  -51.6478 H         1 UNK         0.0600 
    230 H230       -5.5282  -21.0221  -53.4345 H         1 UNK         0.3000 
    231 H231       -7.2159  -20.0343  -55.6930 H         1 UNK         0.0600 
    232 H232       -4.6257  -21.6731  -55.6800 H         1 UNK         0.0600 
    233 H233       -5.5133  -21.1582  -57.1095 H         1 UNK         0.0600 
    234 H234       -6.2444  -22.2975  -55.9894 H         1 UNK         0.0600 
    235 H235       -4.0013  -19.6859  -54.1051 H         1 UNK         0.3000 
    236 H236       -3.0572  -17.6822  -55.8819 H         1 UNK         0.0600 
    237 H237       -2.0772  -18.4529  -53.0927 H         1 UNK         0.0600 
    238 H238       -1.5819  -19.2120  -54.6029 H         1 UNK         0.0600 
    239 H239       -1.1720  -17.5327  -54.2875 H         1 UNK         0.0600 
    240 H240       -4.7475  -17.4098  -52.7587 H         1 UNK         0.3000 
    241 H241       -4.8936  -14.4458  -53.0975 H         1 UNK         0.0600 
    242 H242       -8.2561  -16.7029  -52.3271 H         1 UNK         0.3800 
    243 H243       -6.6929  -17.4074  -51.9609 H         1 UNK         0.3800 
    244 H244       -4.5236  -16.0856  -50.5554 H         1 UNK         0.0800 
    245 H245       -5.3526  -14.5566  -50.4885 H         1 UNK         0.0800 
    246 H246       -1.3893  -14.5665  -49.3366 H         1 UNK         0.0800 
    247 H247       -2.5888  -15.8260  -49.2870 H         1 UNK         0.0800 
@<TRIPOS>BOND
     1    1    2 1    
     2    1  127 1    
     3    1  128 1    
     4    1  129 1    
     5    2    3 2    
     6    2    4 am   BACKBONE|DICT|INTERRES
     7    4    5 1    
     8    4  130 1    
     9    5    6 1    
    10    5   65 1    
    11    5  131 1    
    12    6    7 1    
    13    6  132 1    
    14    6  133 1    
    15    7    8 1    
    16    8    9 1    
    17    8  134 1    
    18    8  135 1    
    19    9   10 ar   
    20    9   14 ar   
    21   10   11 ar   
    22   10  136 1    
    23   11   12 ar   
    24   11  126 1    
    25   12   13 ar   
    26   12  137 1    
    27   13   14 ar   
    28   13   15 1    
    29   14  138 1    
    30   15   16 1    
    31   15  139 1    
    32   15  140 1    
    33   16   17 1    
    34   17   18 1    
    35   17  141 1    
    36   17  142 1    
    37   18   19 1    
    38   18   67 1    
    39   18  143 1    
    40   19   20 am   BACKBONE|DICT|INTERRES
    41   19  144 1    
    42   20   21 2    
    43   20   22 1    
    44   22   23 1    
    45   22   24 1    
    46   22  145 1    
    47   23  146 1    
    48   23  147 1    
    49   23  148 1    
    50   24   25 am   BACKBONE|DICT|INTERRES
    51   24  149 1    
    52   25   26 2    
    53   25   27 1    
    54   27   28 1    
    55   27   29 1    
    56   27  150 1    
    57   28  151 1    
    58   28  152 1    
    59   28  153 1    
    60   29   30 am   BACKBONE|DICT|INTERRES
    61   29  154 1    
    62   30   31 2    
    63   30   32 1    
    64   32   33 1    
    65   32   34 1    
    66   32  155 1    
    67   33  156 1    
    68   33  157 1    
    69   33  158 1    
    70   34   35 am   BACKBONE|DICT|INTERRES
    71   34  159 1    
    72   35   36 2    
    73   35   37 1    
    74   37   38 1    
    75   37   39 1    
    76   37  160 1    
    77   38  161 1    
    78   38  162 1    
    79   38  163 1    
    80   39   40 am   BACKBONE|DICT|INTERRES
    81   39  164 1    
    82   40   41 2    
    83   40   42 1    
    84   42   43 1    
    85   42   44 1    
    86   42  165 1    
    87   43  166 1    
    88   43  167 1    
    89   43  168 1    
    90   44   45 am   BACKBONE|DICT|INTERRES
    91   44  169 1    
    92   45   46 2    
    93   45   47 1    
    94   47   48 1    
    95   47   49 1    
    96   47  170 1    
    97   48  171 1    
    98   48  172 1    
    99   48  173 1    
   100   49   50 am   BACKBONE|DICT|INTERRES
   101   49  174 1    
   102   50   51 2    
   103   50   52 1    
   104   52   53 1    
   105   52   54 1    
   106   52  175 1    
   107   53  176 1    
   108   53  177 1    
   109   53  178 1    
   110   54   55 am   BACKBONE|DICT|INTERRES
   111   54  179 1    
   112   55   56 2    
   113   55   57 1    
   114   57   58 1    
   115   57   59 1    
   116   57  180 1    
   117   58  181 1    
   118   58  182 1    
   119   58  183 1    
   120   59   60 am   BACKBONE|DICT|INTERRES
   121   59  184 1    
   122   60   61 2    
   123   60   62 1    
   124   62   63 1    
   125   62   64 1    
   126   62  185 1    
   127   63  186 1    
   128   63  187 1    
   129   63  188 1    
   130   64   65 am   BACKBONE|DICT|INTERRES
   131   64  189 1    
   132   65   66 2    
   133   67   68 2    
   134   67   69 am   BACKBONE|DICT|INTERRES
   135   69   70 1    
   136   69  190 1    
   137   70   71 1    
   138   70   72 1    
   139   70  191 1    
   140   71  192 1    
   141   71  193 1    
   142   71  194 1    
   143   72   73 2    
   144   72   74 am   BACKBONE|DICT|INTERRES
   145   74   75 1    
   146   74  195 1    
   147   75   76 1    
   148   75   77 1    
   149   75  196 1    
   150   76  197 1    
   151   76  198 1    
   152   76  199 1    
   153   77   78 2    
   154   77   79 am   BACKBONE|DICT|INTERRES
   155   79   80 1    
   156   79  200 1    
   157   80   81 1    
   158   80   82 1    
   159   80  201 1    
   160   81  202 1    
   161   81  203 1    
   162   81  204 1    
   163   82   83 2    
   164   82   84 am   BACKBONE|DICT|INTERRES
   165   84   85 1    
   166   84  205 1    
   167   85   86 1    
   168   85   87 1    
   169   85  206 1    
   170   86  207 1    
   171   86  208 1    
   172   86  209 1    
   173   87   88 2    
   174   87   89 am   BACKBONE|DICT|INTERRES
   175   89   90 1    
   176   89  210 1    
   177   90   91 1    
   178   90   92 1    
   179   90  211 1    
   180   91  212 1    
   181   91  213 1    
   182   91  214 1    
   183   92   93 2    
   184   92   94 am   BACKBONE|DICT|INTERRES
   185   94   95 1    
   186   94  215 1    
   187   95   96 1    
   188   95   97 1    
   189   95  216 1    
   190   96  217 1    
   191   96  218 1    
   192   96  219 1    
   193   97   98 2    
   194   97   99 am   BACKBONE|DICT|INTERRES
   195   99  100 1    
   196   99  220 1    
   197  100  101 1    
   198  100  102 1    
   199  100  221 1    
   200  101  222 1    
   201  101  223 1    
   202  101  224 1    
   203  102  103 2    
   204  102  104 am   BACKBONE|DICT|INTERRES
   205  104  105 1    
   206  104  225 1    
   207  105  106 1    
   208  105  107 1    
   209  105  226 1    
   210  106  227 1    
   211  106  228 1    
   212  106  229 1    
   213  107  108 2    
   214  107  109 am   BACKBONE|DICT|INTERRES
   215  109  110 1    
   216  109  230 1    
   217  110  111 1    
   218  110  112 1    
   219  110  231 1    
   220  111  232 1    
   221  111  233 1    
   222  111  234 1    
   223  112  113 2    
   224  112  114 am   BACKBONE|DICT|INTERRES
   225  114  115 1    
   226  114  235 1    
   227  115  116 1    
   228  115  117 1    
   229  115  236 1    
   230  116  237 1    
   231  116  238 1    
   232  116  239 1    
   233  117  118 2    
   234  117  119 am   BACKBONE|DICT|INTERRES
   235  119  120 1    
   236  119  240 1    
   237  120  121 1    
   238  120  124 1    
   239  120  241 1    
   240  121  122 am   BACKBONE|DICT|INTERRES
   241  121  123 2    
   242  122  242 1    
   243  122  243 1    
   244  124  125 1    
   245  124  244 1    
   246  124  245 1    
   247  125  126 1    
   248  126  246 1    
   249  126  247 1    
@<TRIPOS>SUBSTRUCTURE
     1 UNK         1 GROUP             0       ****    0 ROOT    
