@<TRIPOS>MOLECULE
3R540
247   249    1
SMALL
USER_CHARGES


@<TRIPOS>ATOM
      1 CA         -5.1612  -18.9510  -47.7790 C.3       0 UNK        -0.1800 
      2 C          -4.2293  -18.0539  -46.9802 C.2       0 UNK         0.5000 
      3 O          -4.4549  -17.8386  -45.7904 O.2       0 UNK        -0.5000 
      4 N          -3.1899  -17.5254  -47.6424 N.am      1 UNK        -0.5000 
      5 CA         -2.1407  -16.6580  -47.0808 C.3       1 UNK         0.1400 
      6 C6         -1.2672  -17.3549  -45.9986 C.3       23 UNK        -0.0398 
      7 S7         -0.3904  -18.8034  -46.6737 S.3       23 UNK        -0.2404 
      8 C8          1.2550  -18.0964  -46.9853 C.3       23 UNK        -0.0205 
      9 C9          1.9436  -18.8040  -48.1368 C.ar      23 UNK        -0.0193 
     10 C10         1.5828  -18.5112  -49.4527 C.ar      23 UNK        -0.1150 
     11 C11         2.1405  -19.2184  -50.5222 C.ar      23 UNK        -0.0193 
     12 C12         3.0664  -20.2330  -50.2569 C.ar      23 UNK        -0.1150 
     13 C13         3.4342  -20.5375  -48.9414 C.ar      23 UNK        -0.0193 
     14 C14         2.8995  -19.7879  -47.8900 C.ar      23 UNK        -0.1150 
     15 C15         4.3484  -21.7246  -48.6542 C.3       23 UNK        -0.0205 
     16 S16         3.6437  -22.9234  -47.4599 S.3       23 UNK        -0.2404 
     17 C17         1.8665  -22.9237  -47.8917 C.3       23 UNK        -0.0398 
     18 CA          1.0501  -24.0413  -47.2078 C.3       11 UNK         0.1400 
     19 N           1.1917  -24.0548  -45.7505 N.am      11 UNK        -0.5000 
     20 C           0.7625  -25.0537  -44.9633 C.2       10 UNK         0.5000 
     21 O           0.2580  -26.0910  -45.3951 O.2       10 UNK        -0.5000 
     22 CA          0.8589  -24.8381  -43.4390 C.3       10 UNK         0.1400 
     23 CB          2.2104  -25.3393  -42.9097 C.3       10 UNK        -0.1800 
     24 N           0.6795  -23.4385  -43.0491 N.am      10 UNK        -0.5000 
     25 C          -0.4185  -22.7094  -43.2936 C.2       9 UNK         0.5000 
     26 O          -1.4551  -23.1911  -43.7504 O.2       9 UNK        -0.5000 
     27 CA         -0.3360  -21.1882  -43.0406 C.3       9 UNK         0.1400 
     28 CB         -1.1509  -20.8033  -41.7974 C.3       9 UNK        -0.1800 
     29 N           1.0274  -20.6617  -42.8985 N.am      9 UNK        -0.5000 
     30 C           1.9830  -20.6966  -43.8366 C.2       8 UNK         0.5000 
     31 O           1.8223  -21.2036  -44.9471 O.2       8 UNK        -0.5000 
     32 CA          3.3515  -20.1025  -43.4439 C.3       8 UNK         0.1400 
     33 CB          4.5160  -20.8586  -44.1077 C.3       8 UNK        -0.1800 
     34 N           3.4665  -18.6767  -43.7572 N.am      8 UNK        -0.5000 
     35 C           2.8037  -17.6906  -43.1374 C.2       7 UNK         0.5000 
     36 O           1.9861  -17.8957  -42.2375 O.2       7 UNK        -0.5000 
     37 CA          3.1295  -16.2368  -43.5544 C.3       7 UNK         0.1400 
     38 CB          3.8457  -16.0976  -44.9134 C.3       7 UNK        -0.1800 
     39 N           1.9194  -15.4144  -43.5658 N.am      7 UNK        -0.5000 
     40 C           1.4320  -14.7495  -42.5096 C.2       6 UNK         0.5000 
     41 O           2.0008  -14.6894  -41.4172 O.2       6 UNK        -0.5000 
     42 CA          0.0778  -14.0360  -42.7187 C.3       6 UNK         0.1400 
     43 CB         -0.2241  -12.9844  -41.6301 C.3       6 UNK        -0.1800 
     44 N          -0.0876  -13.4509  -44.0552 N.am      6 UNK        -0.5000 
     45 C           0.6678  -12.5018  -44.6252 C.2       5 UNK         0.5000 
     46 O           1.6798  -12.0116  -44.1185 O.2       5 UNK        -0.5000 
     47 CA          0.1755  -11.9882  -45.9843 C.3       5 UNK         0.1400 
     48 CB         -0.7067  -10.7463  -45.7851 C.3       5 UNK        -0.1800 
     49 N           1.3212  -11.6251  -46.8138 N.am      5 UNK        -0.5000 
     50 C           1.6901  -12.0816  -48.0212 C.2       4 UNK         0.5000 
     51 O           2.7632  -11.7340  -48.5113 O.2       4 UNK        -0.5000 
     52 CA          0.8003  -13.0482  -48.8425 C.3       4 UNK         0.1400 
     53 CB          0.9666  -14.5029  -48.3738 C.3       4 UNK        -0.1800 
     54 N          -0.6221  -12.7098  -48.9037 N.am      4 UNK        -0.5000 
     55 C          -1.1425  -11.6048  -49.4527 C.2       3 UNK         0.5000 
     56 O          -0.4687  -10.7314  -49.9986 O.2       3 UNK        -0.5000 
     57 CA         -2.6766  -11.4558  -49.4057 C.3       3 UNK         0.1400 
     58 CB         -3.2662  -11.4600  -50.8256 C.3       3 UNK        -0.1800 
     59 N          -3.3248  -12.5221  -48.6334 N.am      3 UNK        -0.5000 
     60 C          -3.8514  -12.3716  -47.4108 C.2       2 UNK         0.5000 
     61 O          -3.8359  -11.3157  -46.7796 O.2       2 UNK        -0.5000 
     62 CA         -4.5102  -13.6144  -46.7857 C.3       2 UNK         0.1400 
     63 CB         -5.9850  -13.7084  -47.2059 C.3       2 UNK        -0.1800 
     64 N          -3.8353  -14.8644  -47.1401 N.am      2 UNK        -0.5000 
     65 C          -2.6727  -15.2801  -46.6172 C.2       1 UNK         0.5000 
     66 O          -2.0156  -14.6080  -45.8210 O.2       1 UNK        -0.5000 
     67 C          -0.4317  -23.9133  -47.6074 C.2       11 UNK         0.5000 
     68 O          -0.8717  -24.6226  -48.5076 O.2       11 UNK        -0.5000 
     69 N          -1.1845  -23.0455  -46.9123 N.am      12 UNK        -0.5000 
     70 CA         -2.6225  -22.8534  -47.1145 C.3       12 UNK         0.1400 
     71 CB         -3.1176  -21.6360  -46.3206 C.3       12 UNK        -0.1800 
     72 C          -3.4455  -24.1001  -46.7635 C.2       12 UNK         0.5000 
     73 O          -4.3925  -24.4136  -47.4843 O.2       12 UNK        -0.5000 
     74 N          -3.0491  -24.8055  -45.6965 N.am      13 UNK        -0.5000 
     75 CA         -3.6291  -26.0864  -45.2957 C.3       13 UNK         0.1400 
     76 CB         -3.0572  -26.5057  -43.9331 C.3       13 UNK        -0.1800 
     77 C          -3.4099  -27.1861  -46.3528 C.2       13 UNK         0.5000 
     78 O          -4.3461  -27.9234  -46.6629 O.2       13 UNK        -0.5000 
     79 N          -2.1923  -27.2527  -46.9098 N.am      14 UNK        -0.5000 
     80 CA         -1.8171  -28.1881  -47.9711 C.3       14 UNK         0.1400 
     81 CB         -0.2868  -28.2121  -48.1073 C.3       14 UNK        -0.1800 
     82 C          -2.4799  -27.8616  -49.3237 C.2       14 UNK         0.5000 
     83 O          -2.9530  -28.7713  -50.0055 O.2       14 UNK        -0.5000 
     84 N          -2.5045  -26.5723  -49.6850 N.am      15 UNK        -0.5000 
     85 CA         -3.0265  -26.0589  -50.9537 C.3       15 UNK         0.1400 
     86 CB         -2.3565  -24.7060  -51.2485 C.3       15 UNK        -0.1800 
     87 C          -4.5606  -25.9147  -50.9909 C.2       15 UNK         0.5000 
     88 O          -5.0960  -25.5697  -52.0440 O.2       15 UNK        -0.5000 
     89 N          -5.2367  -26.1420  -49.8552 N.am      16 UNK        -0.5000 
     90 CA         -6.6808  -25.9929  -49.6397 C.3       16 UNK         0.1400 
     91 CB         -7.4736  -27.0325  -50.4593 C.3       16 UNK        -0.1800 
     92 C          -7.1511  -24.5410  -49.8709 C.2       16 UNK         0.5000 
     93 O          -8.0933  -24.2951  -50.6254 O.2       16 UNK        -0.5000 
     94 N          -6.4442  -23.6076  -49.2197 N.am      17 UNK        -0.5000 
     95 CA         -6.6373  -22.1532  -49.2075 C.3       17 UNK         0.1400 
     96 CB         -8.0431  -21.7712  -48.7028 C.3       17 UNK        -0.1800 
     97 C          -6.2713  -21.4278  -50.5199 C.2       17 UNK         0.5000 
     98 O          -6.4309  -20.2086  -50.5926 O.2       17 UNK        -0.5000 
     99 N          -5.7218  -22.1439  -51.5128 N.am      18 UNK        -0.5000 
    100 CA        -5.2427  -21.5665  -52.7761 C.3       18 UNK         0.1400 
    101 CB        -5.0281  -22.6857  -53.8042 C.3       18 UNK        -0.1800 
    102 C         -3.9684  -20.7081  -52.6194 C.2       18 UNK         0.5000 
    103 O         -3.6457  -19.9298  -53.5169 O.2       18 UNK        -0.5000 
    104 N         -3.2917  -20.8208  -51.4658 N.am      19 UNK        -0.5000 
    105 CA        -2.1019  -20.0566  -51.0772 C.3       19 UNK         0.1400 
    106 CB        -1.5470  -20.6361  -49.7706 C.3       19 UNK        -0.1800 
    107 C         -2.3261  -18.5341  -50.9434 C.2       19 UNK         0.5000 
    108 O         -1.3588  -17.7871  -50.8144 O.2       19 UNK        -0.5000 
    109 N         -3.5814  -18.0678  -51.0145 N.am      20 UNK        -0.5000 
    110 CA        -3.9238  -16.6526  -51.1938 C.3       20 UNK         0.1400 
    111 CB        -5.4497  -16.4945  -51.1460 C.3       20 UNK        -0.1800 
    112 C         -3.3485  -16.0384  -52.4915 C.2       20 UNK         0.5000 
    113 O         -3.1443  -14.8255  -52.5409 O.2       20 UNK        -0.5000 
    114 N         -3.0419  -16.8824  -53.4907 N.am      21 UNK        -0.5000 
    115 CA        -2.4012  -16.5219  -54.7589 C.3       21 UNK         0.1400 
    116 CB        -2.3110  -17.7748  -55.6430 C.3       21 UNK        -0.1800 
    117 C         -1.0110  -15.8624  -54.6249 C.2       21 UNK         0.5000 
    118 O         -0.6035  -15.1516  -55.5448 O.2       21 UNK        -0.5000 
    119 N         -0.3184  -16.0769  -53.4958 N.am      22 UNK        -0.5000 
    120 CA         0.9130  -15.3475  -53.1410 C.3       22 UNK         0.1400 
    121 C          0.6734  -13.8681  -52.7105 C.2       22 UNK         0.5000 
    122 N         -0.5536  -13.4133  -52.4831 N.am      22 UNK        -0.7600 
    123 O          1.6292  -13.1070  -52.5931 O.2       22 UNK        -0.5000 
    124 C124        1.7539  -16.0999  -52.0767 C.3       23 UNK        -0.0398 
    125 S125        2.5865  -17.5828  -52.7451 S.3       23 UNK        -0.2404 
    126 C126        1.6870  -18.9511  -51.9534 C.3       23 UNK        -0.0205 
    127 H127       -4.6147  -19.5051  -48.5415 H         1 UNK         0.0600 
    128 H128       -5.9331  -18.3572  -48.2675 H         1 UNK         0.0600 
    129 H129       -5.6539  -19.6690  -47.1239 H         1 UNK         0.0600 
    130 H130       -3.0691  -17.7529  -48.6185 H         1 UNK         0.3000 
    131 H131       -1.4832  -16.4271  -47.9202 H         1 UNK         0.0600 
    132 H132       -0.5292  -16.6711  -45.5774 H         1 UNK         0.0800 
    133 H133       -1.8789  -17.6822  -45.1571 H         1 UNK         0.0800 
    134 H134        1.1808  -17.0343  -47.2116 H         1 UNK         0.0800 
    135 H135        1.8404  -18.1921  -46.0724 H         1 UNK         0.0800 
    136 H136        0.8273  -17.7628  -49.6269 H         1 UNK         0.1150 
    137 H137        3.4732  -20.8102  -51.0754 H         1 UNK         0.1150 
    138 H138        3.1632  -20.0308  -46.8721 H         1 UNK         0.1150 
    139 H139        4.5781  -22.2591  -49.5771 H         1 UNK         0.0800 
    140 H140        5.2991  -21.3563  -48.2671 H         1 UNK         0.0800 
    141 H141        1.7786  -23.0019  -48.9772 H         1 UNK         0.0800 
    142 H142        1.4455  -21.9560  -47.6168 H         1 UNK         0.0800 
    143 H143        1.4134  -24.9993  -47.5859 H         1 UNK         0.0600 
    144 H144        1.5729  -23.2112  -45.3345 H         1 UNK         0.3000 
    145 H145        0.0647  -25.4220  -42.9693 H         1 UNK         0.0600 
    146 H146        2.2632  -25.2607  -41.8237 H         1 UNK         0.0600 
    147 H147        2.3649  -26.3881  -43.1666 H         1 UNK         0.0600 
    148 H148        3.0424  -24.7722  -43.3296 H         1 UNK         0.0600 
    149 H149        1.4842  -22.9670  -42.6653 H         1 UNK         0.3000 
    150 H150       -0.7853  -20.6984  -43.9072 H         1 UNK         0.0600 
    151 H151       -1.1793  -19.7215  -41.6643 H         1 UNK         0.0600 
    152 H152       -0.7331  -21.2437  -40.8913 H         1 UNK         0.0600 
    153 H153       -2.1831  -21.1455  -41.8841 H         1 UNK         0.0600 
    154 H154        1.2282  -20.1693  -42.0384 H         1 UNK         0.3000 
    155 H155        3.4667  -20.2212  -42.3643 H         1 UNK         0.0600 
    156 H156        4.4476  -21.9300  -43.9142 H         1 UNK         0.0600 
    157 H157        5.4767  -20.5205  -43.7191 H         1 UNK         0.0600 
    158 H158        4.5291  -20.7246  -45.1889 H         1 UNK         0.0600 
    159 H159        4.1147  -18.4344  -44.4917 H         1 UNK         0.3000 
    160 H160        3.8154  -15.8532  -42.7964 H         1 UNK         0.0600 
    161 H161        4.7917  -16.6397  -44.9287 H         1 UNK         0.0600 
    162 H162        4.0833  -15.0526  -45.1147 H         1 UNK         0.0600 
    163 H163        3.2388  -16.4541  -45.7429 H         1 UNK         0.0600 
    164 H164        1.3786  -15.4149  -44.4162 H         1 UNK         0.3000 
    165 H165       -0.6819  -14.8147  -42.6368 H         1 UNK         0.0600 
    166 H166       -1.1969  -12.5197  -41.7905 H         1 UNK         0.0600 
    167 H167       -0.2439  -13.4396  -40.6392 H         1 UNK         0.0600 
    168 H168        0.5265  -12.1936  -41.6121 H         1 UNK         0.0600 
    169 H169       -0.8830  -13.8048  -44.5845 H         1 UNK         0.3000 
    170 H170       -0.4182  -12.7742  -46.4361 H         1 UNK         0.0600 
    171 H171       -1.0813  -10.3670  -46.7351 H         1 UNK         0.0600 
    172 H172       -1.5730  -10.9790  -45.1645 H         1 UNK         0.0600 
    173 H173       -0.1612   -9.9378  -45.2966 H         1 UNK         0.0600 
    174 H174        1.9840  -11.0404  -46.3245 H         1 UNK         0.3000 
    175 H175        1.1700  -13.0030  -49.8681 H         1 UNK         0.0600 
    176 H176        0.5781  -14.6567  -47.3676 H         1 UNK         0.0600 
    177 H177        0.4511  -15.1917  -49.0433 H         1 UNK         0.0600 
    178 H178        2.0189  -14.7907  -48.3652 H         1 UNK         0.0600 
    179 H179       -1.2592  -13.3548  -48.4661 H         1 UNK         0.3000 
    180 H180       -2.8854  -10.4812  -48.9597 H         1 UNK         0.0600 
    181 H181       -4.3427  -11.2899  -50.8035 H         1 UNK         0.0600 
    182 H182       -3.0895  -12.4083  -51.3327 H         1 UNK         0.0600 
    183 H183       -2.8278  -10.6715  -51.4385 H         1 UNK         0.0600 
    184 H184       -3.4156  -13.4174  -49.0898 H         1 UNK         0.3000 
    185 H185       -4.4734  -13.4983  -45.7002 H         1 UNK         0.0600 
    186 H186       -6.0914  -13.8463  -48.2827 H         1 UNK         0.0600 
    187 H187       -6.4832  -14.5417  -46.7098 H         1 UNK         0.0600 
    188 H188       -6.5266  -12.8007  -46.9361 H         1 UNK         0.0600 
    189 H189       -4.3287  -15.4867  -47.7619 H         1 UNK         0.3000 
    190 H190       -0.7563  -22.5215  -46.1632 H         1 UNK         0.3000 
    191 H191       -2.7885  -22.6587  -48.1744 H         1 UNK         0.0600 
    192 H192       -2.9800  -21.7609  -45.2477 H         1 UNK         0.0600 
    193 H193       -4.1818  -21.4727  -46.4892 H         1 UNK         0.0600 
    194 H194       -2.5975  -20.7273  -46.6173 H         1 UNK         0.0600 
    195 H195       -2.3019  -24.4322  -45.1201 H         1 UNK         0.3000 
    196 H196       -4.7057  -25.9430  -45.1820 H         1 UNK         0.0600 
    197 H197       -3.5162  -27.4325  -43.5870 H         1 UNK         0.0600 
    198 H198       -3.2461  -25.7450  -43.1753 H         1 UNK         0.0600 
    199 H199       -1.9809  -26.6708  -43.9790 H         1 UNK         0.0600 
    200 H200       -1.4666  -26.6295  -46.5745 H         1 UNK         0.3000 
    201 H201       -2.1440  -29.1867  -47.6735 H         1 UNK         0.0600 
    202 H202        0.1865  -28.5159  -47.1734 H         1 UNK         0.0600 
    203 H203        0.1102  -27.2332  -48.3781 H         1 UNK         0.0600 
    204 H204        0.0265  -28.9188  -48.8767 H         1 UNK         0.0600 
    205 H205       -2.0347  -25.8906  -49.0918 H         1 UNK         0.3000 
    206 H206       -2.7476  -26.7532  -51.7489 H         1 UNK         0.0600 
    207 H207       -1.2700  -24.7886  -51.2190 H         1 UNK         0.0600 
    208 H208       -2.6180  -24.3445  -52.2418 H         1 UNK         0.0600 
    209 H209       -2.6551  -23.9438  -50.5280 H         1 UNK         0.0600 
    210 H210       -4.6936  -26.3652  -49.0319 H         1 UNK         0.3000 
    211 H211       -6.8550  -26.2067  -48.5840 H         1 UNK         0.0600 
    212 H212       -7.3859  -26.8608  -51.5324 H         1 UNK         0.0600 
    213 H213       -8.5345  -26.9967  -50.2097 H         1 UNK         0.0600 
    214 H214       -7.1253  -28.0444  -50.2523 H         1 UNK         0.0600 
    215 H215       -5.6827  -23.9411  -48.6282 H         1 UNK         0.3000 
    216 H216       -5.9245  -21.7862  -48.4689 H         1 UNK         0.0600 
    217 H217       -8.1179  -20.6966  -48.5317 H         1 UNK         0.0600 
    218 H218       -8.2708  -22.2644  -47.7578 H         1 UNK         0.0600 
    219 H219       -8.8199  -22.0393  -49.4191 H         1 UNK         0.0600 
    220 H220       -5.6454  -23.1466  -51.4088 H         1 UNK         0.3000 
    221 H221       -6.0240  -20.9081  -53.1614 H         1 UNK         0.0600 
    222 H222       -4.2378  -23.3694  -53.4997 H         1 UNK         0.0600 
    223 H223       -5.9376  -23.2694  -53.9484 H         1 UNK         0.0600 
    224 H224       -4.7482  -22.2753  -54.7753 H         1 UNK         0.0600 
    225 H225       -3.6379  -21.4852  -50.7917 H         1 UNK         0.3000 
    226 H226       -1.3535  -20.2005  -51.8584 H         1 UNK         0.0600 
    227 H227       -1.3407  -21.7024  -49.8638 H         1 UNK         0.0600 
    228 H228       -0.6097  -20.1564  -49.4928 H         1 UNK         0.0600 
    229 H229       -2.2414  -20.4868  -48.9455 H         1 UNK         0.0600 
    230 H230       -4.3362  -18.7319  -51.1238 H         1 UNK         0.3000 
    231 H231       -3.4960  -16.0945  -50.3589 H         1 UNK         0.0600 
    232 H232       -5.9363  -17.0609  -51.9411 H         1 UNK         0.0600 
    233 H233       -5.8542  -16.8395  -50.1949 H         1 UNK         0.0600 
    234 H234       -5.7394  -15.4491  -51.2611 H         1 UNK         0.0600 
    235 H235       -3.2519  -17.8675  -53.3717 H         1 UNK         0.3000 
    236 H236       -3.0516  -15.7997  -55.2561 H         1 UNK         0.0600 
    237 H237       -1.6980  -18.5486  -55.1788 H         1 UNK         0.0600 
    238 H238       -3.2982  -18.1978  -55.8305 H         1 UNK         0.0600 
    239 H239       -1.8690  -17.5417  -56.6126 H         1 UNK         0.0600 
    240 H240       -0.7196  -16.6621  -52.7752 H         1 UNK         0.3000 
    241 H241        1.5244  -15.2796  -54.0431 H         1 UNK         0.0600 
    242 H242       -0.6636  -12.4460  -52.2271 H         1 UNK         0.3800 
    243 H243       -1.3732  -14.0029  -52.5860 H         1 UNK         0.3800 
    244 H244        2.5460  -15.4620  -51.6801 H         1 UNK         0.0800 
    245 H245        1.1257  -16.3537  -51.2264 H         1 UNK         0.0800 
    246 H246        1.8341  -19.8485  -52.5559 H         1 UNK         0.0800 
    247 H247        0.6197  -18.7493  -51.9887 H         1 UNK         0.0800 
@<TRIPOS>BOND
     1    1    2 1    
     2    1  127 1    
     3    1  128 1    
     4    1  129 1    
     5    2    3 2    
     6    2    4 am   BACKBONE|DICT|INTERRES
     7    4    5 1    
     8    4  130 1    
     9    5    6 1    
    10    5   65 1    
    11    5  131 1    
    12    6    7 1    
    13    6  132 1    
    14    6  133 1    
    15    7    8 1    
    16    8    9 1    
    17    8  134 1    
    18    8  135 1    
    19    9   10 ar   
    20    9   14 ar   
    21   10   11 ar   
    22   10  136 1    
    23   11   12 ar   
    24   11  126 1    
    25   12   13 ar   
    26   12  137 1    
    27   13   14 ar   
    28   13   15 1    
    29   14  138 1    
    30   15   16 1    
    31   15  139 1    
    32   15  140 1    
    33   16   17 1    
    34   17   18 1    
    35   17  141 1    
    36   17  142 1    
    37   18   19 1    
    38   18   67 1    
    39   18  143 1    
    40   19   20 am   BACKBONE|DICT|INTERRES
    41   19  144 1    
    42   20   21 2    
    43   20   22 1    
    44   22   23 1    
    45   22   24 1    
    46   22  145 1    
    47   23  146 1    
    48   23  147 1    
    49   23  148 1    
    50   24   25 am   BACKBONE|DICT|INTERRES
    51   24  149 1    
    52   25   26 2    
    53   25   27 1    
    54   27   28 1    
    55   27   29 1    
    56   27  150 1    
    57   28  151 1    
    58   28  152 1    
    59   28  153 1    
    60   29   30 am   BACKBONE|DICT|INTERRES
    61   29  154 1    
    62   30   31 2    
    63   30   32 1    
    64   32   33 1    
    65   32   34 1    
    66   32  155 1    
    67   33  156 1    
    68   33  157 1    
    69   33  158 1    
    70   34   35 am   BACKBONE|DICT|INTERRES
    71   34  159 1    
    72   35   36 2    
    73   35   37 1    
    74   37   38 1    
    75   37   39 1    
    76   37  160 1    
    77   38  161 1    
    78   38  162 1    
    79   38  163 1    
    80   39   40 am   BACKBONE|DICT|INTERRES
    81   39  164 1    
    82   40   41 2    
    83   40   42 1    
    84   42   43 1    
    85   42   44 1    
    86   42  165 1    
    87   43  166 1    
    88   43  167 1    
    89   43  168 1    
    90   44   45 am   BACKBONE|DICT|INTERRES
    91   44  169 1    
    92   45   46 2    
    93   45   47 1    
    94   47   48 1    
    95   47   49 1    
    96   47  170 1    
    97   48  171 1    
    98   48  172 1    
    99   48  173 1    
   100   49   50 am   BACKBONE|DICT|INTERRES
   101   49  174 1    
   102   50   51 2    
   103   50   52 1    
   104   52   53 1    
   105   52   54 1    
   106   52  175 1    
   107   53  176 1    
   108   53  177 1    
   109   53  178 1    
   110   54   55 am   BACKBONE|DICT|INTERRES
   111   54  179 1    
   112   55   56 2    
   113   55   57 1    
   114   57   58 1    
   115   57   59 1    
   116   57  180 1    
   117   58  181 1    
   118   58  182 1    
   119   58  183 1    
   120   59   60 am   BACKBONE|DICT|INTERRES
   121   59  184 1    
   122   60   61 2    
   123   60   62 1    
   124   62   63 1    
   125   62   64 1    
   126   62  185 1    
   127   63  186 1    
   128   63  187 1    
   129   63  188 1    
   130   64   65 am   BACKBONE|DICT|INTERRES
   131   64  189 1    
   132   65   66 2    
   133   67   68 2    
   134   67   69 am   BACKBONE|DICT|INTERRES
   135   69   70 1    
   136   69  190 1    
   137   70   71 1    
   138   70   72 1    
   139   70  191 1    
   140   71  192 1    
   141   71  193 1    
   142   71  194 1    
   143   72   73 2    
   144   72   74 am   BACKBONE|DICT|INTERRES
   145   74   75 1    
   146   74  195 1    
   147   75   76 1    
   148   75   77 1    
   149   75  196 1    
   150   76  197 1    
   151   76  198 1    
   152   76  199 1    
   153   77   78 2    
   154   77   79 am   BACKBONE|DICT|INTERRES
   155   79   80 1    
   156   79  200 1    
   157   80   81 1    
   158   80   82 1    
   159   80  201 1    
   160   81  202 1    
   161   81  203 1    
   162   81  204 1    
   163   82   83 2    
   164   82   84 am   BACKBONE|DICT|INTERRES
   165   84   85 1    
   166   84  205 1    
   167   85   86 1    
   168   85   87 1    
   169   85  206 1    
   170   86  207 1    
   171   86  208 1    
   172   86  209 1    
   173   87   88 2    
   174   87   89 am   BACKBONE|DICT|INTERRES
   175   89   90 1    
   176   89  210 1    
   177   90   91 1    
   178   90   92 1    
   179   90  211 1    
   180   91  212 1    
   181   91  213 1    
   182   91  214 1    
   183   92   93 2    
   184   92   94 am   BACKBONE|DICT|INTERRES
   185   94   95 1    
   186   94  215 1    
   187   95   96 1    
   188   95   97 1    
   189   95  216 1    
   190   96  217 1    
   191   96  218 1    
   192   96  219 1    
   193   97   98 2    
   194   97   99 am   BACKBONE|DICT|INTERRES
   195   99  100 1    
   196   99  220 1    
   197  100  101 1    
   198  100  102 1    
   199  100  221 1    
   200  101  222 1    
   201  101  223 1    
   202  101  224 1    
   203  102  103 2    
   204  102  104 am   BACKBONE|DICT|INTERRES
   205  104  105 1    
   206  104  225 1    
   207  105  106 1    
   208  105  107 1    
   209  105  226 1    
   210  106  227 1    
   211  106  228 1    
   212  106  229 1    
   213  107  108 2    
   214  107  109 am   BACKBONE|DICT|INTERRES
   215  109  110 1    
   216  109  230 1    
   217  110  111 1    
   218  110  112 1    
   219  110  231 1    
   220  111  232 1    
   221  111  233 1    
   222  111  234 1    
   223  112  113 2    
   224  112  114 am   BACKBONE|DICT|INTERRES
   225  114  115 1    
   226  114  235 1    
   227  115  116 1    
   228  115  117 1    
   229  115  236 1    
   230  116  237 1    
   231  116  238 1    
   232  116  239 1    
   233  117  118 2    
   234  117  119 am   BACKBONE|DICT|INTERRES
   235  119  120 1    
   236  119  240 1    
   237  120  121 1    
   238  120  124 1    
   239  120  241 1    
   240  121  122 am   BACKBONE|DICT|INTERRES
   241  121  123 2    
   242  122  242 1    
   243  122  243 1    
   244  124  125 1    
   245  124  244 1    
   246  124  245 1    
   247  125  126 1    
   248  126  246 1    
   249  126  247 1    
@<TRIPOS>SUBSTRUCTURE
     1 UNK         1 GROUP             0       ****    0 ROOT    
