@<TRIPOS>MOLECULE
3R540
247   249    1
SMALL
USER_CHARGES


@<TRIPOS>ATOM
      1 CA          4.7346  -10.0597  -47.9757 C.3       0 UNK        -0.1800 
      2 C           3.5725  -10.7638  -47.2922 C.2       0 UNK         0.5000 
      3 O           3.4116  -10.6400  -46.0788 O.2       0 UNK        -0.5000 
      4 N           2.7497  -11.4835  -48.0662 N.am      1 UNK        -0.5000 
      5 CA          1.6102  -12.2999  -47.6146 C.3       1 UNK         0.1400 
      6 C6          0.9675  -13.0728  -48.7906 C.3       23 UNK        -0.0398 
      7 S7          2.1366  -14.1957  -49.6315 S.3       23 UNK        -0.2404 
      8 C8          1.3730  -15.8162  -49.2990 C.3       23 UNK        -0.0205 
      9 C9          1.8471  -16.8959  -50.2610 C.ar      23 UNK        -0.0193 
     10 C10         1.7156  -16.7101  -51.6408 C.ar      23 UNK        -0.1150 
     11 C11         2.1021  -17.7078  -52.5388 C.ar      23 UNK        -0.0193 
     12 C12         2.6287  -18.9033  -52.0433 C.ar      23 UNK        -0.1150 
     13 C13         2.7345  -19.1178  -50.6663 C.ar      23 UNK        -0.0193 
     14 C14         2.3559  -18.1060  -49.7779 C.ar      23 UNK        -0.1150 
     15 C15         3.2360  -20.4569  -50.1505 C.3       23 UNK        -0.0205 
     16 S16         1.8727  -21.6589  -50.0145 S.3       23 UNK        -0.2404 
     17 C17         1.1070  -21.1639  -48.4338 C.3       23 UNK        -0.0398 
     18 CA          0.4744  -22.3514  -47.6694 C.3       11 UNK         0.1400 
     19 N           0.3094  -22.0485  -46.2456 N.am      11 UNK        -0.5000 
     20 C          -0.0581  -22.9322  -45.3076 C.2       10 UNK         0.5000 
     21 O          -0.2632  -24.1236  -45.5335 O.2       10 UNK        -0.5000 
     22 CA         -0.2798  -22.3865  -43.8859 C.3       10 UNK         0.1400 
     23 CB          1.0577  -22.2163  -43.1510 C.3       10 UNK        -0.1800 
     24 N          -1.0195  -21.1233  -43.8762 N.am      10 UNK        -0.5000 
     25 C          -2.2803  -20.9841  -44.3113 C.2       9 UNK         0.5000 
     26 O          -2.9657  -21.9176  -44.7263 O.2       9 UNK        -0.5000 
     27 CA         -2.8618  -19.5598  -44.3332 C.3       9 UNK         0.1400 
     28 CB         -3.3296  -19.1382  -42.9325 C.3       9 UNK        -0.1800 
     29 N          -1.9220  -18.5702  -44.8595 N.am      9 UNK        -0.5000 
     30 C          -1.4125  -18.5856  -46.0996 C.2       8 UNK         0.5000 
     31 O          -1.6995  -19.4279  -46.9498 O.2       8 UNK        -0.5000 
     32 CA         -0.3525  -17.5177  -46.4223 C.3       8 UNK         0.1400 
     33 CB         -1.0005  -16.1416  -46.6420 C.3       8 UNK        -0.1800 
     34 N           0.6691  -17.4233  -45.3786 N.am      8 UNK        -0.5000 
     35 C           1.4823  -18.4284  -45.0214 C.2       7 UNK         0.5000 
     36 O           1.5072  -19.5218  -45.5835 O.2       7 UNK        -0.5000 
     37 CA          2.3783  -18.1943  -43.7956 C.3       7 UNK         0.1400 
     38 CB          3.6575  -17.4418  -44.1894 C.3       7 UNK        -0.1800 
     39 N           1.6683  -17.4700  -42.7409 N.am      7 UNK        -0.5000 
     40 C           0.6770  -17.9973  -42.0066 C.2       6 UNK         0.5000 
     41 O           0.2909  -19.1604  -42.1165 O.2       6 UNK        -0.5000 
     42 CA         -0.0304  -17.0565  -41.0142 C.3       6 UNK         0.1400 
     43 CB          0.7476  -16.9778  -39.6924 C.3       6 UNK        -0.1800 
     44 N          -0.2108  -15.7086  -41.5534 N.am      6 UNK        -0.5000 
     45 C          -1.0029  -15.4076  -42.5923 C.2       5 UNK         0.5000 
     46 O          -1.7145  -16.2301  -43.1673 O.2       5 UNK        -0.5000 
     47 CA         -0.9498  -13.9576  -43.1066 C.3       5 UNK         0.1400 
     48 CB         -1.9982  -13.0875  -42.3991 C.3       5 UNK        -0.1800 
     49 N           0.3697  -13.3429  -42.9526 N.am      5 UNK        -0.5000 
     50 C           1.4847  -13.7508  -43.5713 C.2       4 UNK         0.5000 
     51 O           1.5212  -14.7289  -44.3209 O.2       4 UNK        -0.5000 
     52 CA          2.7596  -12.9285  -43.2917 C.3       4 UNK         0.1400 
     53 CB          3.9676  -13.4030  -44.1185 C.3       4 UNK        -0.1800 
     54 N           2.5496  -11.5045  -43.5471 N.am      4 UNK        -0.5000 
     55 C           1.9698  -10.6305  -42.7140 C.2       3 UNK         0.5000 
     56 O           1.5231  -10.9380  -41.6082 O.2       3 UNK        -0.5000 
     57 CA          1.8231   -9.1902  -43.2270 C.3       3 UNK         0.1400 
     58 CB          3.1783   -8.4651  -43.2259 C.3       3 UNK        -0.1800 
     59 N           1.2735   -9.1942  -44.5808 N.am      3 UNK        -0.5000 
     60 C          -0.0307   -9.0968  -44.8731 C.2       2 UNK         0.5000 
     61 O          -0.9088   -8.8936  -44.0338 O.2       2 UNK        -0.5000 
     62 CA         -0.4264   -9.2658  -46.3538 C.3       2 UNK         0.1400 
     63 CB         -0.4320   -7.9064  -47.0693 C.3       2 UNK        -0.1800 
     64 N           0.4559  -10.1836  -47.0766 N.am      2 UNK        -0.5000 
     65 C           0.5205  -11.5052  -46.8591 C.2       1 UNK         0.5000 
     66 O          -0.2340  -12.1015  -46.0916 O.2       1 UNK        -0.5000 
     67 C          -0.8527  -22.8100  -48.3105 C.2       11 UNK         0.5000 
     68 O          -0.8734  -23.8291  -49.0020 O.2       11 UNK        -0.5000 
     69 N          -1.9441  -22.0839  -48.0246 N.am      12 UNK        -0.5000 
     70 CA         -3.3004  -22.4186  -48.4594 C.3       12 UNK         0.1400 
     71 CB         -4.2642  -21.2877  -48.0679 C.3       12 UNK        -0.1800 
     72 C          -3.7864  -23.7681  -47.9016 C.2       12 UNK         0.5000 
     73 O          -4.3494  -24.5622  -48.6522 O.2       12 UNK        -0.5000 
     74 N          -3.5296  -24.0233  -46.6110 N.am      13 UNK        -0.5000 
     75 CA         -3.8512  -25.2811  -45.9355 C.3       13 UNK         0.1400 
     76 CB         -3.6334  -25.1262  -44.4228 C.3       13 UNK        -0.1800 
     77 C          -3.0529  -26.4793  -46.4813 C.2       13 UNK         0.5000 
     78 O          -3.6254  -27.5560  -46.6513 O.2       13 UNK        -0.5000 
     79 N          -1.7585  -26.2696  -46.7607 N.am      14 UNK        -0.5000 
     80 CA         -0.8598  -27.2685  -47.3402 C.3       14 UNK         0.1400 
     81 CB          0.5903  -26.7662  -47.2643 C.3       14 UNK        -0.1800 
     82 C          -1.2340  -27.6354  -48.7869 C.2       14 UNK         0.5000 
     83 O          -1.2269  -28.8175  -49.1332 O.2       14 UNK        -0.5000 
     84 N          -1.5669  -26.6222  -49.5986 N.am      15 UNK        -0.5000 
     85 CA         -2.0294  -26.7909  -50.9768 C.3       15 UNK         0.1400 
     86 CB         -1.9489  -25.4407  -51.6991 C.3       15 UNK        -0.1800 
     87 C          -3.4567  -27.3644  -51.0625 C.2       15 UNK         0.5000 
     88 O          -3.7634  -28.0894  -52.0099 O.2       15 UNK        -0.5000 
     89 N          -4.2970  -27.0199  -50.0773 N.am      16 UNK        -0.5000 
     90 CA         -5.6902  -27.4120  -49.8454 C.3       16 UNK         0.1400 
     91 CB         -5.8325  -28.9381  -49.6920 C.3       16 UNK        -0.1800 
     92 C          -6.6823  -26.8487  -50.8789 C.2       16 UNK         0.5000 
     93 O          -7.6698  -26.2226  -50.4925 O.2       16 UNK        -0.5000 
     94 N          -6.4112  -27.0790  -52.1680 N.am      17 UNK        -0.5000 
     95 CA         -7.2379  -26.6309  -53.2883 C.3       17 UNK         0.1400 
     96 CB         -6.9397  -27.5141  -54.5093 C.3       17 UNK        -0.1800 
     97 C          -7.0233  -25.1463  -53.6348 C.2       17 UNK         0.5000 
     98 O          -7.9445  -24.5036  -54.1410 O.2       17 UNK        -0.5000 
     99 N          -5.8154  -24.6297  -53.3741 N.am      18 UNK        -0.5000 
    100 CA        -5.4232  -23.2541  -53.6657 C.3       18 UNK         0.1400 
    101 CB        -3.9154  -23.2049  -53.9535 C.3       18 UNK        -0.1800 
    102 C         -5.8265  -22.3266  -52.5079 C.2       18 UNK         0.5000 
    103 O         -5.0330  -22.0818  -51.5959 O.2       18 UNK        -0.5000 
    104 N         -7.0706  -21.8367  -52.5606 N.am      19 UNK        -0.5000 
    105 CA        -7.5771  -20.7839  -51.6824 C.3       19 UNK         0.1400 
    106 CB        -9.0871  -20.6186  -51.9104 C.3       19 UNK        -0.1800 
    107 C         -6.8345  -19.4584  -51.9396 C.2       19 UNK         0.5000 
    108 O         -6.5572  -19.1338  -53.0967 O.2       19 UNK        -0.5000 
    109 N         -6.5309  -18.7309  -50.8562 N.am      20 UNK        -0.5000 
    110 CA        -5.7203  -17.5055  -50.8257 C.3       20 UNK         0.1400 
    111 CB        -6.3913  -16.3608  -51.6156 C.3       20 UNK        -0.1800 
    112 C         -4.2431  -17.7412  -51.2200 C.2       20 UNK         0.5000 
    113 O         -3.6066  -16.8467  -51.7796 O.2       20 UNK        -0.5000 
    114 N         -3.7276  -18.9294  -50.8685 N.am      21 UNK        -0.5000 
    115 CA        -2.3483  -19.4005  -51.0311 C.3       21 UNK         0.1400 
    116 CB        -1.3577  -18.4553  -50.3151 C.3       21 UNK        -0.1800 
    117 C         -1.9572  -19.6804  -52.4978 C.2       21 UNK         0.5000 
    118 O         -2.8207  -19.7446  -53.3751 O.2       21 UNK        -0.5000 
    119 N         -0.6515  -19.8817  -52.7195 N.am      22 UNK        -0.5000 
    120 CA        -0.0214  -20.1922  -54.0149 C.3       22 UNK         0.1400 
    121 C         -0.3357  -21.6187  -54.5565 C.2       22 UNK         0.5000 
    122 N         -0.6249  -22.5888  -53.6984 N.am      22 UNK        -0.7600 
    123 O         -0.2848  -21.8654  -55.7587 O.2       22 UNK        -0.5000 
    124 C124       -0.1941  -19.0780  -55.0874 C.3       23 UNK        -0.0398 
    125 S125        0.1943  -17.3786  -54.5320 S.3       23 UNK        -0.2404 
    126 C126        1.9474  -17.4814  -54.0373 C.3       23 UNK        -0.0205 
    127 H127        4.7472  -10.2463  -49.0497 H         1 UNK         0.0600 
    128 H128        5.6792  -10.4076  -47.5580 H         1 UNK         0.0600 
    129 H129        4.6660   -8.9836  -47.8167 H         1 UNK         0.0600 
    130 H130        2.9462  -11.5447  -49.0555 H         1 UNK         0.3000 
    131 H131        2.0024  -13.0317  -46.9053 H         1 UNK         0.0600 
    132 H132        0.1048  -13.6442  -48.4447 H         1 UNK         0.0800 
    133 H133        0.5799  -12.3753  -49.5353 H         1 UNK         0.0800 
    134 H134        0.2887  -15.7434  -49.3901 H         1 UNK         0.0800 
    135 H135        1.5916  -16.0919  -48.2667 H         1 UNK         0.0800 
    136 H136        1.3003  -15.7865  -52.0193 H         1 UNK         0.1150 
    137 H137        2.9411  -19.6802  -52.7262 H         1 UNK         0.1150 
    138 H138        2.4356  -18.2712  -48.7125 H         1 UNK         0.1150 
    139 H139        3.9852  -20.8551  -50.8365 H         1 UNK         0.0800 
    140 H140        3.7411  -20.3392  -49.1907 H         1 UNK         0.0800 
    141 H141        0.3835  -20.3662  -48.6012 H         1 UNK         0.0800 
    142 H142        1.8938  -20.7263  -47.8201 H         1 UNK         0.0800 
    143 H143        1.1677  -23.1937  -47.7229 H         1 UNK         0.0600 
    144 H144        0.5020  -21.0909  -45.9634 H         1 UNK         0.3000 
    145 H145       -0.8734  -23.1216  -43.3387 H         1 UNK         0.0600 
    146 H146        1.6895  -21.4687  -43.6304 H         1 UNK         0.0600 
    147 H147        0.9024  -21.9096  -42.1166 H         1 UNK         0.0600 
    148 H148        1.6146  -23.1539  -43.1320 H         1 UNK         0.0600 
    149 H149       -0.5352  -20.3145  -43.4989 H         1 UNK         0.3000 
    150 H150       -3.7323  -19.5693  -44.9923 H         1 UNK         0.0600 
    151 H151       -4.0456  -19.8544  -42.5275 H         1 UNK         0.0600 
    152 H152       -3.8211  -18.1655  -42.9581 H         1 UNK         0.0600 
    153 H153       -2.4969  -19.0730  -42.2319 H         1 UNK         0.0600 
    154 H154       -1.6632  -17.8133  -44.2322 H         1 UNK         0.3000 
    155 H155        0.1467  -17.8152  -47.3462 H         1 UNK         0.0600 
    156 H156       -1.6271  -15.8470  -45.8008 H         1 UNK         0.0600 
    157 H157       -0.2492  -15.3639  -46.7762 H         1 UNK         0.0600 
    158 H158       -1.6322  -16.1486  -47.5309 H         1 UNK         0.0600 
    159 H159        0.7506  -16.5385  -44.8886 H         1 UNK         0.3000 
    160 H160        2.6707  -19.1689  -43.3993 H         1 UNK         0.0600 
    161 H161        4.2556  -18.0364  -44.8809 H         1 UNK         0.0600 
    162 H162        3.4362  -16.4978  -44.6862 H         1 UNK         0.0600 
    163 H163        4.2795  -17.2306  -43.3196 H         1 UNK         0.0600 
    164 H164        1.8864  -16.4904  -42.6369 H         1 UNK         0.3000 
    165 H165       -1.0178  -17.4737  -40.8053 H         1 UNK         0.0600 
    166 H166        0.2160  -16.3729  -38.9576 H         1 UNK         0.0600 
    167 H167        0.8811  -17.9701  -39.2594 H         1 UNK         0.0600 
    168 H168        1.7387  -16.5441  -39.8314 H         1 UNK         0.0600 
    169 H169        0.3364  -14.9698  -41.1370 H         1 UNK         0.3000 
    170 H170       -1.1849  -13.9768  -44.1726 H         1 UNK         0.0600 
    171 H171       -2.9978  -13.5083  -42.5156 H         1 UNK         0.0600 
    172 H172       -1.7979  -13.0036  -41.3303 H         1 UNK         0.0600 
    173 H173       -2.0189  -12.0807  -42.8174 H         1 UNK         0.0600 
    174 H174        0.4336  -12.5252  -42.3567 H         1 UNK         0.3000 
    175 H175        3.0073  -13.0641  -42.2370 H         1 UNK         0.0600 
    176 H176        3.7657  -13.3656  -45.1894 H         1 UNK         0.0600 
    177 H177        4.8452  -12.7864  -43.9237 H         1 UNK         0.0600 
    178 H178        4.2344  -14.4289  -43.8663 H         1 UNK         0.0600 
    179 H179        2.8675  -11.1698  -44.4549 H         1 UNK         0.3000 
    180 H180        1.1546   -8.6538  -42.5501 H         1 UNK         0.0600 
    181 H181        3.8985   -8.9447  -43.8899 H         1 UNK         0.0600 
    182 H182        3.6121   -8.4516  -42.2252 H         1 UNK         0.0600 
    183 H183        3.0683   -7.4291  -43.5466 H         1 UNK         0.0600 
    184 H184        1.9223   -9.4231  -45.3247 H         1 UNK         0.3000 
    185 H185       -1.4397   -9.6720  -46.3827 H         1 UNK         0.0600 
    186 H186       -0.7782   -8.0035  -48.0985 H         1 UNK         0.0600 
    187 H187       -1.0996   -7.2045  -46.5678 H         1 UNK         0.0600 
    188 H188        0.5618   -7.4572  -47.0892 H         1 UNK         0.0600 
    189 H189        1.1062   -9.7731  -47.7306 H         1 UNK         0.3000 
    190 H190       -1.8428  -21.2401  -47.4653 H         1 UNK         0.3000 
    191 H191       -3.2859  -22.4955  -49.5482 H         1 UNK         0.0600 
    192 H192       -4.3654  -21.2005  -46.9860 H         1 UNK         0.0600 
    193 H193       -5.2582  -21.4665  -48.4795 H         1 UNK         0.0600 
    194 H194       -3.9212  -20.3246  -48.4429 H         1 UNK         0.0600 
    195 H195       -3.1088  -23.2950  -46.0396 H         1 UNK         0.3000 
    196 H196       -4.9104  -25.4866  -46.1040 H         1 UNK         0.0600 
    197 H197       -3.8807  -26.0482  -43.8953 H         1 UNK         0.0600 
    198 H198       -4.2649  -24.3377  -44.0131 H         1 UNK         0.0600 
    199 H199       -2.5975  -24.8802  -44.1883 H         1 UNK         0.0600 
    200 H200       -1.3467  -25.3693  -46.5304 H         1 UNK         0.3000 
    201 H201       -0.9343  -28.1760  -46.7376 H         1 UNK         0.0600 
    202 H202        0.8937  -26.5957  -46.2313 H         1 UNK         0.0600 
    203 H203        0.7221  -25.8311  -47.8097 H         1 UNK         0.0600 
    204 H204        1.2804  -27.4960  -47.6895 H         1 UNK         0.0600 
    205 H205       -1.4893  -25.6685  -49.2551 H         1 UNK         0.3000 
    206 H206       -1.3589  -27.4884  -51.4832 H         1 UNK         0.0600 
    207 H207       -0.9300  -25.0532  -51.6966 H         1 UNK         0.0600 
    208 H208       -2.2584  -25.5389  -52.7401 H         1 UNK         0.0600 
    209 H209       -2.5897  -24.6966  -51.2236 H         1 UNK         0.0600 
    210 H210       -3.9650  -26.3225  -49.4178 H         1 UNK         0.3000 
    211 H211       -5.9552  -26.9668  -48.8849 H         1 UNK         0.0600 
    212 H212       -5.5912  -29.4692  -50.6130 H         1 UNK         0.0600 
    213 H213       -6.8539  -29.2067  -49.4200 H         1 UNK         0.0600 
    214 H214       -5.1768  -29.3143  -48.9063 H         1 UNK         0.0600 
    215 H215       -5.5589  -27.5891  -52.3850 H         1 UNK         0.3000 
    216 H216       -8.2896  -26.7613  -53.0242 H         1 UNK         0.0600 
    217 H217       -7.5524  -27.2215  -55.3631 H         1 UNK         0.0600 
    218 H218       -7.1553  -28.5619  -54.2994 H         1 UNK         0.0600 
    219 H219       -5.8946  -27.4411  -54.8134 H         1 UNK         0.0600 
    220 H220       -5.1322  -25.2109  -52.9132 H         1 UNK         0.3000 
    221 H221       -5.9319  -22.9159  -54.5714 H         1 UNK         0.0600 
    222 H222       -3.3257  -23.4286  -53.0671 H         1 UNK         0.0600 
    223 H223       -3.6336  -23.9087  -54.7367 H         1 UNK         0.0600 
    224 H224       -3.6224  -22.2103  -54.2906 H         1 UNK         0.0600 
    225 H225       -7.6663  -22.1128  -53.3287 H         1 UNK         0.3000 
    226 H226       -7.4117  -21.0946  -50.6485 H         1 UNK         0.0600 
    227 H227       -9.6211  -21.5470  -51.7067 H         1 UNK         0.0600 
    228 H228       -9.4998  -19.8545  -51.2505 H         1 UNK         0.0600 
    229 H229       -9.3092  -20.3212  -52.9362 H         1 UNK         0.0600 
    230 H230       -6.8274  -19.0724  -49.9523 H         1 UNK         0.3000 
    231 H231       -5.6950  -17.1960  -49.7799 H         1 UNK         0.0600 
    232 H232       -5.8809  -15.4138  -51.4367 H         1 UNK         0.0600 
    233 H233       -7.4307  -16.2293  -51.3150 H         1 UNK         0.0600 
    234 H234       -6.3715  -16.5399  -52.6907 H         1 UNK         0.0600 
    235 H235       -4.3689  -19.6177  -50.5026 H         1 UNK         0.3000 
    236 H236       -2.3074  -20.3639  -50.5220 H         1 UNK         0.0600 
    237 H237       -0.3796  -18.9185  -50.2023 H         1 UNK         0.0600 
    238 H238       -1.7075  -18.1967  -49.3168 H         1 UNK         0.0600 
    239 H239       -1.2121  -17.5265  -50.8676 H         1 UNK         0.0600 
    240 H240       -0.0117  -19.7960  -51.9434 H         1 UNK         0.3000 
    241 H241        1.0434  -20.2505  -53.8070 H         1 UNK         0.0600 
    242 H242       -0.8075  -23.5139  -54.0506 H         1 UNK         0.3800 
    243 H243       -0.6476  -22.4109  -52.7081 H         1 UNK         0.3800 
    244 H244        0.4333  -19.2911  -55.9544 H         1 UNK         0.0800 
    245 H245       -1.2200  -19.0758  -55.4580 H         1 UNK         0.0800 
    246 H246        2.4546  -18.2583  -54.6111 H         1 UNK         0.0800 
    247 H247        2.4375  -16.5427  -54.2991 H         1 UNK         0.0800 
@<TRIPOS>BOND
     1    1    2 1    
     2    1  127 1    
     3    1  128 1    
     4    1  129 1    
     5    2    3 2    
     6    2    4 am   BACKBONE|DICT|INTERRES
     7    4    5 1    
     8    4  130 1    
     9    5    6 1    
    10    5   65 1    
    11    5  131 1    
    12    6    7 1    
    13    6  132 1    
    14    6  133 1    
    15    7    8 1    
    16    8    9 1    
    17    8  134 1    
    18    8  135 1    
    19    9   10 ar   
    20    9   14 ar   
    21   10   11 ar   
    22   10  136 1    
    23   11   12 ar   
    24   11  126 1    
    25   12   13 ar   
    26   12  137 1    
    27   13   14 ar   
    28   13   15 1    
    29   14  138 1    
    30   15   16 1    
    31   15  139 1    
    32   15  140 1    
    33   16   17 1    
    34   17   18 1    
    35   17  141 1    
    36   17  142 1    
    37   18   19 1    
    38   18   67 1    
    39   18  143 1    
    40   19   20 am   BACKBONE|DICT|INTERRES
    41   19  144 1    
    42   20   21 2    
    43   20   22 1    
    44   22   23 1    
    45   22   24 1    
    46   22  145 1    
    47   23  146 1    
    48   23  147 1    
    49   23  148 1    
    50   24   25 am   BACKBONE|DICT|INTERRES
    51   24  149 1    
    52   25   26 2    
    53   25   27 1    
    54   27   28 1    
    55   27   29 1    
    56   27  150 1    
    57   28  151 1    
    58   28  152 1    
    59   28  153 1    
    60   29   30 am   BACKBONE|DICT|INTERRES
    61   29  154 1    
    62   30   31 2    
    63   30   32 1    
    64   32   33 1    
    65   32   34 1    
    66   32  155 1    
    67   33  156 1    
    68   33  157 1    
    69   33  158 1    
    70   34   35 am   BACKBONE|DICT|INTERRES
    71   34  159 1    
    72   35   36 2    
    73   35   37 1    
    74   37   38 1    
    75   37   39 1    
    76   37  160 1    
    77   38  161 1    
    78   38  162 1    
    79   38  163 1    
    80   39   40 am   BACKBONE|DICT|INTERRES
    81   39  164 1    
    82   40   41 2    
    83   40   42 1    
    84   42   43 1    
    85   42   44 1    
    86   42  165 1    
    87   43  166 1    
    88   43  167 1    
    89   43  168 1    
    90   44   45 am   BACKBONE|DICT|INTERRES
    91   44  169 1    
    92   45   46 2    
    93   45   47 1    
    94   47   48 1    
    95   47   49 1    
    96   47  170 1    
    97   48  171 1    
    98   48  172 1    
    99   48  173 1    
   100   49   50 am   BACKBONE|DICT|INTERRES
   101   49  174 1    
   102   50   51 2    
   103   50   52 1    
   104   52   53 1    
   105   52   54 1    
   106   52  175 1    
   107   53  176 1    
   108   53  177 1    
   109   53  178 1    
   110   54   55 am   BACKBONE|DICT|INTERRES
   111   54  179 1    
   112   55   56 2    
   113   55   57 1    
   114   57   58 1    
   115   57   59 1    
   116   57  180 1    
   117   58  181 1    
   118   58  182 1    
   119   58  183 1    
   120   59   60 am   BACKBONE|DICT|INTERRES
   121   59  184 1    
   122   60   61 2    
   123   60   62 1    
   124   62   63 1    
   125   62   64 1    
   126   62  185 1    
   127   63  186 1    
   128   63  187 1    
   129   63  188 1    
   130   64   65 am   BACKBONE|DICT|INTERRES
   131   64  189 1    
   132   65   66 2    
   133   67   68 2    
   134   67   69 am   BACKBONE|DICT|INTERRES
   135   69   70 1    
   136   69  190 1    
   137   70   71 1    
   138   70   72 1    
   139   70  191 1    
   140   71  192 1    
   141   71  193 1    
   142   71  194 1    
   143   72   73 2    
   144   72   74 am   BACKBONE|DICT|INTERRES
   145   74   75 1    
   146   74  195 1    
   147   75   76 1    
   148   75   77 1    
   149   75  196 1    
   150   76  197 1    
   151   76  198 1    
   152   76  199 1    
   153   77   78 2    
   154   77   79 am   BACKBONE|DICT|INTERRES
   155   79   80 1    
   156   79  200 1    
   157   80   81 1    
   158   80   82 1    
   159   80  201 1    
   160   81  202 1    
   161   81  203 1    
   162   81  204 1    
   163   82   83 2    
   164   82   84 am   BACKBONE|DICT|INTERRES
   165   84   85 1    
   166   84  205 1    
   167   85   86 1    
   168   85   87 1    
   169   85  206 1    
   170   86  207 1    
   171   86  208 1    
   172   86  209 1    
   173   87   88 2    
   174   87   89 am   BACKBONE|DICT|INTERRES
   175   89   90 1    
   176   89  210 1    
   177   90   91 1    
   178   90   92 1    
   179   90  211 1    
   180   91  212 1    
   181   91  213 1    
   182   91  214 1    
   183   92   93 2    
   184   92   94 am   BACKBONE|DICT|INTERRES
   185   94   95 1    
   186   94  215 1    
   187   95   96 1    
   188   95   97 1    
   189   95  216 1    
   190   96  217 1    
   191   96  218 1    
   192   96  219 1    
   193   97   98 2    
   194   97   99 am   BACKBONE|DICT|INTERRES
   195   99  100 1    
   196   99  220 1    
   197  100  101 1    
   198  100  102 1    
   199  100  221 1    
   200  101  222 1    
   201  101  223 1    
   202  101  224 1    
   203  102  103 2    
   204  102  104 am   BACKBONE|DICT|INTERRES
   205  104  105 1    
   206  104  225 1    
   207  105  106 1    
   208  105  107 1    
   209  105  226 1    
   210  106  227 1    
   211  106  228 1    
   212  106  229 1    
   213  107  108 2    
   214  107  109 am   BACKBONE|DICT|INTERRES
   215  109  110 1    
   216  109  230 1    
   217  110  111 1    
   218  110  112 1    
   219  110  231 1    
   220  111  232 1    
   221  111  233 1    
   222  111  234 1    
   223  112  113 2    
   224  112  114 am   BACKBONE|DICT|INTERRES
   225  114  115 1    
   226  114  235 1    
   227  115  116 1    
   228  115  117 1    
   229  115  236 1    
   230  116  237 1    
   231  116  238 1    
   232  116  239 1    
   233  117  118 2    
   234  117  119 am   BACKBONE|DICT|INTERRES
   235  119  120 1    
   236  119  240 1    
   237  120  121 1    
   238  120  124 1    
   239  120  241 1    
   240  121  122 am   BACKBONE|DICT|INTERRES
   241  121  123 2    
   242  122  242 1    
   243  122  243 1    
   244  124  125 1    
   245  124  244 1    
   246  124  245 1    
   247  125  126 1    
   248  126  246 1    
   249  126  247 1    
@<TRIPOS>SUBSTRUCTURE
     1 UNK         1 GROUP             0       ****    0 ROOT    
