@<TRIPOS>MOLECULE
3R540
247   249    1
SMALL
USER_CHARGES


@<TRIPOS>ATOM
      1 CA          0.4530  -11.1013  -51.8386 C.3       0 UNK        -0.1800 
      2 C           0.5745  -11.6786  -50.4354 C.2       0 UNK         0.5000 
      3 O           1.3911  -11.2000  -49.6485 O.2       0 UNK        -0.5000 
      4 N          -0.2317  -12.7051  -50.1287 N.am      1 UNK        -0.5000 
      5 CA         -0.3019  -13.4070  -48.8362 C.3       1 UNK         0.1400 
      6 C6         -0.8123  -12.5226  -47.6656 C.3       23 UNK        -0.0398 
      7 S7         -2.4668  -11.8316  -48.0115 S.3       23 UNK        -0.2404 
      8 C8         -3.5104  -12.6933  -46.7877 C.3       23 UNK        -0.0205 
      9 C9         -3.5303  -14.2127  -46.9357 C.ar      23 UNK        -0.0193 
     10 C10        -3.7362  -14.8188  -48.1810 C.ar      23 UNK        -0.1150 
     11 C11        -3.7883  -16.2118  -48.2959 C.ar      23 UNK        -0.0193 
     12 C12        -3.6506  -17.0011  -47.1503 C.ar      23 UNK        -0.1150 
     13 C13        -3.4736  -16.4085  -45.8971 C.ar      23 UNK        -0.0193 
     14 C14        -3.3992  -15.0168  -45.7988 C.ar      23 UNK        -0.1150 
     15 C15        -3.4208  -17.2692  -44.6451 C.3       23 UNK        -0.0205 
     16 S16        -1.7142  -17.6432  -44.1463 S.3       23 UNK        -0.2404 
     17 C17        -2.0100  -18.9117  -42.8683 C.3       23 UNK        -0.0398 
     18 CA         -1.7152  -20.3473  -43.3700 C.3       11 UNK         0.1400 
     19 N          -1.3525  -21.2501  -42.2692 N.am      11 UNK        -0.5000 
     20 C          -0.9553  -22.5250  -42.4108 C.2       10 UNK         0.5000 
     21 O          -0.9885  -23.1304  -43.4837 O.2       10 UNK        -0.5000 
     22 CA         -0.4312  -23.2316  -41.1487 C.3       10 UNK         0.1400 
     23 CB          0.4804  -24.4290  -41.4749 C.3       10 UNK        -0.1800 
     24 N           0.3008  -22.2846  -40.3109 N.am      10 UNK        -0.5000 
     25 C           0.2022  -22.1857  -38.9786 C.2       9 UNK         0.5000 
     26 O          -0.5365  -22.8982  -38.2977 O.2       9 UNK        -0.5000 
     27 CA          1.0719  -21.1214  -38.2739 C.3       9 UNK         0.1400 
     28 CB          2.2449  -21.7906  -37.5405 C.3       9 UNK        -0.1800 
     29 N           1.6086  -20.0992  -39.1747 N.am      9 UNK        -0.5000 
     30 C           0.8837  -19.1598  -39.7970 C.2       8 UNK         0.5000 
     31 O          -0.3275  -19.0147  -39.6325 O.2       8 UNK        -0.5000 
     32 CA          1.6283  -18.2648  -40.8100 C.3       8 UNK         0.1400 
     33 CB          2.0609  -16.9540  -40.1362 C.3       8 UNK        -0.1800 
     34 N           2.7932  -18.9057  -41.4402 N.am      8 UNK        -0.5000 
     35 C           2.7426  -20.0381  -42.1562 C.2       7 UNK         0.5000 
     36 O           1.6946  -20.6368  -42.3945 O.2       7 UNK        -0.5000 
     37 CA          4.0751  -20.6215  -42.6444 C.3       7 UNK         0.1400 
     38 CB          4.0048  -22.1613  -42.7561 C.3       7 UNK        -0.1800 
     39 N           4.4347  -20.0286  -43.9289 N.am      7 UNK        -0.5000 
     40 C           5.6479  -20.1219  -44.4907 C.2       6 UNK         0.5000 
     41 O           6.6072  -20.6833  -43.9587 O.2       6 UNK        -0.5000 
     42 CA          5.8339  -19.4734  -45.8737 C.3       6 UNK         0.1400 
     43 CB          5.0188  -20.2083  -46.9508 C.3       6 UNK        -0.1800 
     44 N           5.4857  -18.0557  -45.8724 N.am      6 UNK        -0.5000 
     45 C           6.1636  -17.0948  -45.2286 C.2       5 UNK         0.5000 
     46 O           7.2087  -17.2879  -44.6066 O.2       5 UNK        -0.5000 
     47 CA          5.5572  -15.6793  -45.2703 C.3       5 UNK         0.1400 
     48 CB          5.9920  -14.9253  -46.5366 C.3       5 UNK        -0.1800 
     49 N           4.0966  -15.7111  -45.1911 N.am      5 UNK        -0.5000 
     50 C           3.4155  -16.0492  -44.0873 C.2       4 UNK         0.5000 
     51 O           3.9481  -16.2756  -43.0013 O.2       4 UNK        -0.5000 
     52 CA          1.8906  -16.1888  -44.2281 C.3       4 UNK         0.1400 
     53 CB          1.1858  -14.8538  -43.9465 C.3       4 UNK        -0.1800 
     54 N           1.5009  -16.6814  -45.5477 N.am      4 UNK        -0.5000 
     55 C           1.6453  -17.9549  -45.9435 C.2       3 UNK         0.5000 
     56 O           2.1335  -18.8386  -45.2400 O.2       3 UNK        -0.5000 
     57 CA          1.2172  -18.2855  -47.3858 C.3       3 UNK         0.1400 
     58 CB         -0.2986  -18.5032  -47.4498 C.3       3 UNK        -0.1800 
     59 N           1.5648  -17.2397  -48.3455 N.am      3 UNK        -0.5000 
     60 C           2.7916  -16.7516  -48.5685 C.2       2 UNK         0.5000 
     61 O           3.8105  -17.2125  -48.0579 O.2       2 UNK        -0.5000 
     62 CA          2.8891  -15.4992  -49.4625 C.3       2 UNK         0.1400 
     63 CB          3.3310  -15.8842  -50.8817 C.3       2 UNK        -0.1800 
     64 N           1.6461  -14.7221  -49.5408 N.am      2 UNK        -0.5000 
     65 C           1.0118  -14.1500  -48.5044 C.2       1 UNK         0.5000 
     66 O           1.4091  -14.2319  -47.3406 O.2       1 UNK        -0.5000 
     67 C          -2.8634  -20.8852  -44.2512 C.2       11 UNK         0.5000 
     68 O          -2.8421  -20.6823  -45.4625 O.2       11 UNK        -0.5000 
     69 N          -3.8200  -21.5979  -43.6391 N.am      12 UNK        -0.5000 
     70 CA         -4.9427  -22.2395  -44.3264 C.3       12 UNK         0.1400 
     71 CB         -5.9603  -22.7200  -43.2811 C.3       12 UNK        -0.1800 
     72 C          -4.5217  -23.4051  -45.2448 C.2       12 UNK         0.5000 
     73 O          -5.1914  -23.6505  -46.2480 O.2       12 UNK        -0.5000 
     74 N          -3.4253  -24.0939  -44.8985 N.am      13 UNK        -0.5000 
     75 CA         -2.8360  -25.1639  -45.7038 C.3       13 UNK         0.1400 
     76 CB         -2.1242  -26.1677  -44.7834 C.3       13 UNK        -0.1800 
     77 C          -1.8621  -24.5925  -46.7470 C.2       13 UNK         0.5000 
     78 O          -1.8606  -25.0424  -47.8933 O.2       13 UNK        -0.5000 
     79 N          -1.0747  -23.5870  -46.3393 N.am      14 UNK        -0.5000 
     80 CA         -0.1074  -22.8764  -47.1788 C.3       14 UNK         0.1400 
     81 CB          0.8366  -22.0697  -46.2718 C.3       14 UNK        -0.1800 
     82 C          -0.7513  -21.9699  -48.2501 C.2       14 UNK         0.5000 
     83 O          -0.0438  -21.5276  -49.1550 O.2       14 UNK        -0.5000 
     84 N          -2.0624  -21.7073  -48.1268 N.am      15 UNK        -0.5000 
     85 CA         -2.8851  -20.8588  -48.9930 C.3       15 UNK         0.1400 
     86 CB         -4.3472  -20.9161  -48.5214 C.3       15 UNK        -0.1800 
     87 C          -2.8088  -21.1997  -50.4904 C.2       15 UNK         0.5000 
     88 O          -2.8180  -20.2805  -51.3083 O.2       15 UNK        -0.5000 
     89 N          -2.7442  -22.5047  -50.8075 N.am      16 UNK        -0.5000 
     90 CA         -2.6189  -23.0856  -52.1521 C.3       16 UNK         0.1400 
     91 CB         -1.1980  -22.8444  -52.7014 C.3       16 UNK        -0.1800 
     92 C          -3.7169  -22.6041  -53.1249 C.2       16 UNK         0.5000 
     93 O          -3.4310  -22.3112  -54.2874 O.2       16 UNK        -0.5000 
     94 N          -4.9525  -22.4999  -52.6131 N.am      17 UNK        -0.5000 
     95 CA         -6.0968  -21.8163  -53.2251 C.3       17 UNK         0.1400 
     96 CB         -7.3220  -21.9835  -52.3153 C.3       17 UNK        -0.1800 
     97 C          -6.4373  -22.2305  -54.6680 C.2       17 UNK         0.5000 
     98 O          -6.8688  -21.3828  -55.4485 O.2       17 UNK        -0.5000 
     99 N          -6.2001  -23.5036  -55.0075 N.am      18 UNK        -0.5000 
    100 CA        -6.4009  -24.0611  -56.3464 C.3       18 UNK         0.1400 
    101 CB        -6.2677  -25.5900  -56.2707 C.3       18 UNK        -0.1800 
    102 C         -5.4453  -23.4915  -57.4165 C.2       18 UNK         0.5000 
    103 O         -5.7919  -23.5182  -58.5983 O.2       18 UNK        -0.5000 
    104 N         -4.2721  -22.9998  -56.9957 N.am      19 UNK        -0.5000 
    105 CA        -3.2439  -22.4292  -57.8660 C.3       19 UNK         0.1400 
    106 CB        -1.9088  -23.1409  -57.5930 C.3       19 UNK        -0.1800 
    107 C         -3.0960  -20.9154  -57.6452 C.2       19 UNK         0.5000 
    108 O         -2.9656  -20.1698  -58.6165 O.2       19 UNK        -0.5000 
    109 N         -3.1095  -20.4865  -56.3766 N.am      20 UNK        -0.5000 
    110 CA        -2.8769  -19.1028  -55.9610 C.3       20 UNK         0.1400 
    111 CB        -2.4015  -19.1077  -54.5004 C.3       20 UNK        -0.1800 
    112 C         -4.1102  -18.1933  -56.1061 C.2       20 UNK         0.5000 
    113 O         -3.9548  -16.9726  -56.0636 O.2       20 UNK        -0.5000 
    114 N         -5.3049  -18.7920  -56.2356 N.am      21 UNK        -0.5000 
    115 CA        -6.6205  -18.1382  -56.2731 C.3       21 UNK         0.1400 
    116 CB        -6.7603  -17.2310  -57.5141 C.3       21 UNK        -0.1800 
    117 C         -6.9802  -17.4214  -54.9512 C.2       21 UNK         0.5000 
    118 O         -7.7255  -16.4400  -54.9633 O.2       21 UNK        -0.5000 
    119 N         -6.4429  -17.9310  -53.8338 N.am      22 UNK        -0.5000 
    120 CA        -6.7348  -17.4915  -52.4620 C.3       22 UNK         0.1400 
    121 C         -8.2274  -17.7211  -52.0814 C.2       22 UNK         0.5000 
    122 N         -8.8804  -16.7462  -51.4637 N.am      22 UNK        -0.7600 
    123 O         -8.7875  -18.7884  -52.3194 O.2       22 UNK        -0.5000 
    124 C124       -5.7733  -18.1801  -51.4568 C.3       23 UNK        -0.0398 
    125 S125       -5.7619  -17.3802  -49.8152 S.3       23 UNK        -0.2404 
    126 C126       -4.0252  -16.8673  -49.6481 C.3       23 UNK        -0.0205 
    127 H127       -0.3059  -11.6183  -52.4265 H         1 UNK         0.0600 
    128 H128        1.4050  -11.1856  -52.3628 H         1 UNK         0.0600 
    129 H129        0.1826  -10.0466  -51.7877 H         1 UNK         0.0600 
    130 H130       -0.8845  -13.0314  -50.8275 H         1 UNK         0.3000 
    131 H131       -1.0357  -14.2016  -48.9759 H         1 UNK         0.0600 
    132 H132       -0.8582  -13.0972  -46.7388 H         1 UNK         0.0800 
    133 H133       -0.1238  -11.6988  -47.4733 H         1 UNK         0.0800 
    134 H134       -3.1755  -12.4077  -45.7891 H         1 UNK         0.0800 
    135 H135       -4.5326  -12.3255  -46.8835 H         1 UNK         0.0800 
    136 H136       -3.8643  -14.2039  -49.0607 H         1 UNK         0.1150 
    137 H137       -3.7093  -18.0778  -47.2302 H         1 UNK         0.1150 
    138 H138       -3.2654  -14.5606  -44.8279 H         1 UNK         0.1150 
    139 H139       -3.9322  -16.7630  -43.8250 H         1 UNK         0.0800 
    140 H140       -3.9665  -18.1975  -44.8183 H         1 UNK         0.0800 
    141 H141       -1.3438  -18.6645  -42.0438 H         1 UNK         0.0800 
    142 H142       -3.0194  -18.8248  -42.4619 H         1 UNK         0.0800 
    143 H143       -0.8269  -20.2981  -44.0022 H         1 UNK         0.0600 
    144 H144       -1.2887  -20.8345  -41.3506 H         1 UNK         0.3000 
    145 H145       -1.3117  -23.6019  -40.6202 H         1 UNK         0.0600 
    146 H146        0.8392  -24.9109  -40.5654 H         1 UNK         0.0600 
    147 H147       -0.0528  -25.1851  -42.0521 H         1 UNK         0.0600 
    148 H148        1.3498  -24.1205  -42.0570 H         1 UNK         0.0600 
    149 H149        0.9026  -21.6425  -40.8180 H         1 UNK         0.3000 
    150 H150        0.4421  -20.6249  -37.5328 H         1 UNK         0.0600 
    151 H151        1.8881  -22.5362  -36.8287 H         1 UNK         0.0600 
    152 H152        2.8274  -21.0607  -36.9778 H         1 UNK         0.0600 
    153 H153        2.9175  -22.2957  -38.2350 H         1 UNK         0.0600 
    154 H154        2.5982  -20.1423  -39.3671 H         1 UNK         0.3000 
    155 H155        0.9163  -18.0244  -41.6002 H         1 UNK         0.0600 
    156 H156        2.4506  -16.2419  -40.8620 H         1 UNK         0.0600 
    157 H157        2.8316  -17.1238  -39.3834 H         1 UNK         0.0600 
    158 H158        1.2177  -16.4717  -39.6397 H         1 UNK         0.0600 
    159 H159        3.6813  -18.4380  -41.3228 H         1 UNK         0.3000 
    160 H160        4.8400  -20.3640  -41.9089 H         1 UNK         0.0600 
    161 H161        3.3231  -22.4749  -43.5480 H         1 UNK         0.0600 
    162 H162        3.6515  -22.6055  -41.8245 H         1 UNK         0.0600 
    163 H163        4.9815  -22.5963  -42.9658 H         1 UNK         0.0600 
    164 H164        3.6803  -19.5510  -44.4207 H         1 UNK         0.3000 
    165 H165        6.8893  -19.5571  -46.1415 H         1 UNK         0.0600 
    166 H166        3.9465  -20.1386  -46.7698 H         1 UNK         0.0600 
    167 H167        5.2154  -19.7968  -47.9410 H         1 UNK         0.0600 
    168 H168        5.2776  -21.2674  -46.9807 H         1 UNK         0.0600 
    169 H169        4.6814  -17.7867  -46.4308 H         1 UNK         0.3000 
    170 H170        5.9337  -15.1287  -44.4054 H         1 UNK         0.0600 
    171 H171        7.0779  -14.8324  -46.5773 H         1 UNK         0.0600 
    172 H172        5.6759  -15.4369  -47.4453 H         1 UNK         0.0600 
    173 H173        5.5787  -13.9168  -46.5576 H         1 UNK         0.0600 
    174 H174        3.5840  -15.5560  -46.0469 H         1 UNK         0.3000 
    175 H175        1.5521  -16.9112  -43.4852 H         1 UNK         0.0600 
    176 H176        1.5000  -14.0755  -44.6425 H         1 UNK         0.0600 
    177 H177        0.1030  -14.9558  -44.0234 H         1 UNK         0.0600 
    178 H178        1.4092  -14.5025  -42.9385 H         1 UNK         0.0600 
    179 H179        1.1549  -15.9912  -46.2036 H         1 UNK         0.3000 
    180 H180        1.7195  -19.2055  -47.6902 H         1 UNK         0.0600 
    181 H181       -0.8450  -17.5976  -47.1850 H         1 UNK         0.0600 
    182 H182       -0.6192  -19.2885  -46.7647 H         1 UNK         0.0600 
    183 H183       -0.6000  -18.7936  -48.4546 H         1 UNK         0.0600 
    184 H184        0.7943  -16.7987  -48.8236 H         1 UNK         0.3000 
    185 H185        3.6541  -14.8522  -49.0286 H         1 UNK         0.0600 
    186 H186        3.4925  -15.0000  -51.4987 H         1 UNK         0.0600 
    187 H187        4.2696  -16.4399  -50.8614 H         1 UNK         0.0600 
    188 H188        2.5890  -16.5109  -51.3780 H         1 UNK         0.0600 
    189 H189        1.2547  -14.5957  -50.4630 H         1 UNK         0.3000 
    190 H190       -3.7586  -21.7327  -42.6407 H         1 UNK         0.3000 
    191 H191       -5.4268  -21.4878  -44.9537 H         1 UNK         0.0600 
    192 H192       -6.8250  -23.1808  -43.7608 H         1 UNK         0.0600 
    193 H193       -6.3293  -21.8898  -42.6784 H         1 UNK         0.0600 
    194 H194       -5.5263  -23.4593  -42.6067 H         1 UNK         0.0600 
    195 H195       -2.8872  -23.7878  -44.0973 H         1 UNK         0.3000 
    196 H196       -3.6261  -25.6993  -46.2350 H         1 UNK         0.0600 
    197 H197       -1.7080  -26.9951  -45.3594 H         1 UNK         0.0600 
    198 H198       -1.3028  -25.7062  -44.2347 H         1 UNK         0.0600 
    199 H199       -2.8154  -26.5932  -44.0558 H         1 UNK         0.0600 
    200 H200       -1.1114  -23.3105  -45.3615 H         1 UNK         0.3000 
    201 H201        0.4892  -23.6229  -47.7069 H         1 UNK         0.0600 
    202 H202        1.3257  -22.7096  -45.5369 H         1 UNK         0.0600 
    203 H203        0.3033  -21.2907  -45.7291 H         1 UNK         0.0600 
    204 H204        1.6219  -21.5848  -46.8524 H         1 UNK         0.0600 
    205 H205       -2.5160  -22.0406  -47.2871 H         1 UNK         0.3000 
    206 H206       -2.5378  -19.8338  -48.8735 H         1 UNK         0.0600 
    207 H207       -4.7313  -21.9368  -48.5234 H         1 UNK         0.0600 
    208 H208       -4.4571  -20.5199  -47.5128 H         1 UNK         0.0600 
    209 H209       -4.9931  -20.3217  -49.1683 H         1 UNK         0.0600 
    210 H210       -2.7407  -23.1663  -50.0432 H         1 UNK         0.3000 
    211 H211       -2.7558  -24.1621  -52.0429 H         1 UNK         0.0600 
    212 H212       -1.0074  -21.7843  -52.8722 H         1 UNK         0.0600 
    213 H213       -1.0489  -23.3618  -53.6499 H         1 UNK         0.0600 
    214 H214       -0.4409  -23.2115  -52.0084 H         1 UNK         0.0600 
    215 H215       -5.0774  -22.7867  -51.6534 H         1 UNK         0.3000 
    216 H216       -5.8426  -20.7564  -53.2579 H         1 UNK         0.0600 
    217 H217       -8.1930  -21.4774  -52.7339 H         1 UNK         0.0600 
    218 H218       -7.1450  -21.5554  -51.3285 H         1 UNK         0.0600 
    219 H219       -7.5848  -23.0339  -52.1848 H         1 UNK         0.0600 
    220 H220       -5.8283  -24.1256  -54.3049 H         1 UNK         0.3000 
    221 H221       -7.4195  -23.8225  -56.6596 H         1 UNK         0.0600 
    222 H222       -5.2726  -25.8906  -55.9404 H         1 UNK         0.0600 
    223 H223       -6.9953  -26.0163  -55.5799 H         1 UNK         0.0600 
    224 H224       -6.4417  -26.0467  -57.2460 H         1 UNK         0.0600 
    225 H225       -4.0801  -22.9795  -55.9991 H         1 UNK         0.3000 
    226 H226       -3.4965  -22.5843  -58.9169 H         1 UNK         0.0600 
    227 H227       -1.9814  -24.2065  -57.8105 H         1 UNK         0.0600 
    228 H228       -1.1132  -22.7345  -58.2187 H         1 UNK         0.0600 
    229 H229       -1.5981  -23.0331  -56.5527 H         1 UNK         0.0600 
    230 H230       -3.2055  -21.1682  -55.6260 H         1 UNK         0.3000 
    231 H231       -2.0803  -18.6802  -56.5771 H         1 UNK         0.0600 
    232 H232       -2.1531  -18.1010  -54.1622 H         1 UNK         0.0600 
    233 H233       -1.5098  -19.7220  -54.3746 H         1 UNK         0.0600 
    234 H234       -3.1712  -19.4962  -53.8333 H         1 UNK         0.0600 
    235 H235       -5.3284  -19.8034  -56.2560 H         1 UNK         0.3000 
    236 H236       -7.3523  -18.9393  -56.3816 H         1 UNK         0.0600 
    237 H237       -6.4928  -17.7660  -58.4254 H         1 UNK         0.0600 
    238 H238       -7.7885  -16.8872  -57.6316 H         1 UNK         0.0600 
    239 H239       -6.1283  -16.3454  -57.4460 H         1 UNK         0.0600 
    240 H240       -5.8496  -18.7387  -53.9313 H         1 UNK         0.3000 
    241 H241       -6.5357  -16.4182  -52.4359 H         1 UNK         0.0600 
    242 H242       -8.4326  -15.8706  -51.2412 H         1 UNK         0.3800 
    243 H243       -9.8439  -16.8893  -51.2044 H         1 UNK         0.3800 
    244 H244       -6.0326  -19.2316  -51.3263 H         1 UNK         0.0800 
    245 H245       -4.7559  -18.1731  -51.8513 H         1 UNK         0.0800 
    246 H246       -3.7692  -16.1814  -50.4572 H         1 UNK         0.0800 
    247 H247       -3.3736  -17.7351  -49.7571 H         1 UNK         0.0800 
@<TRIPOS>BOND
     1    1    2 1    
     2    1  127 1    
     3    1  128 1    
     4    1  129 1    
     5    2    3 2    
     6    2    4 am   BACKBONE|DICT|INTERRES
     7    4    5 1    
     8    4  130 1    
     9    5    6 1    
    10    5   65 1    
    11    5  131 1    
    12    6    7 1    
    13    6  132 1    
    14    6  133 1    
    15    7    8 1    
    16    8    9 1    
    17    8  134 1    
    18    8  135 1    
    19    9   10 ar   
    20    9   14 ar   
    21   10   11 ar   
    22   10  136 1    
    23   11   12 ar   
    24   11  126 1    
    25   12   13 ar   
    26   12  137 1    
    27   13   14 ar   
    28   13   15 1    
    29   14  138 1    
    30   15   16 1    
    31   15  139 1    
    32   15  140 1    
    33   16   17 1    
    34   17   18 1    
    35   17  141 1    
    36   17  142 1    
    37   18   19 1    
    38   18   67 1    
    39   18  143 1    
    40   19   20 am   BACKBONE|DICT|INTERRES
    41   19  144 1    
    42   20   21 2    
    43   20   22 1    
    44   22   23 1    
    45   22   24 1    
    46   22  145 1    
    47   23  146 1    
    48   23  147 1    
    49   23  148 1    
    50   24   25 am   BACKBONE|DICT|INTERRES
    51   24  149 1    
    52   25   26 2    
    53   25   27 1    
    54   27   28 1    
    55   27   29 1    
    56   27  150 1    
    57   28  151 1    
    58   28  152 1    
    59   28  153 1    
    60   29   30 am   BACKBONE|DICT|INTERRES
    61   29  154 1    
    62   30   31 2    
    63   30   32 1    
    64   32   33 1    
    65   32   34 1    
    66   32  155 1    
    67   33  156 1    
    68   33  157 1    
    69   33  158 1    
    70   34   35 am   BACKBONE|DICT|INTERRES
    71   34  159 1    
    72   35   36 2    
    73   35   37 1    
    74   37   38 1    
    75   37   39 1    
    76   37  160 1    
    77   38  161 1    
    78   38  162 1    
    79   38  163 1    
    80   39   40 am   BACKBONE|DICT|INTERRES
    81   39  164 1    
    82   40   41 2    
    83   40   42 1    
    84   42   43 1    
    85   42   44 1    
    86   42  165 1    
    87   43  166 1    
    88   43  167 1    
    89   43  168 1    
    90   44   45 am   BACKBONE|DICT|INTERRES
    91   44  169 1    
    92   45   46 2    
    93   45   47 1    
    94   47   48 1    
    95   47   49 1    
    96   47  170 1    
    97   48  171 1    
    98   48  172 1    
    99   48  173 1    
   100   49   50 am   BACKBONE|DICT|INTERRES
   101   49  174 1    
   102   50   51 2    
   103   50   52 1    
   104   52   53 1    
   105   52   54 1    
   106   52  175 1    
   107   53  176 1    
   108   53  177 1    
   109   53  178 1    
   110   54   55 am   BACKBONE|DICT|INTERRES
   111   54  179 1    
   112   55   56 2    
   113   55   57 1    
   114   57   58 1    
   115   57   59 1    
   116   57  180 1    
   117   58  181 1    
   118   58  182 1    
   119   58  183 1    
   120   59   60 am   BACKBONE|DICT|INTERRES
   121   59  184 1    
   122   60   61 2    
   123   60   62 1    
   124   62   63 1    
   125   62   64 1    
   126   62  185 1    
   127   63  186 1    
   128   63  187 1    
   129   63  188 1    
   130   64   65 am   BACKBONE|DICT|INTERRES
   131   64  189 1    
   132   65   66 2    
   133   67   68 2    
   134   67   69 am   BACKBONE|DICT|INTERRES
   135   69   70 1    
   136   69  190 1    
   137   70   71 1    
   138   70   72 1    
   139   70  191 1    
   140   71  192 1    
   141   71  193 1    
   142   71  194 1    
   143   72   73 2    
   144   72   74 am   BACKBONE|DICT|INTERRES
   145   74   75 1    
   146   74  195 1    
   147   75   76 1    
   148   75   77 1    
   149   75  196 1    
   150   76  197 1    
   151   76  198 1    
   152   76  199 1    
   153   77   78 2    
   154   77   79 am   BACKBONE|DICT|INTERRES
   155   79   80 1    
   156   79  200 1    
   157   80   81 1    
   158   80   82 1    
   159   80  201 1    
   160   81  202 1    
   161   81  203 1    
   162   81  204 1    
   163   82   83 2    
   164   82   84 am   BACKBONE|DICT|INTERRES
   165   84   85 1    
   166   84  205 1    
   167   85   86 1    
   168   85   87 1    
   169   85  206 1    
   170   86  207 1    
   171   86  208 1    
   172   86  209 1    
   173   87   88 2    
   174   87   89 am   BACKBONE|DICT|INTERRES
   175   89   90 1    
   176   89  210 1    
   177   90   91 1    
   178   90   92 1    
   179   90  211 1    
   180   91  212 1    
   181   91  213 1    
   182   91  214 1    
   183   92   93 2    
   184   92   94 am   BACKBONE|DICT|INTERRES
   185   94   95 1    
   186   94  215 1    
   187   95   96 1    
   188   95   97 1    
   189   95  216 1    
   190   96  217 1    
   191   96  218 1    
   192   96  219 1    
   193   97   98 2    
   194   97   99 am   BACKBONE|DICT|INTERRES
   195   99  100 1    
   196   99  220 1    
   197  100  101 1    
   198  100  102 1    
   199  100  221 1    
   200  101  222 1    
   201  101  223 1    
   202  101  224 1    
   203  102  103 2    
   204  102  104 am   BACKBONE|DICT|INTERRES
   205  104  105 1    
   206  104  225 1    
   207  105  106 1    
   208  105  107 1    
   209  105  226 1    
   210  106  227 1    
   211  106  228 1    
   212  106  229 1    
   213  107  108 2    
   214  107  109 am   BACKBONE|DICT|INTERRES
   215  109  110 1    
   216  109  230 1    
   217  110  111 1    
   218  110  112 1    
   219  110  231 1    
   220  111  232 1    
   221  111  233 1    
   222  111  234 1    
   223  112  113 2    
   224  112  114 am   BACKBONE|DICT|INTERRES
   225  114  115 1    
   226  114  235 1    
   227  115  116 1    
   228  115  117 1    
   229  115  236 1    
   230  116  237 1    
   231  116  238 1    
   232  116  239 1    
   233  117  118 2    
   234  117  119 am   BACKBONE|DICT|INTERRES
   235  119  120 1    
   236  119  240 1    
   237  120  121 1    
   238  120  124 1    
   239  120  241 1    
   240  121  122 am   BACKBONE|DICT|INTERRES
   241  121  123 2    
   242  122  242 1    
   243  122  243 1    
   244  124  125 1    
   245  124  244 1    
   246  124  245 1    
   247  125  126 1    
   248  126  246 1    
   249  126  247 1    
@<TRIPOS>SUBSTRUCTURE
     1 UNK         1 GROUP             0       ****    0 ROOT    
