@<TRIPOS>MOLECULE
3R540
247   249    1
SMALL
USER_CHARGES


@<TRIPOS>ATOM
      1 CA          0.6647  -10.6837  -48.8639 C.3       0 UNK        -0.1800 
      2 C           0.0203  -11.8468  -48.1239 C.2       0 UNK         0.5000 
      3 O          -0.3027  -11.7201  -46.9434 O.2       0 UNK        -0.5000 
      4 N          -0.1623  -12.9845  -48.8044 N.am      1 UNK        -0.5000 
      5 CA         -0.8278  -14.1778  -48.2739 C.3       1 UNK         0.1400 
      6 C6         -0.6594  -15.3685  -49.2516 C.3       23 UNK        -0.0398 
      7 S7         -1.1175  -16.9640  -48.5060 S.3       23 UNK        -0.2404 
      8 C8         -1.3190  -18.0186  -49.9733 C.3       23 UNK        -0.0205 
      9 C9          0.0163  -18.4146  -50.5780 C.ar      23 UNK        -0.0193 
     10 C10         0.3487  -18.0332  -51.8793 C.ar      23 UNK        -0.1150 
     11 C11         1.5575  -18.4436  -52.4478 C.ar      23 UNK        -0.0193 
     12 C12         2.4409  -19.2288  -51.7005 C.ar      23 UNK        -0.1150 
     13 C13         2.1223  -19.6128  -50.3935 C.ar      23 UNK        -0.0193 
     14 C14         0.9066  -19.1988  -49.8410 C.ar      23 UNK        -0.1150 
     15 C15         3.1033  -20.4542  -49.5848 C.3       23 UNK        -0.0205 
     16 S16         2.4000  -22.0497  -49.0485 S.3       23 UNK        -0.2404 
     17 C17         1.9216  -21.6509  -47.3329 C.3       23 UNK        -0.0398 
     18 CA          0.8422  -22.5778  -46.7275 C.3       11 UNK         0.1400 
     19 N           0.6911  -22.3253  -45.2925 N.am      11 UNK        -0.5000 
     20 C          -0.0219  -23.0765  -44.4431 C.2       10 UNK         0.5000 
     21 O          -0.6030  -24.1109  -44.7666 O.2       10 UNK        -0.5000 
     22 CA         -0.1474  -22.5569  -42.9995 C.3       10 UNK         0.1400 
     23 CB          1.1150  -22.8817  -42.1876 C.3       10 UNK        -0.1800 
     24 N          -0.4127  -21.1183  -42.9492 N.am      10 UNK        -0.5000 
     25 C          -1.5233  -20.5391  -43.4256 C.2       9 UNK         0.5000 
     26 O          -2.4718  -21.1722  -43.8893 O.2       9 UNK        -0.5000 
     27 CA         -1.5641  -18.9985  -43.4347 C.3       9 UNK         0.1400 
     28 CB         -1.9944  -18.4434  -42.0695 C.3       9 UNK        -0.1800 
     29 N          -0.2931  -18.3908  -43.8352 N.am      9 UNK        -0.5000 
     30 C           0.2697  -18.5455  -45.0423 C.2       8 UNK         0.5000 
     31 O          -0.2420  -19.1853  -45.9576 O.2       8 UNK        -0.5000 
     32 CA          1.6748  -17.9536  -45.2349 C.3       8 UNK         0.1400 
     33 CB          1.6137  -16.4479  -45.5409 C.3       8 UNK        -0.1800 
     34 N           2.5166  -18.2049  -44.0645 N.am      8 UNK        -0.5000 
     35 C           2.9794  -19.4183  -43.7251 C.2       7 UNK         0.5000 
     36 O           2.7820  -20.4321  -44.3943 O.2       7 UNK        -0.5000 
     37 CA          3.7543  -19.5309  -42.3983 C.3       7 UNK         0.1400 
     38 CB          5.2397  -19.2056  -42.6133 C.3       7 UNK        -0.1800 
     39 N           3.2171  -18.6614  -41.3521 N.am      7 UNK        -0.5000 
     40 C           1.9974  -18.7810  -40.8075 C.2       6 UNK         0.5000 
     41 O           1.2211  -19.6967  -41.0731 O.2       6 UNK        -0.5000 
     42 CA          1.5487  -17.6560  -39.8526 C.3       6 UNK         0.1400 
     43 CB          1.8719  -18.0233  -38.3971 C.3       6 UNK        -0.1800 
     44 N           2.1535  -16.3586  -40.1730 N.am      6 UNK        -0.5000 
     45 C           1.9757  -15.7067  -41.3295 C.2       5 UNK         0.5000 
     46 O           1.2333  -16.1036  -42.2303 O.2       5 UNK        -0.5000 
     47 CA          2.8557  -14.4728  -41.5516 C.3       5 UNK         0.1400 
     48 CB          4.2798  -14.9209  -41.9460 C.3       5 UNK        -0.1800 
     49 N           2.2778  -13.6392  -42.6023 N.am      5 UNK        -0.5000 
     50 C           2.6778  -12.3965  -42.8971 C.2       4 UNK         0.5000 
     51 O           3.5617  -11.7992  -42.2802 O.2       4 UNK        -0.5000 
     52 CA          1.9914  -11.6924  -44.0825 C.3       4 UNK         0.1400 
     53 CB          2.6738  -12.0956  -45.3994 C.3       4 UNK        -0.1800 
     54 N           0.5479  -11.9156  -44.1961 N.am      4 UNK        -0.5000 
     55 C          -0.3647  -11.6440  -43.2525 C.2       3 UNK         0.5000 
     56 O          -0.0866  -11.2304  -42.1261 O.2       3 UNK        -0.5000 
     57 CA         -1.8472  -11.8352  -43.6312 C.3       3 UNK         0.1400 
     58 CB         -2.4616  -10.4962  -44.0680 C.3       3 UNK        -0.1800 
     59 N          -2.0916  -12.8268  -44.6817 N.am      3 UNK        -0.5000 
     60 C          -1.8893  -14.1451  -44.5608 C.2       2 UNK         0.5000 
     61 O          -1.3913  -14.6617  -43.5620 O.2       2 UNK        -0.5000 
     62 CA         -2.3418  -15.0469  -45.7275 C.3       2 UNK         0.1400 
     63 CB         -3.4110  -16.0409  -45.2452 C.3       2 UNK        -0.1800 
     64 N          -2.9116  -14.2937  -46.8525 N.am      2 UNK        -0.5000 
     65 C          -2.3233  -13.8769  -47.9842 C.2       1 UNK         0.5000 
     66 O          -2.9661  -13.2484  -48.8266 O.2       1 UNK        -0.5000 
     67 C          -0.5139  -22.5049  -47.4672 C.2       11 UNK         0.5000 
     68 O          -0.8251  -23.4091  -48.2418 O.2       11 UNK        -0.5000 
     69 N          -1.3250  -21.4803  -47.1636 N.am      12 UNK        -0.5000 
     70 CA         -2.6922  -21.3038  -47.6605 C.3       12 UNK         0.1400 
     71 CB         -3.2706  -19.9916  -47.1067 C.3       12 UNK        -0.1800 
     72 C          -3.6174  -22.4812  -47.3036 C.2       12 UNK         0.5000 
     73 O          -4.3469  -22.9681  -48.1694 O.2       12 UNK        -0.5000 
     74 N          -3.5485  -22.9279  -46.0414 N.am      13 UNK        -0.5000 
     75 CA         -4.2889  -24.0767  -45.5233 C.3       13 UNK         0.1400 
     76 CB         -4.1574  -24.1274  -43.9937 C.3       13 UNK        -0.1800 
     77 C          -3.8437  -25.4055  -46.1591 C.2       13 UNK         0.5000 
     78 O          -4.6981  -26.2099  -46.5307 O.2       13 UNK        -0.5000 
     79 N          -2.5247  -25.5999  -46.3029 N.am      14 UNK        -0.5000 
     80 CA         -1.9161  -26.7720  -46.9369 C.3       14 UNK         0.1400 
     81 CB         -0.3966  -26.7489  -46.7125 C.3       14 UNK        -0.1800 
     82 C          -2.2412  -26.8808  -48.4378 C.2       14 UNK         0.5000 
     83 O          -2.4793  -27.9850  -48.9287 O.2       14 UNK        -0.5000 
     84 N          -2.2737  -25.7346  -49.1316 N.am      15 UNK        -0.5000 
     85 CA         -2.6673  -25.6211  -50.5365 C.3       15 UNK         0.1400 
     86 CB         -2.2402  -24.2450  -51.0678 C.3       15 UNK        -0.1800 
     87 C          -4.1760  -25.8322  -50.7680 C.2       15 UNK         0.5000 
     88 O          -4.5738  -26.1120  -51.8989 O.2       15 UNK        -0.5000 
     89 N          -4.9876  -25.6600  -49.7136 N.am      16 UNK        -0.5000 
     90 CA         -6.4471  -25.8123  -49.6139 C.3       16 UNK         0.1400 
     91 CB         -6.8819  -27.2466  -49.9676 C.3       16 UNK        -0.1800 
     92 C          -7.2709  -24.7715  -50.4005 C.2       16 UNK         0.5000 
     93 O          -8.3650  -24.4142  -49.9635 O.2       16 UNK        -0.5000 
     94 N          -6.7321  -24.2800  -51.5221 N.am      17 UNK        -0.5000 
     95 CA         -7.3123  -23.2490  -52.3842 C.3       17 UNK         0.1400 
     96 CB         -6.5789  -23.2821  -53.7355 C.3       17 UNK        -0.1800 
     97 C          -7.2626  -21.8290  -51.7830 C.2       17 UNK         0.5000 
     98 O          -7.8424  -20.9132  -52.3676 O.2       17 UNK        -0.5000 
     99 N          -6.5419  -21.6565  -50.6642 N.am      18 UNK        -0.5000 
    100 CA        -6.3051  -20.4310  -49.8898 C.3       18 UNK         0.1400 
    101 CB        -7.6186  -19.7925  -49.4011 C.3       18 UNK        -0.1800 
    102 C         -5.4064  -19.4043  -50.6031 C.2       18 UNK         0.5000 
    103 O         -4.4582  -18.9117  -49.9974 O.2       18 UNK        -0.5000 
    104 N         -5.6866  -19.1258  -51.8808 N.am      19 UNK        -0.5000 
    105 CA        -4.8545  -18.2958  -52.7543 C.3       19 UNK         0.1400 
    106 CB        -5.7157  -17.7863  -53.9200 C.3       19 UNK        -0.1800 
    107 C         -3.6247  -19.0524  -53.2929 C.2       19 UNK         0.5000 
    108 O         -2.6805  -18.4140  -53.7571 O.2       19 UNK        -0.5000 
    109 N         -3.6797  -20.3946  -53.2607 N.am      20 UNK        -0.5000 
    110 CA        -2.6556  -21.3460  -53.7159 C.3       20 UNK         0.1400 
    111 CB        -1.4084  -21.2585  -52.8127 C.3       20 UNK        -0.1800 
    112 C         -2.3048  -21.2241  -55.2169 C.2       20 UNK         0.5000 
    113 O         -1.2191  -21.6337  -55.6273 O.2       20 UNK        -0.5000 
    114 N         -3.2220  -20.6410  -56.0041 N.am      21 UNK        -0.5000 
    115 CA        -3.1342  -20.2629  -57.4220 C.3       21 UNK         0.1400 
    116 CB        -2.8528  -21.4805  -58.3230 C.3       21 UNK        -0.1800 
    117 C         -2.1542  -19.1064  -57.7164 C.2       21 UNK         0.5000 
    118 O         -2.4655  -18.2577  -58.5531 O.2       21 UNK        -0.5000 
    119 N         -1.0054  -19.0788  -57.0333 N.am      22 UNK        -0.5000 
    120 CA         0.0191  -18.0270  -57.1172 C.3       22 UNK         0.1400 
    121 C         -0.3680  -16.6707  -56.4592 C.2       22 UNK         0.5000 
    122 N         -1.3170  -16.6139  -55.5331 N.am      22 UNK        -0.7600 
    123 O          0.2024  -15.6406  -56.8079 O.2       22 UNK        -0.5000 
    124 C124        1.4068  -18.5269  -56.6310 C.3       23 UNK        -0.0398 
    125 S125        1.3677  -19.3794  -55.0157 S.3       23 UNK        -0.2404 
    126 C126        1.8910  -18.0624  -53.8796 C.3       23 UNK        -0.0205 
    127 H127        1.5854  -10.3832  -48.3640 H         1 UNK         0.0600 
    128 H128       -0.0116   -9.8289  -48.8767 H         1 UNK         0.0600 
    129 H129        0.9060  -10.9430  -49.8950 H         1 UNK         0.0600 
    130 H130        0.0964  -13.0205  -49.7797 H         1 UNK         0.3000 
    131 H131       -0.3018  -14.4110  -47.3489 H         1 UNK         0.0600 
    132 H132        0.3822  -15.4504  -49.5663 H         1 UNK         0.0800 
    133 H133       -1.2411  -15.2097  -50.1615 H         1 UNK         0.0800 
    134 H134       -1.9591  -17.5226  -50.7045 H         1 UNK         0.0800 
    135 H135       -1.8405  -18.9296  -49.6804 H         1 UNK         0.0800 
    136 H136       -0.3450  -17.4429  -52.4622 H         1 UNK         0.1150 
    137 H137        3.3732  -19.5478  -52.1449 H         1 UNK         0.1150 
    138 H138        0.6354  -19.4856  -48.8368 H         1 UNK         0.1150 
    139 H139        3.9947  -20.6655  -50.1773 H         1 UNK         0.0800 
    140 H140        3.4471  -19.8808  -48.7228 H         1 UNK         0.0800 
    141 H141        1.6104  -20.6107  -47.2592 H         1 UNK         0.0800 
    142 H142        2.8317  -21.7242  -46.7362 H         1 UNK         0.0800 
    143 H143        1.2022  -23.6041  -46.8257 H         1 UNK         0.0600 
    144 H144        1.1740  -21.5102  -44.9289 H         1 UNK         0.3000 
    145 H145       -0.9915  -23.0693  -42.5334 H         1 UNK         0.0600 
    146 H146        1.0051  -22.5720  -41.1482 H         1 UNK         0.0600 
    147 H147        1.9956  -22.3837  -42.5931 H         1 UNK         0.0600 
    148 H148        1.3140  -23.9541  -42.1888 H         1 UNK         0.0600 
    149 H149        0.2912  -20.5367  -42.5029 H         1 UNK         0.3000 
    150 H150       -2.3131  -18.7062  -44.1715 H         1 UNK         0.0600 
    151 H151       -2.9786  -18.8209  -41.7898 H         1 UNK         0.0600 
    152 H152       -2.0548  -17.3547  -42.0873 H         1 UNK         0.0600 
    153 H153       -1.2989  -18.7273  -41.2802 H         1 UNK         0.0600 
    154 H154        0.1872  -17.8239  -43.1464 H         1 UNK         0.3000 
    155 H155        2.1344  -18.4474  -46.0938 H         1 UNK         0.0600 
    156 H156        1.1274  -16.2742  -46.5007 H         1 UNK         0.0600 
    157 H157        2.6115  -16.0133  -45.6011 H         1 UNK         0.0600 
    158 H158        1.0506  -15.8958  -44.7891 H         1 UNK         0.0600 
    159 H159        2.6450  -17.4323  -43.4269 H         1 UNK         0.3000 
    160 H160        3.6759  -20.5638  -42.0528 H         1 UNK         0.0600 
    161 H161        5.3849  -18.1735  -42.9351 H         1 UNK         0.0600 
    162 H162        5.6737  -19.8521  -43.3773 H         1 UNK         0.0600 
    163 H163        5.8129  -19.3563  -41.6983 H         1 UNK         0.0600 
    164 H164        3.7956  -17.8874  -41.0632 H         1 UNK         0.3000 
    165 H165        0.4660  -17.5537  -39.9490 H         1 UNK         0.0600 
    166 H166        1.4901  -17.2715  -37.7062 H         1 UNK         0.0600 
    167 H167        1.4141  -18.9753  -38.1246 H         1 UNK         0.0600 
    168 H168        2.9462  -18.1167  -38.2335 H         1 UNK         0.0600 
    169 H169        2.7863  -15.9760  -39.4849 H         1 UNK         0.3000 
    170 H170        2.8890  -13.8998  -40.6227 H         1 UNK         0.0600 
    171 H171        4.2809  -15.4633  -42.8924 H         1 UNK         0.0600 
    172 H172        4.9562  -14.0729  -42.0498 H         1 UNK         0.0600 
    173 H173        4.7143  -15.5765  -41.1906 H         1 UNK         0.0600 
    174 H174        1.5075  -14.0619  -43.1067 H         1 UNK         0.3000 
    175 H175        2.1380  -10.6194  -43.9439 H         1 UNK         0.0600 
    176 H176        2.4457  -13.1268  -45.6721 H         1 UNK         0.0600 
    177 H177        2.3569  -11.4512  -46.2181 H         1 UNK         0.0600 
    178 H178        3.7586  -12.0063  -45.3261 H         1 UNK         0.0600 
    179 H179        0.2024  -12.1473  -45.1229 H         1 UNK         0.3000 
    180 H180       -2.3684  -12.1704  -42.7321 H         1 UNK         0.0600 
    181 H181       -3.5332  -10.5913  -44.2439 H         1 UNK         0.0600 
    182 H182       -2.0012  -10.1255  -44.9850 H         1 UNK         0.0600 
    183 H183       -2.3261   -9.7332  -43.3003 H         1 UNK         0.0600 
    184 H184       -2.4538  -12.4756  -45.5565 H         1 UNK         0.3000 
    185 H185       -1.4763  -15.6335  -46.0290 H         1 UNK         0.0600 
    186 H186       -4.3464  -15.5390  -44.9958 H         1 UNK         0.0600 
    187 H187       -3.6227  -16.7897  -46.0092 H         1 UNK         0.0600 
    188 H188       -3.0843  -16.5720  -44.3523 H         1 UNK         0.0600 
    189 H189       -3.8879  -14.0638  -46.7396 H         1 UNK         0.3000 
    190 H190       -0.9731  -20.7441  -46.5545 H         1 UNK         0.3000 
    191 H191       -2.6447  -21.2302  -48.7488 H         1 UNK         0.0600 
    192 H192       -2.6692  -19.1360  -47.4056 H         1 UNK         0.0600 
    193 H193       -3.3191  -19.9935  -46.0197 H         1 UNK         0.0600 
    194 H194       -4.2824  -19.8178  -47.4693 H         1 UNK         0.0600 
    195 H195       -2.9543  -22.4346  -45.3820 H         1 UNK         0.3000 
    196 H196       -5.3433  -23.9298  -45.7665 H         1 UNK         0.0600 
    197 H197       -4.5443  -23.2171  -43.5354 H         1 UNK         0.0600 
    198 H198       -3.1195  -24.2422  -43.6806 H         1 UNK         0.0600 
    199 H199       -4.7205  -24.9652  -43.5805 H         1 UNK         0.0600 
    200 H200       -1.8833  -24.9086  -45.9220 H         1 UNK         0.3000 
    201 H201       -2.3175  -27.6611  -46.4466 H         1 UNK         0.0600 
    202 H202       -0.1553  -26.7588  -45.6495 H         1 UNK         0.0600 
    203 H203        0.0609  -25.8618  -47.1512 H         1 UNK         0.0600 
    204 H204        0.0789  -27.6214  -47.1622 H         1 UNK         0.0600 
    205 H205       -1.9822  -24.8752  -48.6719 H         1 UNK         0.3000 
    206 H206       -2.1360  -26.3874  -51.1046 H         1 UNK         0.0600 
    207 H207       -2.7432  -23.4346  -50.5384 H         1 UNK         0.0600 
    208 H208       -1.1654  -24.0961  -50.9623 H         1 UNK         0.0600 
    209 H209       -2.4772  -24.1477  -52.1272 H         1 UNK         0.0600 
    210 H210       -4.5429  -25.3731  -48.8511 H         1 UNK         0.3000 
    211 H211       -6.6804  -25.6513  -48.5602 H         1 UNK         0.0600 
    212 H212       -6.7064  -27.4796  -51.0181 H         1 UNK         0.0600 
    213 H213       -7.9465  -27.3878  -49.7772 H         1 UNK         0.0600 
    214 H214       -6.3441  -27.9794  -49.3658 H         1 UNK         0.0600 
    215 H215       -5.8607  -24.7002  -51.8306 H         1 UNK         0.3000 
    216 H216       -8.3628  -23.4929  -52.5547 H         1 UNK         0.0600 
    217 H217       -6.9918  -22.5474  -54.4282 H         1 UNK         0.0600 
    218 H218       -6.6731  -24.2594  -54.2095 H         1 UNK         0.0600 
    219 H219       -5.5160  -23.0679  -53.6222 H         1 UNK         0.0600 
    220 H220       -6.0866  -22.4784  -50.2910 H         1 UNK         0.3000 
    221 H221       -5.7625  -20.7583  -49.0034 H         1 UNK         0.0600 
    222 H222       -8.2187  -19.4033  -50.2238 H         1 UNK         0.0600 
    223 H223       -8.2261  -20.5132  -48.8538 H         1 UNK         0.0600 
    224 H224       -7.4153  -18.9597  -48.7269 H         1 UNK         0.0600 
    225 H225       -6.5050  -19.5696  -52.2896 H         1 UNK         0.3000 
    226 H226       -4.4922  -17.4336  -52.1903 H         1 UNK         0.0600 
    227 H227       -6.5548  -17.1919  -53.5579 H         1 UNK         0.0600 
    228 H228       -5.1335  -17.1511  -54.5891 H         1 UNK         0.0600 
    229 H229       -6.1188  -18.6080  -54.5133 H         1 UNK         0.0600 
    230 H230       -4.5119  -20.8046  -52.8649 H         1 UNK         0.3000 
    231 H231       -3.0870  -22.3391  -53.5904 H         1 UNK         0.0600 
    232 H232       -0.7166  -22.0769  -53.0147 H         1 UNK         0.0600 
    233 H233       -1.6739  -21.3105  -51.7567 H         1 UNK         0.0600 
    234 H234       -0.8643  -20.3285  -52.9735 H         1 UNK         0.0600 
    235 H235       -4.0639  -20.3294  -55.5427 H         1 UNK         0.3000 
    236 H236       -4.1279  -19.8943  -57.6816 H         1 UNK         0.0600 
    237 H237       -1.8530  -21.8854  -58.1653 H         1 UNK         0.0600 
    238 H238       -3.5720  -22.2795  -58.1431 H         1 UNK         0.0600 
    239 H239       -2.9270  -21.2069  -59.3762 H         1 UNK         0.0600 
    240 H240       -0.8220  -19.8295  -56.3753 H         1 UNK         0.3000 
    241 H241        0.1351  -17.7975  -58.1783 H         1 UNK         0.0600 
    242 H242       -1.5537  -15.7202  -55.1351 H         1 UNK         0.3800 
    243 H243       -1.7553  -17.4499  -55.1581 H         1 UNK         0.3800 
    244 H244        2.1385  -17.7171  -56.6093 H         1 UNK         0.0800 
    245 H245        1.7941  -19.2435  -57.3563 H         1 UNK         0.0800 
    246 H246        1.3957  -17.1258  -54.1384 H         1 UNK         0.0800 
    247 H247        2.9627  -17.8892  -53.9881 H         1 UNK         0.0800 
@<TRIPOS>BOND
     1    1    2 1    
     2    1  127 1    
     3    1  128 1    
     4    1  129 1    
     5    2    3 2    
     6    2    4 am   BACKBONE|DICT|INTERRES
     7    4    5 1    
     8    4  130 1    
     9    5    6 1    
    10    5   65 1    
    11    5  131 1    
    12    6    7 1    
    13    6  132 1    
    14    6  133 1    
    15    7    8 1    
    16    8    9 1    
    17    8  134 1    
    18    8  135 1    
    19    9   10 ar   
    20    9   14 ar   
    21   10   11 ar   
    22   10  136 1    
    23   11   12 ar   
    24   11  126 1    
    25   12   13 ar   
    26   12  137 1    
    27   13   14 ar   
    28   13   15 1    
    29   14  138 1    
    30   15   16 1    
    31   15  139 1    
    32   15  140 1    
    33   16   17 1    
    34   17   18 1    
    35   17  141 1    
    36   17  142 1    
    37   18   19 1    
    38   18   67 1    
    39   18  143 1    
    40   19   20 am   BACKBONE|DICT|INTERRES
    41   19  144 1    
    42   20   21 2    
    43   20   22 1    
    44   22   23 1    
    45   22   24 1    
    46   22  145 1    
    47   23  146 1    
    48   23  147 1    
    49   23  148 1    
    50   24   25 am   BACKBONE|DICT|INTERRES
    51   24  149 1    
    52   25   26 2    
    53   25   27 1    
    54   27   28 1    
    55   27   29 1    
    56   27  150 1    
    57   28  151 1    
    58   28  152 1    
    59   28  153 1    
    60   29   30 am   BACKBONE|DICT|INTERRES
    61   29  154 1    
    62   30   31 2    
    63   30   32 1    
    64   32   33 1    
    65   32   34 1    
    66   32  155 1    
    67   33  156 1    
    68   33  157 1    
    69   33  158 1    
    70   34   35 am   BACKBONE|DICT|INTERRES
    71   34  159 1    
    72   35   36 2    
    73   35   37 1    
    74   37   38 1    
    75   37   39 1    
    76   37  160 1    
    77   38  161 1    
    78   38  162 1    
    79   38  163 1    
    80   39   40 am   BACKBONE|DICT|INTERRES
    81   39  164 1    
    82   40   41 2    
    83   40   42 1    
    84   42   43 1    
    85   42   44 1    
    86   42  165 1    
    87   43  166 1    
    88   43  167 1    
    89   43  168 1    
    90   44   45 am   BACKBONE|DICT|INTERRES
    91   44  169 1    
    92   45   46 2    
    93   45   47 1    
    94   47   48 1    
    95   47   49 1    
    96   47  170 1    
    97   48  171 1    
    98   48  172 1    
    99   48  173 1    
   100   49   50 am   BACKBONE|DICT|INTERRES
   101   49  174 1    
   102   50   51 2    
   103   50   52 1    
   104   52   53 1    
   105   52   54 1    
   106   52  175 1    
   107   53  176 1    
   108   53  177 1    
   109   53  178 1    
   110   54   55 am   BACKBONE|DICT|INTERRES
   111   54  179 1    
   112   55   56 2    
   113   55   57 1    
   114   57   58 1    
   115   57   59 1    
   116   57  180 1    
   117   58  181 1    
   118   58  182 1    
   119   58  183 1    
   120   59   60 am   BACKBONE|DICT|INTERRES
   121   59  184 1    
   122   60   61 2    
   123   60   62 1    
   124   62   63 1    
   125   62   64 1    
   126   62  185 1    
   127   63  186 1    
   128   63  187 1    
   129   63  188 1    
   130   64   65 am   BACKBONE|DICT|INTERRES
   131   64  189 1    
   132   65   66 2    
   133   67   68 2    
   134   67   69 am   BACKBONE|DICT|INTERRES
   135   69   70 1    
   136   69  190 1    
   137   70   71 1    
   138   70   72 1    
   139   70  191 1    
   140   71  192 1    
   141   71  193 1    
   142   71  194 1    
   143   72   73 2    
   144   72   74 am   BACKBONE|DICT|INTERRES
   145   74   75 1    
   146   74  195 1    
   147   75   76 1    
   148   75   77 1    
   149   75  196 1    
   150   76  197 1    
   151   76  198 1    
   152   76  199 1    
   153   77   78 2    
   154   77   79 am   BACKBONE|DICT|INTERRES
   155   79   80 1    
   156   79  200 1    
   157   80   81 1    
   158   80   82 1    
   159   80  201 1    
   160   81  202 1    
   161   81  203 1    
   162   81  204 1    
   163   82   83 2    
   164   82   84 am   BACKBONE|DICT|INTERRES
   165   84   85 1    
   166   84  205 1    
   167   85   86 1    
   168   85   87 1    
   169   85  206 1    
   170   86  207 1    
   171   86  208 1    
   172   86  209 1    
   173   87   88 2    
   174   87   89 am   BACKBONE|DICT|INTERRES
   175   89   90 1    
   176   89  210 1    
   177   90   91 1    
   178   90   92 1    
   179   90  211 1    
   180   91  212 1    
   181   91  213 1    
   182   91  214 1    
   183   92   93 2    
   184   92   94 am   BACKBONE|DICT|INTERRES
   185   94   95 1    
   186   94  215 1    
   187   95   96 1    
   188   95   97 1    
   189   95  216 1    
   190   96  217 1    
   191   96  218 1    
   192   96  219 1    
   193   97   98 2    
   194   97   99 am   BACKBONE|DICT|INTERRES
   195   99  100 1    
   196   99  220 1    
   197  100  101 1    
   198  100  102 1    
   199  100  221 1    
   200  101  222 1    
   201  101  223 1    
   202  101  224 1    
   203  102  103 2    
   204  102  104 am   BACKBONE|DICT|INTERRES
   205  104  105 1    
   206  104  225 1    
   207  105  106 1    
   208  105  107 1    
   209  105  226 1    
   210  106  227 1    
   211  106  228 1    
   212  106  229 1    
   213  107  108 2    
   214  107  109 am   BACKBONE|DICT|INTERRES
   215  109  110 1    
   216  109  230 1    
   217  110  111 1    
   218  110  112 1    
   219  110  231 1    
   220  111  232 1    
   221  111  233 1    
   222  111  234 1    
   223  112  113 2    
   224  112  114 am   BACKBONE|DICT|INTERRES
   225  114  115 1    
   226  114  235 1    
   227  115  116 1    
   228  115  117 1    
   229  115  236 1    
   230  116  237 1    
   231  116  238 1    
   232  116  239 1    
   233  117  118 2    
   234  117  119 am   BACKBONE|DICT|INTERRES
   235  119  120 1    
   236  119  240 1    
   237  120  121 1    
   238  120  124 1    
   239  120  241 1    
   240  121  122 am   BACKBONE|DICT|INTERRES
   241  121  123 2    
   242  122  242 1    
   243  122  243 1    
   244  124  125 1    
   245  124  244 1    
   246  124  245 1    
   247  125  126 1    
   248  126  246 1    
   249  126  247 1    
@<TRIPOS>SUBSTRUCTURE
     1 UNK         1 GROUP             0       ****    0 ROOT    
