@<TRIPOS>MOLECULE
3R540
247   249    1
SMALL
USER_CHARGES


@<TRIPOS>ATOM
      1 CA          8.5663  -13.1123  -50.5354 C.3       0 UNK        -0.1800 
      2 C           7.7257  -14.1162  -49.7586 C.2       0 UNK         0.5000 
      3 O           8.2010  -15.2123  -49.4593 O.2       0 UNK        -0.5000 
      4 N           6.4781  -13.7504  -49.4411 N.am      1 UNK        -0.5000 
      5 CA          5.5346  -14.5613  -48.6620 C.3       1 UNK         0.1400 
      6 C6          4.0668  -14.0799  -48.8223 C.3       23 UNK        -0.0398 
      7 S7          3.5662  -13.8096  -50.5587 S.3       23 UNK        -0.2404 
      8 C8          3.3030  -15.5161  -51.1575 C.3       23 UNK        -0.0205 
      9 C9          2.0109  -16.2059  -50.7151 C.ar      23 UNK        -0.0193 
     10 C10         0.9524  -15.5272  -50.0950 C.ar      23 UNK        -0.1150 
     11 C11        -0.2217  -16.2021  -49.7495 C.ar      23 UNK        -0.0193 
     12 C12        -0.3404  -17.5651  -50.0264 C.ar      23 UNK        -0.1150 
     13 C13         0.6960  -18.2539  -50.6598 C.ar      23 UNK        -0.0193 
     14 C14         1.8682  -17.5698  -50.9923 C.ar      23 UNK        -0.1150 
     15 C15         0.5343  -19.7221  -51.0288 C.3       23 UNK        -0.0205 
     16 S16         1.3671  -20.8309  -49.8518 S.3       23 UNK        -0.2404 
     17 C17         0.3908  -20.5839  -48.3317 C.3       23 UNK        -0.0398 
     18 CA          0.1186  -21.9092  -47.5772 C.3       11 UNK         0.1400 
     19 N           0.1096  -21.7202  -46.1265 N.am      11 UNK        -0.5000 
     20 C           0.1958  -22.7150  -45.2328 C.2       10 UNK         0.5000 
     21 O           0.1585  -23.9076  -45.5396 O.2       10 UNK        -0.5000 
     22 CA          0.3514  -22.3095  -43.7585 C.3       10 UNK         0.1400 
     23 CB          1.8020  -21.8934  -43.4687 C.3       10 UNK        -0.1800 
     24 N          -0.5390  -21.1986  -43.4294 N.am      10 UNK        -0.5000 
     25 C          -1.6885  -21.3188  -42.7520 C.2       9 UNK         0.5000 
     26 O          -2.0756  -22.3678  -42.2359 O.2       9 UNK        -0.5000 
     27 CA         -2.5750  -20.0592  -42.6533 C.3       9 UNK         0.1400 
     28 CB         -2.2687  -19.2874  -41.3613 C.3       9 UNK        -0.1800 
     29 N          -2.4450  -19.1520  -43.7975 N.am      9 UNK        -0.5000 
     30 C          -2.7170  -19.4861  -45.0687 C.2       8 UNK         0.5000 
     31 O          -3.1215  -20.5958  -45.4065 O.2       8 UNK        -0.5000 
     32 CA         -2.4315  -18.4430  -46.1643 C.3       8 UNK         0.1400 
     33 CB         -3.7124  -17.6659  -46.4996 C.3       8 UNK        -0.1800 
     34 N          -1.3553  -17.5040  -45.8439 N.am      8 UNK        -0.5000 
     35 C          -0.1054  -17.8369  -45.4814 C.2       7 UNK         0.5000 
     36 O           0.2981  -18.9983  -45.4038 O.2       7 UNK        -0.5000 
     37 CA          0.8368  -16.6863  -45.0803 C.3       7 UNK         0.1400 
     38 CB          1.6729  -16.2642  -46.2975 C.3       7 UNK        -0.1800 
     39 N           0.1404  -15.5155  -44.5352 N.am      7 UNK        -0.5000 
     40 C          -0.7207  -15.5284  -43.5035 C.2       6 UNK         0.5000 
     41 O          -0.9336  -16.5240  -42.8104 O.2       6 UNK        -0.5000 
     42 CA         -1.5363  -14.2473  -43.2345 C.3       6 UNK         0.1400 
     43 CB         -1.0844  -13.5662  -41.9343 C.3       6 UNK        -0.1800 
     44 N          -1.5136  -13.2619  -44.3177 N.am      6 UNK        -0.5000 
     45 C          -1.9669  -13.4274  -45.5665 C.2       5 UNK         0.5000 
     46 O          -2.4329  -14.4883  -45.9841 O.2       5 UNK        -0.5000 
     47 CA         -1.8328  -12.2266  -46.5259 C.3       5 UNK         0.1400 
     48 CB         -3.0461  -11.2858  -46.4118 C.3       5 UNK        -0.1800 
     49 N          -0.5605  -11.4952  -46.4156 N.am      5 UNK        -0.5000 
     50 C          -0.0934  -10.7545  -45.4008 C.2       4 UNK         0.5000 
     51 O          -0.7075  -10.5502  -44.3517 O.2       4 UNK        -0.5000 
     52 CA          1.3413  -10.2179  -45.5539 C.3       4 UNK         0.1400 
     53 CB          1.4291   -8.7296  -45.1780 C.3       4 UNK        -0.1800 
     54 N           2.2680  -10.9807  -44.7167 N.am      4 UNK        -0.5000 
     55 C           2.5900  -12.2649  -44.9116 C.2       3 UNK         0.5000 
     56 O           2.1706  -12.9425  -45.8553 O.2       3 UNK        -0.5000 
     57 CA          3.5274  -12.9047  -43.8780 C.3       3 UNK         0.1400 
     58 CB          2.7561  -13.3359  -42.6182 C.3       3 UNK        -0.1800 
     59 N           4.1520  -14.0582  -44.5087 N.am      3 UNK        -0.5000 
     60 C           5.2389  -14.7147  -44.0933 C.2       2 UNK         0.5000 
     61 O           5.8377  -14.4611  -43.0474 O.2       2 UNK        -0.5000 
     62 CA          5.7594  -15.8355  -45.0184 C.3       2 UNK         0.1400 
     63 CB          5.1773  -17.1930  -44.5927 C.3       2 UNK        -0.1800 
     64 N           5.4783  -15.6218  -46.4449 N.am      2 UNK        -0.5000 
     65 C           5.9380  -14.5917  -47.1709 C.2       1 UNK         0.5000 
     66 O           6.6286  -13.6828  -46.7008 O.2       1 UNK        -0.5000 
     67 C          -1.1281  -22.6497  -48.1064 C.2       11 UNK         0.5000 
     68 O          -0.9979  -23.4195  -49.0563 O.2       11 UNK        -0.5000 
     69 N          -2.2996  -22.4669  -47.4741 N.am      12 UNK        -0.5000 
     70 CA         -3.5255  -23.1874  -47.8370 C.3       12 UNK         0.1400 
     71 CB         -4.7472  -22.5601  -47.1499 C.3       12 UNK        -0.1800 
     72 C          -3.4482  -24.6863  -47.5112 C.2       12 UNK         0.5000 
     73 O          -3.9870  -25.4916  -48.2688 O.2       12 UNK        -0.5000 
     74 N          -2.7561  -25.0393  -46.4188 N.am      13 UNK        -0.5000 
     75 CA         -2.4922  -26.4256  -46.0356 C.3       13 UNK         0.1400 
     76 CB         -1.9998  -26.4839  -44.5816 C.3       13 UNK        -0.1800 
     77 C          -1.4905  -27.0927  -46.9937 C.2       13 UNK         0.5000 
     78 O          -1.7053  -28.2379  -47.3910 O.2       13 UNK        -0.5000 
     79 N          -0.4490  -26.3460  -47.3905 N.am      14 UNK        -0.5000 
     80 CA          0.5444  -26.7637  -48.3830 C.3       14 UNK         0.1400 
     81 CB          1.6954  -25.7466  -48.4150 C.3       14 UNK        -0.1800 
     82 C          -0.0604  -26.9542  -49.7886 C.2       14 UNK         0.5000 
     83 O           0.2719  -27.9258  -50.4682 O.2       14 UNK        -0.5000 
     84 N          -0.9608  -26.0434  -50.1825 N.am      15 UNK        -0.5000 
     85 CA         -1.7045  -26.0823  -51.4433 C.3       15 UNK         0.1400 
     86 CB         -2.2253  -24.6690  -51.7566 C.3       15 UNK        -0.1800 
     87 C          -2.8763  -27.0841  -51.4458 C.2       15 UNK         0.5000 
     88 O          -3.4831  -27.2796  -52.4979 O.2       15 UNK        -0.5000 
     89 N          -3.2134  -27.6602  -50.2816 N.am      16 UNK        -0.5000 
     90 CA         -4.3550  -28.5507  -50.0324 C.3       16 UNK         0.1400 
     91 CB         -4.1381  -29.9152  -50.7187 C.3       16 UNK        -0.1800 
     92 C          -5.7074  -27.8957  -50.3962 C.2       16 UNK         0.5000 
     93 O          -6.5796  -28.5420  -50.9790 O.2       16 UNK        -0.5000 
     94 N          -5.8270  -26.6015  -50.0658 N.am      17 UNK        -0.5000 
     95 CA         -6.9478  -25.6901  -50.3195 C.3       17 UNK         0.1400 
     96 CB         -8.2144  -26.1596  -49.5745 C.3       17 UNK        -0.1800 
     97 C          -7.2215  -25.3866  -51.8107 C.2       17 UNK         0.5000 
     98 O          -8.2505  -24.7829  -52.1185 O.2       17 UNK        -0.5000 
     99 N          -6.3065  -25.7685  -52.7151 N.am      18 UNK        -0.5000 
    100 CA        -6.4138  -25.5105  -54.1558 C.3       18 UNK         0.1400 
    101 CB        -5.5922  -26.5622  -54.9174 C.3       18 UNK        -0.1800 
    102 C         -5.9675  -24.0883  -54.5547 C.2       18 UNK         0.5000 
    103 O         -6.1965  -23.6819  -55.6950 O.2       18 UNK        -0.5000 
    104 N         -5.3345  -23.3633  -53.6267 N.am      19 UNK        -0.5000 
    105 CA        -4.8370  -22.0012  -53.7844 C.3       19 UNK         0.1400 
    106 CB        -3.4623  -22.0236  -54.4865 C.3       19 UNK        -0.1800 
    107 C         -4.7972  -21.3258  -52.4011 C.2       19 UNK         0.5000 
    108 O         -5.4335  -21.8190  -51.4659 O.2       19 UNK        -0.5000 
    109 N         -4.0421  -20.2216  -52.2993 N.am      20 UNK        -0.5000 
    110 CA        -3.8132  -19.4075  -51.0977 C.3       20 UNK         0.1400 
    111 CB        -3.2416  -20.2565  -49.9462 C.3       20 UNK        -0.1800 
    112 C         -5.0471  -18.5934  -50.6601 C.2       20 UNK         0.5000 
    113 O         -5.2172  -18.3212  -49.4704 O.2       20 UNK        -0.5000 
    114 N         -5.8752  -18.1801  -51.6283 N.am      21 UNK        -0.5000 
    115 CA        -7.0712  -17.3552  -51.4325 C.3       21 UNK         0.1400 
    116 CB        -8.0141  -17.5686  -52.6309 C.3       21 UNK        -0.1800 
    117 C         -6.7267  -15.8652  -51.1982 C.2       21 UNK         0.5000 
    118 O         -7.2223  -14.9919  -51.9131 O.2       21 UNK        -0.5000 
    119 N         -5.8617  -15.6045  -50.2120 N.am      22 UNK        -0.5000 
    120 CA        -5.3571  -14.2697  -49.8463 C.3       22 UNK         0.1400 
    121 C         -6.3269  -13.4346  -48.9590 C.2       22 UNK         0.5000 
    122 N         -7.4298  -13.9874  -48.4686 N.am      22 UNK        -0.7600 
    123 O         -6.0780  -12.2566  -48.7182 O.2       22 UNK        -0.5000 
    124 C124       -3.9484  -14.3426  -49.2018 C.3       23 UNK        -0.0398 
    125 S125       -2.7188  -15.1571  -50.2760 S.3       23 UNK        -0.2404 
    126 C126       -1.3725  -15.4607  -49.0918 C.3       23 UNK        -0.0205 
    127 H127        8.0129  -12.1963  -50.7445 H         1 UNK         0.0600 
    128 H128        9.4574  -12.8486  -49.9656 H         1 UNK         0.0600 
    129 H129        8.8823  -13.5428  -51.4858 H         1 UNK         0.0600 
    130 H130        6.1462  -12.8344  -49.7066 H         1 UNK         0.3000 
    131 H131        5.5953  -15.5853  -49.0364 H         1 UNK         0.0600 
    132 H132        3.3754  -14.7914  -48.3683 H         1 UNK         0.0800 
    133 H133        3.9154  -13.1364  -48.2936 H         1 UNK         0.0800 
    134 H134        3.3047  -15.4850  -52.2479 H         1 UNK         0.0800 
    135 H135        4.1595  -16.1284  -50.8727 H         1 UNK         0.0800 
    136 H136        1.0236  -14.4696  -49.8890 H         1 UNK         0.1150 
    137 H137       -1.2546  -18.0773  -49.7701 H         1 UNK         0.1150 
    138 H138        2.6683  -18.1019  -51.4883 H         1 UNK         0.1150 
    139 H139       -0.5189  -19.9883  -51.1058 H         1 UNK         0.0800 
    140 H140        0.9557  -19.8907  -52.0209 H         1 UNK         0.0800 
    141 H141       -0.5352  -20.0518  -48.5450 H         1 UNK         0.0800 
    142 H142        0.9853  -19.9090  -47.7162 H         1 UNK         0.0800 
    143 H143        0.9658  -22.5717  -47.7678 H         1 UNK         0.0600 
    144 H144        0.1643  -20.7577  -45.8017 H         1 UNK         0.3000 
    145 H145        0.1223  -23.1840  -43.1459 H         1 UNK         0.0600 
    146 H146        1.9383  -21.6574  -42.4132 H         1 UNK         0.0600 
    147 H147        2.4959  -22.6984  -43.7144 H         1 UNK         0.0600 
    148 H148        2.0961  -21.0165  -44.0473 H         1 UNK         0.0600 
    149 H149       -0.3156  -20.3015  -43.8432 H         1 UNK         0.3000 
    150 H150       -3.6140  -20.3927  -42.6150 H         1 UNK         0.0600 
    151 H151       -2.4019  -19.9228  -40.4848 H         1 UNK         0.0600 
    152 H152       -2.9322  -18.4302  -41.2458 H         1 UNK         0.0600 
    153 H153       -1.2417  -18.9199  -41.3481 H         1 UNK         0.0600 
    154 H154       -2.0721  -18.2304  -43.6013 H         1 UNK         0.3000 
    155 H155       -2.1230  -18.9935  -47.0526 H         1 UNK         0.0600 
    156 H156       -3.5924  -17.0727  -47.4040 H         1 UNK         0.0600 
    157 H157       -4.0005  -16.9939  -45.6904 H         1 UNK         0.0600 
    158 H158       -4.5480  -18.3443  -46.6789 H         1 UNK         0.0600 
    159 H159       -1.6053  -16.5216  -45.8516 H         1 UNK         0.3000 
    160 H160        1.5079  -17.0659  -44.3076 H         1 UNK         0.0600 
    161 H161        1.0610  -15.7733  -47.0548 H         1 UNK         0.0600 
    162 H162        2.1506  -17.1247  -46.7686 H         1 UNK         0.0600 
    163 H163        2.4637  -15.5764  -46.0114 H         1 UNK         0.0600 
    164 H164        0.2555  -14.6497  -45.0427 H         1 UNK         0.3000 
    165 H165       -2.5736  -14.5627  -43.1063 H         1 UNK         0.0600 
    166 H166       -0.0860  -13.1418  -42.0282 H         1 UNK         0.0600 
    167 H167       -1.7630  -12.7584  -41.6594 H         1 UNK         0.0600 
    168 H168       -1.0677  -14.2717  -41.1024 H         1 UNK         0.0600 
    169 H169       -1.1632  -12.3366  -44.0830 H         1 UNK         0.3000 
    170 H170       -1.8390  -12.6355  -47.5355 H         1 UNK         0.0600 
    171 H171       -3.9737  -11.8247  -46.6103 H         1 UNK         0.0600 
    172 H172       -3.1332  -10.8465  -45.4178 H         1 UNK         0.0600 
    173 H173       -2.9835  -10.4724  -47.1347 H         1 UNK         0.0600 
    174 H174        0.0746  -11.6529  -47.1863 H         1 UNK         0.3000 
    175 H175        1.6510  -10.3205  -46.5963 H         1 UNK         0.0600 
    176 H176        2.4329   -8.3391  -45.3472 H         1 UNK         0.0600 
    177 H177        0.7433   -8.1344  -45.7821 H         1 UNK         0.0600 
    178 H178        1.1757   -8.5596  -44.1306 H         1 UNK         0.0600 
    179 H179        2.6297  -10.5022  -43.9045 H         1 UNK         0.3000 
    180 H180        4.3008  -12.1814  -43.6120 H         1 UNK         0.0600 
    181 H181        2.0117  -14.0981  -42.8475 H         1 UNK         0.0600 
    182 H182        2.2406  -12.4887  -42.1648 H         1 UNK         0.0600 
    183 H183        3.4259  -13.7445  -41.8618 H         1 UNK         0.0600 
    184 H184        3.7346  -14.3008  -45.3976 H         1 UNK         0.3000 
    185 H185        6.8441  -15.8771  -44.8989 H         1 UNK         0.0600 
    186 H186        5.6051  -18.0079  -45.1771 H         1 UNK         0.0600 
    187 H187        5.3947  -17.3993  -43.5439 H         1 UNK         0.0600 
    188 H188        4.0942  -17.2245  -44.7140 H         1 UNK         0.0600 
    189 H189        4.9323  -16.3385  -46.9005 H         1 UNK         0.3000 
    190 H190       -2.3673  -21.8301  -46.6849 H         1 UNK         0.3000 
    191 H191       -3.6645  -23.0992  -48.9163 H         1 UNK         0.0600 
    192 H192       -4.8338  -21.4978  -47.3775 H         1 UNK         0.0600 
    193 H193       -5.6686  -23.0388  -47.4841 H         1 UNK         0.0600 
    194 H194       -4.6980  -22.6670  -46.0657 H         1 UNK         0.0600 
    195 H195       -2.3064  -24.3190  -45.8721 H         1 UNK         0.3000 
    196 H196       -3.4315  -26.9801  -46.0940 H         1 UNK         0.0600 
    197 H197       -1.8572  -27.5172  -44.2626 H         1 UNK         0.0600 
    198 H198       -2.7219  -26.0309  -43.9020 H         1 UNK         0.0600 
    199 H199       -1.0483  -25.9690  -44.4507 H         1 UNK         0.0600 
    200 H200       -0.3329  -25.4246  -46.9842 H         1 UNK         0.3000 
    201 H201        0.9505  -27.7252  -48.0620 H         1 UNK         0.0600 
    202 H202        2.1405  -25.6213  -47.4277 H         1 UNK         0.0600 
    203 H203        1.3608  -24.7678  -48.7582 H         1 UNK         0.0600 
    204 H204        2.4860  -26.0759  -49.0902 H         1 UNK         0.0600 
    205 H205       -1.1128  -25.2240  -49.5993 H         1 UNK         0.3000 
    206 H206       -1.0214  -26.3783  -52.2420 H         1 UNK         0.0600 
    207 H207       -1.4084  -23.9491  -51.8125 H         1 UNK         0.0600 
    208 H208       -2.7424  -24.6469  -52.7165 H         1 UNK         0.0600 
    209 H209       -2.9266  -24.3211  -50.9972 H         1 UNK         0.0600 
    210 H210       -2.6732  -27.4099  -49.4645 H         1 UNK         0.3000 
    211 H211       -4.3790  -28.7215  -48.9551 H         1 UNK         0.0600 
    212 H212       -4.1510  -29.8293  -51.8057 H         1 UNK         0.0600 
    213 H213       -4.9187  -30.6229  -50.4369 H         1 UNK         0.0600 
    214 H214       -3.1833  -30.3536  -50.4283 H         1 UNK         0.0600 
    215 H215       -5.0547  -26.1890  -49.5432 H         1 UNK         0.3000 
    216 H216       -6.6489  -24.7370  -49.8802 H         1 UNK         0.0600 
    217 H217       -8.0065  -26.3418  -48.5201 H         1 UNK         0.0600 
    218 H218       -8.6191  -27.0776  -50.0012 H         1 UNK         0.0600 
    219 H219       -9.0005  -25.4049  -49.6215 H         1 UNK         0.0600 
    220 H220       -5.4884  -26.2811  -52.4082 H         1 UNK         0.3000 
    221 H221       -7.4577  -25.6226  -54.4560 H         1 UNK         0.0600 
    222 H222       -4.5221  -26.4331  -54.7531 H         1 UNK         0.0600 
    223 H223       -5.8607  -27.5742  -54.6132 H         1 UNK         0.0600 
    224 H224       -5.7659  -26.4879  -55.9915 H         1 UNK         0.0600 
    225 H225       -5.2662  -23.7300  -52.6872 H         1 UNK         0.3000 
    226 H226       -5.5425  -21.4352  -54.3961 H         1 UNK         0.0600 
    227 H227       -3.4999  -22.5926  -55.4156 H         1 UNK         0.0600 
    228 H228       -3.1308  -21.0185  -54.7483 H         1 UNK         0.0600 
    229 H229       -2.6948  -22.4715  -53.8547 H         1 UNK         0.0600 
    230 H230       -3.5589  -19.9066  -53.1290 H         1 UNK         0.3000 
    231 H231       -3.0534  -18.6750  -51.3735 H         1 UNK         0.0600 
    232 H232       -2.4406  -20.9134  -50.2823 H         1 UNK         0.0600 
    233 H233       -4.0153  -20.8778  -49.5006 H         1 UNK         0.0600 
    234 H234       -2.8508  -19.6246  -49.1514 H         1 UNK         0.0600 
    235 H235       -5.6486  -18.4181  -52.5823 H         1 UNK         0.3000 
    236 H236       -7.5925  -17.7051  -50.5388 H         1 UNK         0.0600 
    237 H237       -8.9434  -17.0120  -52.5031 H         1 UNK         0.0600 
    238 H238       -7.5584  -17.2396  -53.5658 H         1 UNK         0.0600 
    239 H239       -8.2813  -18.6200  -52.7396 H         1 UNK         0.0600 
    240 H240       -5.4964  -16.3916  -49.6850 H         1 UNK         0.3000 
    241 H241       -5.2511  -13.6981  -50.7704 H         1 UNK         0.0600 
    242 H242       -7.6480  -14.9520  -48.6591 H         1 UNK         0.3800 
    243 H243       -8.0524  -13.4340  -47.9010 H         1 UNK         0.3800 
    244 H244       -3.5802  -13.3392  -48.9839 H         1 UNK         0.0800 
    245 H245       -3.9972  -14.8681  -48.2471 H         1 UNK         0.0800 
    246 H246       -1.0273  -14.5116  -48.6825 H         1 UNK         0.0800 
    247 H247       -1.7422  -16.0439  -48.2506 H         1 UNK         0.0800 
@<TRIPOS>BOND
     1    1    2 1    
     2    1  127 1    
     3    1  128 1    
     4    1  129 1    
     5    2    3 2    
     6    2    4 am   BACKBONE|DICT|INTERRES
     7    4    5 1    
     8    4  130 1    
     9    5    6 1    
    10    5   65 1    
    11    5  131 1    
    12    6    7 1    
    13    6  132 1    
    14    6  133 1    
    15    7    8 1    
    16    8    9 1    
    17    8  134 1    
    18    8  135 1    
    19    9   10 ar   
    20    9   14 ar   
    21   10   11 ar   
    22   10  136 1    
    23   11   12 ar   
    24   11  126 1    
    25   12   13 ar   
    26   12  137 1    
    27   13   14 ar   
    28   13   15 1    
    29   14  138 1    
    30   15   16 1    
    31   15  139 1    
    32   15  140 1    
    33   16   17 1    
    34   17   18 1    
    35   17  141 1    
    36   17  142 1    
    37   18   19 1    
    38   18   67 1    
    39   18  143 1    
    40   19   20 am   BACKBONE|DICT|INTERRES
    41   19  144 1    
    42   20   21 2    
    43   20   22 1    
    44   22   23 1    
    45   22   24 1    
    46   22  145 1    
    47   23  146 1    
    48   23  147 1    
    49   23  148 1    
    50   24   25 am   BACKBONE|DICT|INTERRES
    51   24  149 1    
    52   25   26 2    
    53   25   27 1    
    54   27   28 1    
    55   27   29 1    
    56   27  150 1    
    57   28  151 1    
    58   28  152 1    
    59   28  153 1    
    60   29   30 am   BACKBONE|DICT|INTERRES
    61   29  154 1    
    62   30   31 2    
    63   30   32 1    
    64   32   33 1    
    65   32   34 1    
    66   32  155 1    
    67   33  156 1    
    68   33  157 1    
    69   33  158 1    
    70   34   35 am   BACKBONE|DICT|INTERRES
    71   34  159 1    
    72   35   36 2    
    73   35   37 1    
    74   37   38 1    
    75   37   39 1    
    76   37  160 1    
    77   38  161 1    
    78   38  162 1    
    79   38  163 1    
    80   39   40 am   BACKBONE|DICT|INTERRES
    81   39  164 1    
    82   40   41 2    
    83   40   42 1    
    84   42   43 1    
    85   42   44 1    
    86   42  165 1    
    87   43  166 1    
    88   43  167 1    
    89   43  168 1    
    90   44   45 am   BACKBONE|DICT|INTERRES
    91   44  169 1    
    92   45   46 2    
    93   45   47 1    
    94   47   48 1    
    95   47   49 1    
    96   47  170 1    
    97   48  171 1    
    98   48  172 1    
    99   48  173 1    
   100   49   50 am   BACKBONE|DICT|INTERRES
   101   49  174 1    
   102   50   51 2    
   103   50   52 1    
   104   52   53 1    
   105   52   54 1    
   106   52  175 1    
   107   53  176 1    
   108   53  177 1    
   109   53  178 1    
   110   54   55 am   BACKBONE|DICT|INTERRES
   111   54  179 1    
   112   55   56 2    
   113   55   57 1    
   114   57   58 1    
   115   57   59 1    
   116   57  180 1    
   117   58  181 1    
   118   58  182 1    
   119   58  183 1    
   120   59   60 am   BACKBONE|DICT|INTERRES
   121   59  184 1    
   122   60   61 2    
   123   60   62 1    
   124   62   63 1    
   125   62   64 1    
   126   62  185 1    
   127   63  186 1    
   128   63  187 1    
   129   63  188 1    
   130   64   65 am   BACKBONE|DICT|INTERRES
   131   64  189 1    
   132   65   66 2    
   133   67   68 2    
   134   67   69 am   BACKBONE|DICT|INTERRES
   135   69   70 1    
   136   69  190 1    
   137   70   71 1    
   138   70   72 1    
   139   70  191 1    
   140   71  192 1    
   141   71  193 1    
   142   71  194 1    
   143   72   73 2    
   144   72   74 am   BACKBONE|DICT|INTERRES
   145   74   75 1    
   146   74  195 1    
   147   75   76 1    
   148   75   77 1    
   149   75  196 1    
   150   76  197 1    
   151   76  198 1    
   152   76  199 1    
   153   77   78 2    
   154   77   79 am   BACKBONE|DICT|INTERRES
   155   79   80 1    
   156   79  200 1    
   157   80   81 1    
   158   80   82 1    
   159   80  201 1    
   160   81  202 1    
   161   81  203 1    
   162   81  204 1    
   163   82   83 2    
   164   82   84 am   BACKBONE|DICT|INTERRES
   165   84   85 1    
   166   84  205 1    
   167   85   86 1    
   168   85   87 1    
   169   85  206 1    
   170   86  207 1    
   171   86  208 1    
   172   86  209 1    
   173   87   88 2    
   174   87   89 am   BACKBONE|DICT|INTERRES
   175   89   90 1    
   176   89  210 1    
   177   90   91 1    
   178   90   92 1    
   179   90  211 1    
   180   91  212 1    
   181   91  213 1    
   182   91  214 1    
   183   92   93 2    
   184   92   94 am   BACKBONE|DICT|INTERRES
   185   94   95 1    
   186   94  215 1    
   187   95   96 1    
   188   95   97 1    
   189   95  216 1    
   190   96  217 1    
   191   96  218 1    
   192   96  219 1    
   193   97   98 2    
   194   97   99 am   BACKBONE|DICT|INTERRES
   195   99  100 1    
   196   99  220 1    
   197  100  101 1    
   198  100  102 1    
   199  100  221 1    
   200  101  222 1    
   201  101  223 1    
   202  101  224 1    
   203  102  103 2    
   204  102  104 am   BACKBONE|DICT|INTERRES
   205  104  105 1    
   206  104  225 1    
   207  105  106 1    
   208  105  107 1    
   209  105  226 1    
   210  106  227 1    
   211  106  228 1    
   212  106  229 1    
   213  107  108 2    
   214  107  109 am   BACKBONE|DICT|INTERRES
   215  109  110 1    
   216  109  230 1    
   217  110  111 1    
   218  110  112 1    
   219  110  231 1    
   220  111  232 1    
   221  111  233 1    
   222  111  234 1    
   223  112  113 2    
   224  112  114 am   BACKBONE|DICT|INTERRES
   225  114  115 1    
   226  114  235 1    
   227  115  116 1    
   228  115  117 1    
   229  115  236 1    
   230  116  237 1    
   231  116  238 1    
   232  116  239 1    
   233  117  118 2    
   234  117  119 am   BACKBONE|DICT|INTERRES
   235  119  120 1    
   236  119  240 1    
   237  120  121 1    
   238  120  124 1    
   239  120  241 1    
   240  121  122 am   BACKBONE|DICT|INTERRES
   241  121  123 2    
   242  122  242 1    
   243  122  243 1    
   244  124  125 1    
   245  124  244 1    
   246  124  245 1    
   247  125  126 1    
   248  126  246 1    
   249  126  247 1    
@<TRIPOS>SUBSTRUCTURE
     1 UNK         1 GROUP             0       ****    0 ROOT    
