@<TRIPOS>MOLECULE
3R540
247   249    1
SMALL
USER_CHARGES


@<TRIPOS>ATOM
      1 CA          6.6767  -12.2773  -46.2414 C.3       0 UNK        -0.1800 
      2 C           5.2160  -12.6750  -46.0956 C.2       0 UNK         0.5000 
      3 O           4.4425  -11.9441  -45.4784 O.2       0 UNK        -0.5000 
      4 N           4.8295  -13.8163  -46.6802 N.am      1 UNK        -0.5000 
      5 CA          3.4849  -14.4157  -46.6417 C.3       1 UNK         0.1400 
      6 C6          3.4641  -15.8189  -47.3025 C.3       23 UNK        -0.0398 
      7 S7          4.1721  -15.8420  -48.9884 S.3       23 UNK        -0.2404 
      8 C8          2.6779  -15.9492  -50.0327 C.3       23 UNK        -0.0205 
      9 C9          2.0289  -17.3316  -50.0976 C.ar      23 UNK        -0.0193 
     10 C10         0.6579  -17.4232  -50.3498 C.ar      23 UNK        -0.1150 
     11 C11         0.0341  -18.6670  -50.4744 C.ar      23 UNK        -0.0193 
     12 C12         0.7920  -19.8332  -50.3499 C.ar      23 UNK        -0.1150 
     13 C13         2.1645  -19.7653  -50.0781 C.ar      23 UNK        -0.0193 
     14 C14         2.7724  -18.5111  -49.9668 C.ar      23 UNK        -0.1150 
     15 C15         3.0331  -21.0150  -49.9268 C.3       23 UNK        -0.0205 
     16 S16         2.1749  -22.4994  -49.3018 S.3       23 UNK        -0.2404 
     17 C17         1.5432  -21.9073  -47.6931 C.3       23 UNK        -0.0398 
     18 CA          0.7537  -22.9704  -46.8920 C.3       11 UNK         0.1400 
     19 N           0.3169  -22.4445  -45.5976 N.am      11 UNK        -0.5000 
     20 C          -0.2687  -23.1641  -44.6303 C.2       10 UNK         0.5000 
     21 O          -0.4474  -24.3795  -44.6922 O.2       10 UNK        -0.5000 
     22 CA         -0.7980  -22.3882  -43.4131 C.3       10 UNK         0.1400 
     23 CB          0.3411  -22.0712  -42.4336 C.3       10 UNK        -0.1800 
     24 N          -1.4936  -21.1571  -43.7935 N.am      10 UNK        -0.5000 
     25 C          -2.6128  -21.1189  -44.5328 C.2       9 UNK         0.5000 
     26 O          -3.2004  -22.1238  -44.9317 O.2       9 UNK        -0.5000 
     27 CA         -3.1454  -19.7300  -44.9285 C.3       9 UNK         0.1400 
     28 CB         -3.9117  -19.0853  -43.7642 C.3       9 UNK        -0.1800 
     29 N          -2.0888  -18.8261  -45.3816 N.am      9 UNK        -0.5000 
     30 C          -1.3299  -19.0196  -46.4699 C.2       8 UNK         0.5000 
     31 O          -1.4630  -19.9706  -47.2398 O.2       8 UNK        -0.5000 
     32 CA         -0.1921  -18.0089  -46.6999 C.3       8 UNK         0.1400 
     33 CB         -0.7291  -16.6998  -47.2984 C.3       8 UNK        -0.1800 
     34 N           0.5440  -17.7257  -45.4666 N.am      8 UNK        -0.5000 
     35 C           1.2593  -18.6352  -44.7885 C.2       7 UNK         0.5000 
     36 O           1.4387  -19.7907  -45.1722 O.2       7 UNK        -0.5000 
     37 CA          1.8238  -18.1952  -43.4279 C.3       7 UNK         0.1400 
     38 CB          3.1702  -17.4764  -43.6011 C.3       7 UNK        -0.1800 
     39 N           0.8854  -17.3356  -42.7042 N.am      7 UNK        -0.5000 
     40 C          -0.2384  -17.7802  -42.1205 C.2       6 UNK         0.5000 
     41 O          -0.5750  -18.9630  -42.1135 O.2       6 UNK        -0.5000 
     42 CA         -1.1667  -16.7345  -41.4705 C.3       6 UNK         0.1400 
     43 CB         -0.7538  -16.4811  -40.0134 C.3       6 UNK        -0.1800 
     44 N          -1.1940  -15.4623  -42.1909 N.am      6 UNK        -0.5000 
     45 C          -1.6065  -15.3090  -43.4565 C.2       5 UNK         0.5000 
     46 O          -2.1103  -16.2164  -44.1175 O.2       5 UNK        -0.5000 
     47 CA         -1.3693  -13.9338  -44.1139 C.3       5 UNK         0.1400 
     48 CB         -2.6582  -13.0998  -44.0950 C.3       5 UNK        -0.1800 
     49 N          -0.2815  -13.1450  -43.5234 N.am      5 UNK        -0.5000 
     50 C           0.9932  -13.5371  -43.3964 C.2       4 UNK         0.5000 
     51 O           1.3942  -14.6613  -43.7011 O.2       4 UNK        -0.5000 
     52 CA          1.9738  -12.4880  -42.8454 C.3       4 UNK         0.1400 
     53 CB          3.3213  -13.1060  -42.4304 C.3       4 UNK        -0.1800 
     54 N           2.2170  -11.4551  -43.8470 N.am      4 UNK        -0.5000 
     55 C           1.4173  -10.4120  -44.1041 C.2       3 UNK         0.5000 
     56 O           0.3792  -10.1792  -43.4828 O.2       3 UNK        -0.5000 
     57 CA          1.8328   -9.5026  -45.2705 C.3       3 UNK         0.1400 
     58 CB          3.0496   -8.6439  -44.8899 C.3       3 UNK        -0.1800 
     59 N           2.1571  -10.3087  -46.4460 N.am      3 UNK        -0.5000 
     60 C           1.3270  -10.5308  -47.4746 C.2       2 UNK         0.5000 
     61 O           0.2196  -10.0040  -47.5880 O.2       2 UNK        -0.5000 
     62 CA          1.8076  -11.5136  -48.5628 C.3       2 UNK         0.1400 
     63 CB          2.5042  -10.7576  -49.7041 C.3       2 UNK        -0.1800 
     64 N           2.7159  -12.5390  -48.0484 N.am      2 UNK        -0.5000 
     65 C           2.3597  -13.5149  -47.2014 C.2       1 UNK         0.5000 
     66 O           1.1983  -13.7073  -46.8445 O.2       1 UNK        -0.5000 
     67 C          -0.4345  -23.5613  -47.6821 C.2       11 UNK         0.5000 
     68 O          -0.3664  -24.7205  -48.0904 O.2       11 UNK        -0.5000 
     69 N          -1.5217  -22.7897  -47.8264 N.am      12 UNK        -0.5000 
     70 CA         -2.7470  -23.2099  -48.5101 C.3       12 UNK         0.1400 
     71 CB         -3.7265  -22.0290  -48.5830 C.3       12 UNK        -0.1800 
     72 C          -3.4241  -24.4451  -47.8846 C.2       12 UNK         0.5000 
     73 O          -4.0283  -25.2309  -48.6140 O.2       12 UNK        -0.5000 
     74 N          -3.2968  -24.6062  -46.5623 N.am      13 UNK        -0.5000 
     75 CA         -3.7746  -25.7691  -45.8233 C.3       13 UNK         0.1400 
     76 CB         -3.9613  -25.3921  -44.3444 C.3       13 UNK        -0.1800 
     77 C          -2.8409  -26.9855  -45.9707 C.2       13 UNK         0.5000 
     78 O          -3.3040  -28.0579  -46.3611 O.2       13 UNK        -0.5000 
     79 N          -1.5600  -26.8166  -45.6143 N.am      14 UNK        -0.5000 
     80 CA         -0.6131  -27.9189  -45.4370 C.3       14 UNK         0.1400 
     81 CB          0.4328  -27.5246  -44.3818 C.3       14 UNK        -0.1800 
     82 C           0.0810  -28.3550  -46.7367 C.2       14 UNK         0.5000 
     83 O           0.1918  -29.5563  -46.9862 O.2       14 UNK        -0.5000 
     84 N           0.5616  -27.3858  -47.5245 N.am      15 UNK        -0.5000 
     85 CA          1.3224  -27.6250  -48.7551 C.3       15 UNK         0.1400 
     86 CB          2.4125  -26.5488  -48.8845 C.3       15 UNK        -0.1800 
     87 C           0.4267  -27.6402  -50.0070 C.2       15 UNK         0.5000 
     88 O           0.8429  -28.1848  -51.0304 O.2       15 UNK        -0.5000 
     89 N          -0.7731  -27.0551  -49.8838 N.am      16 UNK        -0.5000 
     90 CA         -1.7873  -26.7843  -50.9042 C.3       16 UNK         0.1400 
     91 CB         -2.1236  -28.0216  -51.7600 C.3       16 UNK        -0.1800 
     92 C          -1.4219  -25.5660  -51.7710 C.2       16 UNK         0.5000 
     93 O          -0.2563  -25.3541  -52.1118 O.2       16 UNK        -0.5000 
     94 N          -2.4483  -24.7902  -52.1250 N.am      17 UNK        -0.5000 
     95 CA         -2.3858  -23.6052  -52.9728 C.3       17 UNK         0.1400 
     96 CB         -1.8640  -22.3975  -52.1675 C.3       17 UNK        -0.1800 
     97 C          -3.7963  -23.3469  -53.5246 C.2       17 UNK         0.5000 
     98 O          -4.7407  -24.0558  -53.1595 O.2       17 UNK        -0.5000 
     99 N          -3.9296  -22.3232  -54.3759 N.am      18 UNK        -0.5000 
    100 CA        -5.1955  -21.8536  -54.9434 C.3       18 UNK         0.1400 
    101 CB        -4.8906  -20.9971  -56.1858 C.3       18 UNK        -0.1800 
    102 C         -6.0315  -21.0893  -53.8950 C.2       18 UNK         0.5000 
    103 O         -6.2040  -19.8766  -54.0072 O.2       18 UNK        -0.5000 
    104 N         -6.5174  -21.8146  -52.8794 N.am      19 UNK        -0.5000 
    105 CA        -7.1839  -21.3166  -51.6691 C.3       19 UNK         0.1400 
    106 CB        -7.4767  -22.5136  -50.7506 C.3       19 UNK        -0.1800 
    107 C         -8.4611  -20.4766  -51.8901 C.2       19 UNK         0.5000 
    108 O         -8.9002  -19.7970  -50.9617 O.2       19 UNK        -0.5000 
    109 N         -9.0259  -20.5138  -53.1049 N.am      20 UNK        -0.5000 
    110 CA       -10.0929  -19.6187  -53.5605 C.3       20 UNK         0.1400 
    111 CB       -10.6548  -20.1543  -54.8864 C.3       20 UNK        -0.1800 
    112 C         -9.6287  -18.1534  -53.7234 C.2       20 UNK         0.5000 
    113 O        -10.4636  -17.2483  -53.6854 O.2       20 UNK        -0.5000 
    114 N         -8.3176  -17.9483  -53.8950 N.am      21 UNK        -0.5000 
    115 CA        -7.6433  -16.6588  -53.9533 C.3       21 UNK         0.1400 
    116 CB        -7.3362  -16.3142  -55.4252 C.3       21 UNK        -0.1800 
    117 C         -6.4059  -16.7446  -53.0396 C.2       21 UNK         0.5000 
    118 O         -6.5612  -17.0421  -51.8537 O.2       21 UNK        -0.5000 
    119 N         -5.2082  -16.5017  -53.5904 N.am      22 UNK        -0.5000 
    120 CA        -3.9066  -16.5888  -52.9007 C.3       22 UNK         0.1400 
    121 C         -3.6614  -15.4819  -51.8246 C.2       22 UNK         0.5000 
    122 N         -4.4073  -14.3833  -51.8309 N.am      22 UNK        -0.7600 
    123 O         -2.7693  -15.5936  -50.9896 O.2       22 UNK        -0.5000 
    124 C124       -3.6061  -18.0345  -52.4010 C.3       23 UNK        -0.0398 
    125 S125       -1.8386  -18.4781  -52.4923 S.3       23 UNK        -0.2404 
    126 C126       -1.4605  -18.7411  -50.7337 C.3       23 UNK        -0.0205 
    127 H127        6.7535  -11.3096  -46.7369 H         1 UNK         0.0600 
    128 H128        7.2394  -13.0057  -46.8258 H         1 UNK         0.0600 
    129 H129        7.1412  -12.1963  -45.2588 H         1 UNK         0.0600 
    130 H130        5.5110  -14.3505  -47.2015 H         1 UNK         0.3000 
    131 H131        3.2491  -14.5539  -45.5860 H         1 UNK         0.0600 
    132 H132        4.0553  -16.5060  -46.6960 H         1 UNK         0.0800 
    133 H133        2.4582  -16.2412  -47.3106 H         1 UNK         0.0800 
    134 H134        2.9528  -15.6616  -51.0480 H         1 UNK         0.0800 
    135 H135        1.9543  -15.2075  -49.6910 H         1 UNK         0.0800 
    136 H136        0.0685  -16.5233  -50.4621 H         1 UNK         0.1150 
    137 H137        0.3051  -20.7916  -50.4572 H         1 UNK         0.1150 
    138 H138        3.8369  -18.4598  -49.7893 H         1 UNK         0.1150 
    139 H139        3.4658  -21.2512  -50.8996 H         1 UNK         0.0800 
    140 H140        3.8707  -20.8058  -49.2594 H         1 UNK         0.0800 
    141 H141        0.9213  -21.0276  -47.8564 H         1 UNK         0.0800 
    142 H142        2.3955  -21.5653  -47.1044 H         1 UNK         0.0800 
    143 H143        1.4380  -23.7953  -46.6822 H         1 UNK         0.0600 
    144 H144        0.4639  -21.4508  -45.4450 H         1 UNK         0.3000 
    145 H145       -1.5166  -23.0300  -42.8992 H         1 UNK         0.0600 
    146 H146       -0.0395  -21.6059  -41.5244 H         1 UNK         0.0600 
    147 H147        0.8657  -22.9804  -42.1372 H         1 UNK         0.0600 
    148 H148        1.0755  -21.3967  -42.8739 H         1 UNK         0.0600 
    149 H149       -1.1007  -20.2881  -43.4446 H         1 UNK         0.3000 
    150 H150       -3.8418  -19.8661  -45.7584 H         1 UNK         0.0600 
    151 H151       -4.7285  -19.7270  -43.4317 H         1 UNK         0.0600 
    152 H152       -4.3467  -18.1303  -44.0596 H         1 UNK         0.0600 
    153 H153       -3.2644  -18.9058  -42.9058 H         1 UNK         0.0600 
    154 H154       -1.9465  -17.9827  -44.8323 H         1 UNK         0.3000 
    155 H155        0.5043  -18.4504  -47.4159 H         1 UNK         0.0600 
    156 H156       -1.3616  -16.1563  -46.5990 H         1 UNK         0.0600 
    157 H157        0.0834  -16.0393  -47.5971 H         1 UNK         0.0600 
    158 H158       -1.3290  -16.8913  -48.1872 H         1 UNK         0.0600 
    159 H159        0.4313  -16.8055  -45.0652 H         1 UNK         0.3000 
    160 H160        1.9985  -19.0921  -42.8302 H         1 UNK         0.0600 
    161 H161        3.9029  -18.1336  -44.0709 H         1 UNK         0.0600 
    162 H162        3.0803  -16.5899  -44.2275 H         1 UNK         0.0600 
    163 H163        3.5793  -17.1665  -42.6394 H         1 UNK         0.0600 
    164 H164        1.0633  -16.3369  -42.7504 H         1 UNK         0.3000 
    165 H165       -2.1795  -17.1421  -41.4737 H         1 UNK         0.0600 
    166 H166       -1.4500  -15.8044  -39.5177 H         1 UNK         0.0600 
    167 H167       -0.7448  -17.4112  -39.4434 H         1 UNK         0.0600 
    168 H168        0.2442  -16.0457  -39.9472 H         1 UNK         0.0600 
    169 H169       -0.7933  -14.6640  -41.7219 H         1 UNK         0.3000 
    170 H170       -1.0993  -14.1203  -45.1551 H         1 UNK         0.0600 
    171 H171       -3.4836  -13.6440  -44.5561 H         1 UNK         0.0600 
    172 H172       -2.9580  -12.8473  -43.0771 H         1 UNK         0.0600 
    173 H173       -2.5339  -12.1696  -44.6500 H         1 UNK         0.0600 
    174 H174       -0.4980  -12.1837  -43.2887 H         1 UNK         0.3000 
    175 H175        1.5247  -12.0367  -41.9583 H         1 UNK         0.0600 
    176 H176        3.8314  -13.5729  -43.2737 H         1 UNK         0.0600 
    177 H177        3.9887  -12.3513  -42.0144 H         1 UNK         0.0600 
    178 H178        3.1805  -13.8729  -41.6677 H         1 UNK         0.0600 
    179 H179        3.0435  -11.5907  -44.4262 H         1 UNK         0.3000 
    180 H180        1.0011   -8.8287  -45.4866 H         1 UNK         0.0600 
    181 H181        3.9265   -9.2540  -44.6695 H         1 UNK         0.0600 
    182 H182        2.8392   -8.0389  -44.0071 H         1 UNK         0.0600 
    183 H183        3.3140   -7.9605  -45.6970 H         1 UNK         0.0600 
    184 H184        3.0289  -10.8245  -46.4054 H         1 UNK         0.3000 
    185 H185        0.9264  -12.0135  -48.9706 H         1 UNK         0.0600 
    186 H186        2.7854  -11.4340  -50.5115 H         1 UNK         0.0600 
    187 H187        1.8445  -10.0006  -50.1304 H         1 UNK         0.0600 
    188 H188        3.4064  -10.2505  -49.3596 H         1 UNK         0.0600 
    189 H189        3.6898  -12.4574  -48.3011 H         1 UNK         0.3000 
    190 H190       -1.5051  -21.8359  -47.4719 H         1 UNK         0.3000 
    191 H191       -2.4665  -23.4845  -49.5271 H         1 UNK         0.0600 
    192 H192       -4.0296  -21.6991  -47.5891 H         1 UNK         0.0600 
    193 H193       -4.6293  -22.3023  -49.1297 H         1 UNK         0.0600 
    194 H194       -3.2820  -21.1766  -49.0956 H         1 UNK         0.0600 
    195 H195       -2.8452  -23.8740  -46.0256 H         1 UNK         0.3000 
    196 H196       -4.7538  -26.0522  -46.2156 H         1 UNK         0.0600 
    197 H197       -4.3176  -26.2447  -43.7650 H         1 UNK         0.0600 
    198 H198       -4.6951  -24.5935  -44.2337 H         1 UNK         0.0600 
    199 H199       -3.0307  -25.0509  -43.8902 H         1 UNK         0.0600 
    200 H200       -1.2403  -25.8954  -45.3195 H         1 UNK         0.3000 
    201 H201       -1.1545  -28.7840  -45.0474 H         1 UNK         0.0600 
    202 H202       -0.0411  -27.2617  -43.4359 H         1 UNK         0.0600 
    203 H203        1.0310  -26.6714  -44.7040 H         1 UNK         0.0600 
    204 H204        1.1187  -28.3494  -44.1845 H         1 UNK         0.0600 
    205 H205        0.3607  -26.4164  -47.3032 H         1 UNK         0.3000 
    206 H206        1.8213  -28.5946  -48.6968 H         1 UNK         0.0600 
    207 H207        3.0627  -26.5361  -48.0097 H         1 UNK         0.0600 
    208 H208        3.0417  -26.7353  -49.7556 H         1 UNK         0.0600 
    209 H209        1.9855  -25.5530  -49.0007 H         1 UNK         0.0600 
    210 H210       -0.9270  -26.5701  -49.0079 H         1 UNK         0.3000 
    211 H211       -2.6873  -26.5342  -50.3446 H         1 UNK         0.0600 
    212 H212       -1.3175  -28.2770  -52.4480 H         1 UNK         0.0600 
    213 H213       -3.0130  -27.8402  -52.3644 H         1 UNK         0.0600 
    214 H214       -2.3263  -28.8923  -51.1363 H         1 UNK         0.0600 
    215 H215       -3.3951  -25.0537  -51.8766 H         1 UNK         0.3000 
    216 H216       -1.7196  -23.8045  -53.8146 H         1 UNK         0.0600 
    217 H217       -1.6577  -21.5512  -52.8227 H         1 UNK         0.0600 
    218 H218       -0.9346  -22.6296  -51.6471 H         1 UNK         0.0600 
    219 H219       -2.5895  -22.0634  -51.4259 H         1 UNK         0.0600 
    220 H220       -3.1137  -21.7743  -54.6055 H         1 UNK         0.3000 
    221 H221       -5.7810  -22.7164  -55.2680 H         1 UNK         0.0600 
    222 H222       -4.2850  -20.1245  -55.9367 H         1 UNK         0.0600 
    223 H223       -4.3541  -21.5734  -56.9398 H         1 UNK         0.0600 
    224 H224       -5.8108  -20.6371  -56.6479 H         1 UNK         0.0600 
    225 H225       -6.2688  -22.7988  -52.8718 H         1 UNK         0.3000 
    226 H226       -6.4694  -20.6662  -51.1604 H         1 UNK         0.0600 
    227 H227       -6.5662  -23.0650  -50.5150 H         1 UNK         0.0600 
    228 H228       -7.9110  -22.1872  -49.8046 H         1 UNK         0.0600 
    229 H229       -8.1786  -23.2088  -51.2126 H         1 UNK         0.0600 
    230 H230       -8.6019  -21.1060  -53.8033 H         1 UNK         0.3000 
    231 H231      -10.8927  -19.6317  -52.8172 H         1 UNK         0.0600 
    232 H232      -11.4740  -19.5292  -55.2443 H         1 UNK         0.0600 
    233 H233      -11.0460  -21.1652  -54.7702 H         1 UNK         0.0600 
    234 H234       -9.8928  -20.1752  -55.6667 H         1 UNK         0.0600 
    235 H235       -7.6890  -18.7490  -53.8774 H         1 UNK         0.3000 
    236 H236       -8.2838  -15.8778  -53.5386 H         1 UNK         0.0600 
    237 H237       -8.2555  -16.2569  -56.0083 H         1 UNK         0.0600 
    238 H238       -6.8436  -15.3451  -55.5129 H         1 UNK         0.0600 
    239 H239       -6.6983  -17.0653  -55.8935 H         1 UNK         0.0600 
    240 H240       -5.1701  -16.2624  -54.5707 H         1 UNK         0.3000 
    241 H241       -3.1837  -16.3612  -53.6846 H         1 UNK         0.0600 
    242 H242       -4.2381  -13.6685  -51.1409 H         1 UNK         0.3800 
    243 H243       -5.1381  -14.2605  -52.5128 H         1 UNK         0.3800 
    244 H244       -4.0032  -18.1957  -51.3975 H         1 UNK         0.0800 
    245 H245       -4.1167  -18.7582  -53.0340 H         1 UNK         0.0800 
    246 H246       -1.9678  -17.9895  -50.1294 H         1 UNK         0.0800 
    247 H247       -1.8573  -19.7064  -50.4175 H         1 UNK         0.0800 
@<TRIPOS>BOND
     1    1    2 1    
     2    1  127 1    
     3    1  128 1    
     4    1  129 1    
     5    2    3 2    
     6    2    4 am   BACKBONE|DICT|INTERRES
     7    4    5 1    
     8    4  130 1    
     9    5    6 1    
    10    5   65 1    
    11    5  131 1    
    12    6    7 1    
    13    6  132 1    
    14    6  133 1    
    15    7    8 1    
    16    8    9 1    
    17    8  134 1    
    18    8  135 1    
    19    9   10 ar   
    20    9   14 ar   
    21   10   11 ar   
    22   10  136 1    
    23   11   12 ar   
    24   11  126 1    
    25   12   13 ar   
    26   12  137 1    
    27   13   14 ar   
    28   13   15 1    
    29   14  138 1    
    30   15   16 1    
    31   15  139 1    
    32   15  140 1    
    33   16   17 1    
    34   17   18 1    
    35   17  141 1    
    36   17  142 1    
    37   18   19 1    
    38   18   67 1    
    39   18  143 1    
    40   19   20 am   BACKBONE|DICT|INTERRES
    41   19  144 1    
    42   20   21 2    
    43   20   22 1    
    44   22   23 1    
    45   22   24 1    
    46   22  145 1    
    47   23  146 1    
    48   23  147 1    
    49   23  148 1    
    50   24   25 am   BACKBONE|DICT|INTERRES
    51   24  149 1    
    52   25   26 2    
    53   25   27 1    
    54   27   28 1    
    55   27   29 1    
    56   27  150 1    
    57   28  151 1    
    58   28  152 1    
    59   28  153 1    
    60   29   30 am   BACKBONE|DICT|INTERRES
    61   29  154 1    
    62   30   31 2    
    63   30   32 1    
    64   32   33 1    
    65   32   34 1    
    66   32  155 1    
    67   33  156 1    
    68   33  157 1    
    69   33  158 1    
    70   34   35 am   BACKBONE|DICT|INTERRES
    71   34  159 1    
    72   35   36 2    
    73   35   37 1    
    74   37   38 1    
    75   37   39 1    
    76   37  160 1    
    77   38  161 1    
    78   38  162 1    
    79   38  163 1    
    80   39   40 am   BACKBONE|DICT|INTERRES
    81   39  164 1    
    82   40   41 2    
    83   40   42 1    
    84   42   43 1    
    85   42   44 1    
    86   42  165 1    
    87   43  166 1    
    88   43  167 1    
    89   43  168 1    
    90   44   45 am   BACKBONE|DICT|INTERRES
    91   44  169 1    
    92   45   46 2    
    93   45   47 1    
    94   47   48 1    
    95   47   49 1    
    96   47  170 1    
    97   48  171 1    
    98   48  172 1    
    99   48  173 1    
   100   49   50 am   BACKBONE|DICT|INTERRES
   101   49  174 1    
   102   50   51 2    
   103   50   52 1    
   104   52   53 1    
   105   52   54 1    
   106   52  175 1    
   107   53  176 1    
   108   53  177 1    
   109   53  178 1    
   110   54   55 am   BACKBONE|DICT|INTERRES
   111   54  179 1    
   112   55   56 2    
   113   55   57 1    
   114   57   58 1    
   115   57   59 1    
   116   57  180 1    
   117   58  181 1    
   118   58  182 1    
   119   58  183 1    
   120   59   60 am   BACKBONE|DICT|INTERRES
   121   59  184 1    
   122   60   61 2    
   123   60   62 1    
   124   62   63 1    
   125   62   64 1    
   126   62  185 1    
   127   63  186 1    
   128   63  187 1    
   129   63  188 1    
   130   64   65 am   BACKBONE|DICT|INTERRES
   131   64  189 1    
   132   65   66 2    
   133   67   68 2    
   134   67   69 am   BACKBONE|DICT|INTERRES
   135   69   70 1    
   136   69  190 1    
   137   70   71 1    
   138   70   72 1    
   139   70  191 1    
   140   71  192 1    
   141   71  193 1    
   142   71  194 1    
   143   72   73 2    
   144   72   74 am   BACKBONE|DICT|INTERRES
   145   74   75 1    
   146   74  195 1    
   147   75   76 1    
   148   75   77 1    
   149   75  196 1    
   150   76  197 1    
   151   76  198 1    
   152   76  199 1    
   153   77   78 2    
   154   77   79 am   BACKBONE|DICT|INTERRES
   155   79   80 1    
   156   79  200 1    
   157   80   81 1    
   158   80   82 1    
   159   80  201 1    
   160   81  202 1    
   161   81  203 1    
   162   81  204 1    
   163   82   83 2    
   164   82   84 am   BACKBONE|DICT|INTERRES
   165   84   85 1    
   166   84  205 1    
   167   85   86 1    
   168   85   87 1    
   169   85  206 1    
   170   86  207 1    
   171   86  208 1    
   172   86  209 1    
   173   87   88 2    
   174   87   89 am   BACKBONE|DICT|INTERRES
   175   89   90 1    
   176   89  210 1    
   177   90   91 1    
   178   90   92 1    
   179   90  211 1    
   180   91  212 1    
   181   91  213 1    
   182   91  214 1    
   183   92   93 2    
   184   92   94 am   BACKBONE|DICT|INTERRES
   185   94   95 1    
   186   94  215 1    
   187   95   96 1    
   188   95   97 1    
   189   95  216 1    
   190   96  217 1    
   191   96  218 1    
   192   96  219 1    
   193   97   98 2    
   194   97   99 am   BACKBONE|DICT|INTERRES
   195   99  100 1    
   196   99  220 1    
   197  100  101 1    
   198  100  102 1    
   199  100  221 1    
   200  101  222 1    
   201  101  223 1    
   202  101  224 1    
   203  102  103 2    
   204  102  104 am   BACKBONE|DICT|INTERRES
   205  104  105 1    
   206  104  225 1    
   207  105  106 1    
   208  105  107 1    
   209  105  226 1    
   210  106  227 1    
   211  106  228 1    
   212  106  229 1    
   213  107  108 2    
   214  107  109 am   BACKBONE|DICT|INTERRES
   215  109  110 1    
   216  109  230 1    
   217  110  111 1    
   218  110  112 1    
   219  110  231 1    
   220  111  232 1    
   221  111  233 1    
   222  111  234 1    
   223  112  113 2    
   224  112  114 am   BACKBONE|DICT|INTERRES
   225  114  115 1    
   226  114  235 1    
   227  115  116 1    
   228  115  117 1    
   229  115  236 1    
   230  116  237 1    
   231  116  238 1    
   232  116  239 1    
   233  117  118 2    
   234  117  119 am   BACKBONE|DICT|INTERRES
   235  119  120 1    
   236  119  240 1    
   237  120  121 1    
   238  120  124 1    
   239  120  241 1    
   240  121  122 am   BACKBONE|DICT|INTERRES
   241  121  123 2    
   242  122  242 1    
   243  122  243 1    
   244  124  125 1    
   245  124  244 1    
   246  124  245 1    
   247  125  126 1    
   248  126  246 1    
   249  126  247 1    
@<TRIPOS>SUBSTRUCTURE
     1 UNK         1 GROUP             0       ****    0 ROOT    
