@<TRIPOS>MOLECULE
3R540
247   249    1
SMALL
USER_CHARGES


@<TRIPOS>ATOM
      1 CA          4.4144  -10.4454  -49.1004 C.3       0 UNK        -0.1800 
      2 C           3.4521  -11.4543  -48.4923 C.2       0 UNK         0.5000 
      3 O           3.4719  -11.6671  -47.2813 O.2       0 UNK        -0.5000 
      4 N           2.5932  -12.0654  -49.3181 N.am      1 UNK        -0.5000 
      5 CA          1.6045  -13.0738  -48.9110 C.3       1 UNK         0.1400 
      6 C6          0.9572  -13.7440  -50.1514 C.3       23 UNK        -0.0398 
      7 S7          0.4004  -15.4557  -49.8649 S.3       23 UNK        -0.2404 
      8 C8          1.9866  -16.3327  -49.6774 C.3       23 UNK        -0.0205 
      9 C9          2.0317  -17.5902  -50.5284 C.ar      23 UNK        -0.0193 
     10 C10         2.3862  -17.5017  -51.8756 C.ar      23 UNK        -0.1150 
     11 C11         2.4417  -18.6470  -52.6726 C.ar      23 UNK        -0.0193 
     12 C12         2.1545  -19.8930  -52.1090 C.ar      23 UNK        -0.1150 
     13 C13         1.7977  -19.9974  -50.7603 C.ar      23 UNK        -0.0193 
     14 C14         1.7317  -18.8393  -49.9767 C.ar      23 UNK        -0.1150 
     15 C15         1.4215  -21.3538  -50.1789 C.3       23 UNK        -0.0205 
     16 S16         2.6079  -21.9565  -48.9291 S.3       23 UNK        -0.2404 
     17 C17         1.7633  -21.5132  -47.3683 C.3       23 UNK        -0.0398 
     18 CA          0.9290  -22.6591  -46.7364 C.3       11 UNK         0.1400 
     19 N           0.4130  -22.2819  -45.4162 N.am      11 UNK        -0.5000 
     20 C          -0.2772  -23.0864  -44.5932 C.2       10 UNK         0.5000 
     21 O          -0.4988  -24.2751  -44.8215 O.2       10 UNK        -0.5000 
     22 CA         -0.8741  -22.4410  -43.3294 C.3       10 UNK         0.1400 
     23 CB          0.1968  -22.2689  -42.2425 C.3       10 UNK        -0.1800 
     24 N          -1.5171  -21.1548  -43.6058 N.am      10 UNK        -0.5000 
     25 C          -2.5781  -20.9951  -44.4115 C.2       9 UNK         0.5000 
     26 O          -3.1617  -21.9256  -44.9655 O.2       9 UNK        -0.5000 
     27 CA         -3.0291  -19.5509  -44.6949 C.3       9 UNK         0.1400 
     28 CB         -3.8749  -18.9984  -43.5384 C.3       9 UNK        -0.1800 
     29 N          -1.9020  -18.6561  -44.9542 N.am      9 UNK        -0.5000 
     30 C          -1.0435  -18.7893  -45.9744 C.2       8 UNK         0.5000 
     31 O          -1.1410  -19.6511  -46.8458 O.2       8 UNK        -0.5000 
     32 CA          0.1618  -17.8381  -45.9907 C.3       8 UNK         0.1400 
     33 CB         -0.2289  -16.4730  -46.5662 C.3       8 UNK        -0.1800 
     34 N           0.7507  -17.6826  -44.6611 N.am      8 UNK        -0.5000 
     35 C           1.4023  -18.6595  -44.0133 C.2       7 UNK         0.5000 
     36 O           1.6401  -19.7616  -44.5073 O.2       7 UNK        -0.5000 
     37 CA          1.8085  -18.3806  -42.5549 C.3       7 UNK         0.1400 
     38 CB          3.2056  -17.7487  -42.4798 C.3       7 UNK        -0.1800 
     39 N           0.8396  -17.5263  -41.8670 N.am      7 UNK        -0.5000 
     40 C          -0.3759  -17.9418  -41.4819 C.2       6 UNK         0.5000 
     41 O          -0.7768  -19.0959  -41.6306 O.2       6 UNK        -0.5000 
     42 CA         -1.3215  -16.8849  -40.8788 C.3       6 UNK         0.1400 
     43 CB         -1.1007  -16.7642  -39.3641 C.3       6 UNK        -0.1800 
     44 N          -1.1763  -15.5653  -41.4957 N.am      6 UNK        -0.5000 
     45 C          -1.4093  -15.2955  -42.7873 C.2       5 UNK         0.5000 
     46 O          -1.8287  -16.1339  -43.5836 O.2       5 UNK        -0.5000 
     47 CA         -1.0945  -13.8701  -43.2848 C.3       5 UNK         0.1400 
     48 CB         -1.2669  -12.7962  -42.1896 C.3       5 UNK        -0.1800 
     49 N           0.2333  -13.7452  -43.8981 N.am      5 UNK        -0.5000 
     50 C           1.4204  -14.0754  -43.3639 C.2       4 UNK         0.5000 
     51 O           1.5606  -14.7110  -42.3185 O.2       4 UNK        -0.5000 
     52 CA          2.6726  -13.5591  -44.0972 C.3       4 UNK         0.1400 
     53 CB          3.0707  -14.4935  -45.2496 C.3       4 UNK        -0.1800 
     54 N           2.5050  -12.1975  -44.6090 N.am      4 UNK        -0.5000 
     55 C           2.2961  -11.1061  -43.8565 C.2       3 UNK         0.5000 
     56 O           2.2930  -11.1108  -42.6251 O.2       3 UNK        -0.5000 
     57 CA          2.0248   -9.7895  -44.6058 C.3       3 UNK         0.1400 
     58 CB          3.3388   -9.0713  -44.9512 C.3       3 UNK        -0.1800 
     59 N           1.2495  -10.0104  -45.8273 N.am      3 UNK        -0.5000 
     60 C          -0.0808  -10.1760  -45.8582 C.2       2 UNK         0.5000 
     61 O          -0.8023  -10.0949  -44.8642 O.2       2 UNK        -0.5000 
     62 CA         -0.7172  -10.4943  -47.2264 C.3       2 UNK         0.1400 
     63 CB         -1.1623   -9.2012  -47.9261 C.3       2 UNK        -0.1800 
     64 N           0.1727  -11.2393  -48.1193 N.am      2 UNK        -0.5000 
     65 C           0.5571  -12.5087  -47.9217 C.2       1 UNK         0.5000 
     66 O           0.1747  -13.1895  -46.9688 O.2       1 UNK        -0.5000 
     67 C          -0.2099  -23.1271  -47.6672 C.2       11 UNK         0.5000 
     68 O          -0.1207  -24.2118  -48.2412 O.2       11 UNK        -0.5000 
     69 N          -1.2688  -22.3131  -47.7782 N.am      12 UNK        -0.5000 
     70 CA         -2.4362  -22.5731  -48.6180 C.3       12 UNK         0.1400 
     71 CB         -3.3582  -21.3481  -48.5986 C.3       12 UNK        -0.1800 
     72 C          -3.2094  -23.8366  -48.2068 C.2       12 UNK         0.5000 
     73 O          -3.6835  -24.5606  -49.0835 O.2       12 UNK        -0.5000 
     74 N          -3.3085  -24.0839  -46.8942 N.am      13 UNK        -0.5000 
     75 CA         -3.8970  -25.2886  -46.3150 C.3       13 UNK         0.1400 
     76 CB         -4.1232  -25.0829  -44.8098 C.3       13 UNK        -0.1800 
     77 C          -3.0383  -26.5379  -46.5750 C.2       13 UNK         0.5000 
     78 O          -3.5821  -27.5648  -46.9801 O.2       13 UNK        -0.5000 
     79 N          -1.7161  -26.4248  -46.3773 N.am      14 UNK        -0.5000 
     80 CA         -0.7409  -27.4924  -46.6231 C.3       14 UNK         0.1400 
     81 CB          0.6351  -27.0689  -46.0876 C.3       14 UNK        -0.1800 
     82 C          -0.6472  -27.8915  -48.1075 C.2       14 UNK         0.5000 
     83 O          -0.5299  -29.0783  -48.4145 O.2       14 UNK        -0.5000 
     84 N          -0.7421  -26.8969  -48.9993 N.am      15 UNK        -0.5000 
     85 CA         -0.8156  -27.0701  -50.4507 C.3       15 UNK         0.1400 
     86 CB         -0.5267  -25.7160  -51.1200 C.3       15 UNK        -0.1800 
     87 C          -2.1734  -27.6190  -50.9362 C.2       15 UNK         0.5000 
     88 O          -2.2658  -28.0474  -52.0871 O.2       15 UNK        -0.5000 
     89 N          -3.1994  -27.5650  -50.0713 N.am      16 UNK        -0.5000 
     90 CA         -4.6096  -27.8828  -50.3266 C.3       16 UNK         0.1400 
     91 CB         -4.7930  -29.3839  -50.6308 C.3       16 UNK        -0.1800 
     92 C          -5.2445  -26.9635  -51.3934 C.2       16 UNK         0.5000 
     93 O          -6.1555  -27.3792  -52.1118 O.2       16 UNK        -0.5000 
     94 N          -4.7397  -25.7273  -51.4754 N.am      17 UNK        -0.5000 
     95 CA         -5.1733  -24.6965  -52.4115 C.3       17 UNK         0.1400 
     96 CB         -3.9551  -23.8468  -52.8111 C.3       17 UNK        -0.1800 
     97 C          -6.2640  -23.8093  -51.7944 C.2       17 UNK         0.5000 
     98 O          -7.2235  -23.4650  -52.4861 O.2       17 UNK        -0.5000 
     99 N          -6.0878  -23.4621  -50.5082 N.am      18 UNK        -0.5000 
    100 CA        -6.8874  -22.5047  -49.7332 C.3       18 UNK         0.1400 
    101 CB        -8.2922  -23.0839  -49.4567 C.3       18 UNK        -0.1800 
    102 C         -6.9177  -21.0960  -50.3791 C.2       18 UNK         0.5000 
    103 O         -6.0195  -20.7606  -51.1557 O.2       18 UNK        -0.5000 
    104 N         -7.9375  -20.2945  -50.0372 N.am      19 UNK        -0.5000 
    105 CA        -8.2728  -18.9876  -50.6153 C.3       19 UNK         0.1400 
    106 CB        -8.9510  -19.1958  -51.9887 C.3       19 UNK        -0.1800 
    107 C         -7.0801  -18.0031  -50.6473 C.2       19 UNK         0.5000 
    108 O         -6.5772  -17.6305  -49.5864 O.2       19 UNK        -0.5000 
    109 N         -6.6507  -17.6097  -51.8532 N.am      20 UNK        -0.5000 
    110 CA        -5.5556  -16.6753  -52.1187 C.3       20 UNK         0.1400 
    111 CB        -5.9369  -15.8213  -53.3416 C.3       20 UNK        -0.1800 
    112 C         -4.1941  -17.3772  -52.3189 C.2       20 UNK         0.5000 
    113 O         -3.2936  -16.7826  -52.9161 O.2       20 UNK        -0.5000 
    114 N         -4.0602  -18.6247  -51.8431 N.am      21 UNK        -0.5000 
    115 CA        -2.8768  -19.4809  -51.9482 C.3       21 UNK         0.1400 
    116 CB        -1.6981  -18.8910  -51.1416 C.3       21 UNK        -0.1800 
    117 C         -2.5540  -19.7841  -53.4249 C.2       21 UNK         0.5000 
    118 O         -3.3965  -20.3727  -54.1048 O.2       21 UNK        -0.5000 
    119 N         -1.3735  -19.3734  -53.9075 N.am      22 UNK        -0.5000 
    120 CA        -0.9989  -19.4561  -55.3280 C.3       22 UNK         0.1400 
    121 C         -1.6962  -18.4097  -56.2526 C.2       22 UNK         0.5000 
    122 N         -2.4276  -17.4294  -55.7323 N.am      22 UNK        -0.7600 
    123 O         -1.5828  -18.4997  -57.4723 O.2       22 UNK        -0.5000 
    124 C124        0.5391  -19.5018  -55.5265 C.3       23 UNK        -0.0398 
    125 S125        1.4127  -17.9421  -55.1406 S.3       23 UNK        -0.2404 
    126 C126        2.8172  -18.5233  -54.1395 C.3       23 UNK        -0.0205 
    127 H127        4.2691  -10.3431  -50.1760 H         1 UNK         0.0600 
    128 H128        4.2699   -9.4672  -48.6417 H         1 UNK         0.0600 
    129 H129        5.4436  -10.7573  -48.9232 H         1 UNK         0.0600 
    130 H130        2.6196  -11.8430  -50.3032 H         1 UNK         0.3000 
    131 H131        2.1663  -13.8344  -48.3662 H         1 UNK         0.0600 
    132 H132        1.6688  -13.7837  -50.9777 H         1 UNK         0.0800 
    133 H133        0.1157  -13.1570  -50.5239 H         1 UNK         0.0800 
    134 H134        2.1366  -16.5806  -48.6259 H         1 UNK         0.0800 
    135 H135        2.8187  -15.6841  -49.9552 H         1 UNK         0.0800 
    136 H136        2.6094  -16.5365  -52.3086 H         1 UNK         0.1150 
    137 H137        2.1955  -20.7801  -52.7252 H         1 UNK         0.1150 
    138 H138        1.4397  -18.9054  -48.9401 H         1 UNK         0.1150 
    139 H139        0.4178  -21.2873  -49.7610 H         1 UNK         0.0800 
    140 H140        1.3607  -22.1014  -50.9712 H         1 UNK         0.0800 
    141 H141        1.1476  -20.6298  -47.5241 H         1 UNK         0.0800 
    142 H142        2.5395  -21.2067  -46.6661 H         1 UNK         0.0800 
    143 H143        1.5935  -23.5120  -46.5838 H         1 UNK         0.0600 
    144 H144        0.5879  -21.3256  -45.1237 H         1 UNK         0.3000 
    145 H145       -1.6406  -23.1163  -42.9437 H         1 UNK         0.0600 
    146 H146       -0.2344  -21.8717  -41.3235 H         1 UNK         0.0600 
    147 H147        0.6602  -23.2254  -41.9976 H         1 UNK         0.0600 
    148 H148        0.9899  -21.5925  -42.5599 H         1 UNK         0.0600 
    149 H149       -1.1330  -20.3419  -43.1345 H         1 UNK         0.3000 
    150 H150       -3.6507  -19.5668  -45.5924 H         1 UNK         0.0600 
    151 H151       -4.7509  -19.6242  -43.3637 H         1 UNK         0.0600 
    152 H152       -4.2312  -17.9915  -43.7567 H         1 UNK         0.0600 
    153 H153       -3.3101  -18.9581  -42.6074 H         1 UNK         0.0600 
    154 H154       -1.7836  -17.8705  -44.3199 H         1 UNK         0.3000 
    155 H155        0.9162  -18.2730  -46.6487 H         1 UNK         0.0600 
    156 H156        0.6528  -15.8713  -46.7748 H         1 UNK         0.0600 
    157 H157       -0.7723  -16.5926  -47.5033 H         1 UNK         0.0600 
    158 H158       -0.8705  -15.9011  -45.8995 H         1 UNK         0.0600 
    159 H159        0.5368  -16.8307  -44.1646 H         1 UNK         0.3000 
    160 H160        1.8504  -19.3399  -42.0352 H         1 UNK         0.0600 
    161 H161        3.5280  -17.6331  -41.4449 H         1 UNK         0.0600 
    162 H162        3.2333  -16.7660  -42.9477 H         1 UNK         0.0600 
    163 H163        3.9445  -18.3738  -42.9827 H         1 UNK         0.0600 
    164 H164        1.0837  -16.5453  -41.7620 H         1 UNK         0.3000 
    165 H165       -2.3459  -17.2218  -41.0491 H         1 UNK         0.0600 
    166 H166       -1.8197  -16.0796  -38.9139 H         1 UNK         0.0600 
    167 H167       -1.2226  -17.7310  -38.8738 H         1 UNK         0.0600 
    168 H168       -0.0988  -16.4014  -39.1309 H         1 UNK         0.0600 
    169 H169       -0.7884  -14.8339  -40.9178 H         1 UNK         0.3000 
    170 H170       -1.8178  -13.6546  -44.0728 H         1 UNK         0.0600 
    171 H171       -2.2456  -12.8707  -41.7139 H         1 UNK         0.0600 
    172 H172       -0.5088  -12.8736  -41.4096 H         1 UNK         0.0600 
    173 H173       -1.1923  -11.7955  -42.6158 H         1 UNK         0.0600 
    174 H174        0.2448  -13.3004  -44.8097 H         1 UNK         0.3000 
    175 H175        3.4917  -13.5443  -43.3754 H         1 UNK         0.0600 
    176 H176        2.3280  -14.4869  -46.0443 H         1 UNK         0.0600 
    177 H177        4.0232  -14.1926  -45.6861 H         1 UNK         0.0600 
    178 H178        3.1786  -15.5237  -44.9114 H         1 UNK         0.0600 
    179 H179        2.5834  -12.0781  -45.6144 H         1 UNK         0.3000 
    180 H180        1.4550   -9.1381  -43.9395 H         1 UNK         0.0600 
    181 H181        3.9738   -9.6719  -45.6026 H         1 UNK         0.0600 
    182 H182        3.9110   -8.8546  -44.0483 H         1 UNK         0.0600 
    183 H183        3.1491   -8.1213  -45.4510 H         1 UNK         0.0600 
    184 H184        1.7764  -10.1396  -46.6790 H         1 UNK         0.3000 
    185 H185       -1.6035  -11.1056  -47.0430 H         1 UNK         0.0600 
    186 H186       -1.8484   -8.6330  -47.2964 H         1 UNK         0.0600 
    187 H187       -0.3145   -8.5542  -48.1549 H         1 UNK         0.0600 
    188 H188       -1.6831   -9.4165  -48.8593 H         1 UNK         0.0600 
    189 H189        0.5484  -10.7375  -48.9108 H         1 UNK         0.3000 
    190 H190       -1.2572  -21.4193  -47.2899 H         1 UNK         0.3000 
    191 H191       -2.0795  -22.7169  -49.6399 H         1 UNK         0.0600 
    192 H192       -3.8144  -21.1981  -47.6196 H         1 UNK         0.0600 
    193 H193       -4.1584  -21.4575  -49.3272 H         1 UNK         0.0600 
    194 H194       -2.8156  -20.4395  -48.8526 H         1 UNK         0.0600 
    195 H195       -2.9570  -23.3908  -46.2395 H         1 UNK         0.3000 
    196 H196       -4.8702  -25.4485  -46.7842 H         1 UNK         0.0600 
    197 H197       -4.5688  -25.9690  -44.3561 H         1 UNK         0.0600 
    198 H198       -4.7990  -24.2477  -44.6250 H         1 UNK         0.0600 
    199 H199       -3.1895  -24.8778  -44.2853 H         1 UNK         0.0600 
    200 H200       -1.3446  -25.5518  -46.0120 H         1 UNK         0.3000 
    201 H201       -1.0651  -28.3731  -46.0649 H         1 UNK         0.0600 
    202 H202        0.5973  -26.8751  -45.0155 H         1 UNK         0.0600 
    203 H203        0.9969  -26.1646  -46.5779 H         1 UNK         0.0600 
    204 H204        1.3770  -27.8516  -46.2506 H         1 UNK         0.0600 
    205 H205       -0.7469  -25.9383  -48.6575 H         1 UNK         0.3000 
    206 H206       -0.0431  -27.7787  -50.7557 H         1 UNK         0.0600 
    207 H207        0.4541  -25.3354  -50.8341 H         1 UNK         0.0600 
    208 H208       -0.5370  -25.8035  -52.2071 H         1 UNK         0.0600 
    209 H209       -1.2692  -24.9661  -50.8438 H         1 UNK         0.0600 
    210 H210       -3.0070  -27.2079  -49.1444 H         1 UNK         0.3000 
    211 H211       -5.1378  -27.6697  -49.3963 H         1 UNK         0.0600 
    212 H212       -4.3541  -29.6613  -51.5894 H         1 UNK         0.0600 
    213 H213       -5.8503  -29.6486  -50.6676 H         1 UNK         0.0600 
    214 H214       -4.3321  -30.0002  -49.8589 H         1 UNK         0.0600 
    215 H215       -4.0540  -25.4523  -50.7796 H         1 UNK         0.3000 
    216 H216       -5.5767  -25.1605  -53.3141 H         1 UNK         0.0600 
    217 H217       -4.2396  -23.0676  -53.5195 H         1 UNK         0.0600 
    218 H218       -3.1884  -24.4576  -53.2881 H         1 UNK         0.0600 
    219 H219       -3.5024  -23.3549  -51.9491 H         1 UNK         0.0600 
    220 H220       -5.2670  -23.8258  -50.0372 H         1 UNK         0.3000 
    221 H221       -6.3803  -22.3932  -48.7740 H         1 UNK         0.0600 
    222 H222       -8.9071  -23.1036  -50.3573 H         1 UNK         0.0600 
    223 H223       -8.2268  -24.1041  -49.0779 H         1 UNK         0.0600 
    224 H224       -8.8244  -22.5016  -48.7042 H         1 UNK         0.0600 
    225 H225       -8.5947  -20.6391  -49.3522 H         1 UNK         0.3000 
    226 H226       -9.0123  -18.5373  -49.9514 H         1 UNK         0.0600 
    227 H227       -9.8420  -19.8160  -51.8898 H         1 UNK         0.0600 
    228 H228       -9.2723  -18.2478  -52.4225 H         1 UNK         0.0600 
    229 H229       -8.2896  -19.6886  -52.7028 H         1 UNK         0.0600 
    230 H230       -7.0976  -18.0081  -52.6665 H         1 UNK         0.3000 
    231 H231       -5.4401  -16.0029  -51.2663 H         1 UNK         0.0600 
    232 H232       -6.8924  -15.3190  -53.1896 H         1 UNK         0.0600 
    233 H233       -5.1939  -15.0451  -53.5291 H         1 UNK         0.0600 
    234 H234       -6.0152  -16.4269  -54.2453 H         1 UNK         0.0600 
    235 H235       -4.8800  -19.0813  -51.4566 H         1 UNK         0.3000 
    236 H236       -3.1472  -20.4342  -51.4924 H         1 UNK         0.0600 
    237 H237       -0.8787  -19.6049  -51.0972 H         1 UNK         0.0600 
    238 H238       -1.3112  -17.9656  -51.5699 H         1 UNK         0.0600 
    239 H239       -1.9888  -18.6718  -50.1147 H         1 UNK         0.0600 
    240 H240       -0.7406  -18.8644  -53.3072 H         1 UNK         0.3000 
    241 H241       -1.3646  -20.4202  -55.6871 H         1 UNK         0.0600 
    242 H242       -2.5448  -17.3312  -54.7294 H         1 UNK         0.3800 
    243 H243       -2.8706  -16.7676  -56.3488 H         1 UNK         0.3800 
    244 H244        0.9528  -20.3111  -54.9241 H         1 UNK         0.0800 
    245 H245        0.7713  -19.7643  -56.5599 H         1 UNK         0.0800 
    246 H246        3.1947  -19.4694  -54.5306 H         1 UNK         0.0800 
    247 H247        3.6356  -17.8089  -54.2399 H         1 UNK         0.0800 
@<TRIPOS>BOND
     1    1    2 1    
     2    1  127 1    
     3    1  128 1    
     4    1  129 1    
     5    2    3 2    
     6    2    4 am   BACKBONE|DICT|INTERRES
     7    4    5 1    
     8    4  130 1    
     9    5    6 1    
    10    5   65 1    
    11    5  131 1    
    12    6    7 1    
    13    6  132 1    
    14    6  133 1    
    15    7    8 1    
    16    8    9 1    
    17    8  134 1    
    18    8  135 1    
    19    9   10 ar   
    20    9   14 ar   
    21   10   11 ar   
    22   10  136 1    
    23   11   12 ar   
    24   11  126 1    
    25   12   13 ar   
    26   12  137 1    
    27   13   14 ar   
    28   13   15 1    
    29   14  138 1    
    30   15   16 1    
    31   15  139 1    
    32   15  140 1    
    33   16   17 1    
    34   17   18 1    
    35   17  141 1    
    36   17  142 1    
    37   18   19 1    
    38   18   67 1    
    39   18  143 1    
    40   19   20 am   BACKBONE|DICT|INTERRES
    41   19  144 1    
    42   20   21 2    
    43   20   22 1    
    44   22   23 1    
    45   22   24 1    
    46   22  145 1    
    47   23  146 1    
    48   23  147 1    
    49   23  148 1    
    50   24   25 am   BACKBONE|DICT|INTERRES
    51   24  149 1    
    52   25   26 2    
    53   25   27 1    
    54   27   28 1    
    55   27   29 1    
    56   27  150 1    
    57   28  151 1    
    58   28  152 1    
    59   28  153 1    
    60   29   30 am   BACKBONE|DICT|INTERRES
    61   29  154 1    
    62   30   31 2    
    63   30   32 1    
    64   32   33 1    
    65   32   34 1    
    66   32  155 1    
    67   33  156 1    
    68   33  157 1    
    69   33  158 1    
    70   34   35 am   BACKBONE|DICT|INTERRES
    71   34  159 1    
    72   35   36 2    
    73   35   37 1    
    74   37   38 1    
    75   37   39 1    
    76   37  160 1    
    77   38  161 1    
    78   38  162 1    
    79   38  163 1    
    80   39   40 am   BACKBONE|DICT|INTERRES
    81   39  164 1    
    82   40   41 2    
    83   40   42 1    
    84   42   43 1    
    85   42   44 1    
    86   42  165 1    
    87   43  166 1    
    88   43  167 1    
    89   43  168 1    
    90   44   45 am   BACKBONE|DICT|INTERRES
    91   44  169 1    
    92   45   46 2    
    93   45   47 1    
    94   47   48 1    
    95   47   49 1    
    96   47  170 1    
    97   48  171 1    
    98   48  172 1    
    99   48  173 1    
   100   49   50 am   BACKBONE|DICT|INTERRES
   101   49  174 1    
   102   50   51 2    
   103   50   52 1    
   104   52   53 1    
   105   52   54 1    
   106   52  175 1    
   107   53  176 1    
   108   53  177 1    
   109   53  178 1    
   110   54   55 am   BACKBONE|DICT|INTERRES
   111   54  179 1    
   112   55   56 2    
   113   55   57 1    
   114   57   58 1    
   115   57   59 1    
   116   57  180 1    
   117   58  181 1    
   118   58  182 1    
   119   58  183 1    
   120   59   60 am   BACKBONE|DICT|INTERRES
   121   59  184 1    
   122   60   61 2    
   123   60   62 1    
   124   62   63 1    
   125   62   64 1    
   126   62  185 1    
   127   63  186 1    
   128   63  187 1    
   129   63  188 1    
   130   64   65 am   BACKBONE|DICT|INTERRES
   131   64  189 1    
   132   65   66 2    
   133   67   68 2    
   134   67   69 am   BACKBONE|DICT|INTERRES
   135   69   70 1    
   136   69  190 1    
   137   70   71 1    
   138   70   72 1    
   139   70  191 1    
   140   71  192 1    
   141   71  193 1    
   142   71  194 1    
   143   72   73 2    
   144   72   74 am   BACKBONE|DICT|INTERRES
   145   74   75 1    
   146   74  195 1    
   147   75   76 1    
   148   75   77 1    
   149   75  196 1    
   150   76  197 1    
   151   76  198 1    
   152   76  199 1    
   153   77   78 2    
   154   77   79 am   BACKBONE|DICT|INTERRES
   155   79   80 1    
   156   79  200 1    
   157   80   81 1    
   158   80   82 1    
   159   80  201 1    
   160   81  202 1    
   161   81  203 1    
   162   81  204 1    
   163   82   83 2    
   164   82   84 am   BACKBONE|DICT|INTERRES
   165   84   85 1    
   166   84  205 1    
   167   85   86 1    
   168   85   87 1    
   169   85  206 1    
   170   86  207 1    
   171   86  208 1    
   172   86  209 1    
   173   87   88 2    
   174   87   89 am   BACKBONE|DICT|INTERRES
   175   89   90 1    
   176   89  210 1    
   177   90   91 1    
   178   90   92 1    
   179   90  211 1    
   180   91  212 1    
   181   91  213 1    
   182   91  214 1    
   183   92   93 2    
   184   92   94 am   BACKBONE|DICT|INTERRES
   185   94   95 1    
   186   94  215 1    
   187   95   96 1    
   188   95   97 1    
   189   95  216 1    
   190   96  217 1    
   191   96  218 1    
   192   96  219 1    
   193   97   98 2    
   194   97   99 am   BACKBONE|DICT|INTERRES
   195   99  100 1    
   196   99  220 1    
   197  100  101 1    
   198  100  102 1    
   199  100  221 1    
   200  101  222 1    
   201  101  223 1    
   202  101  224 1    
   203  102  103 2    
   204  102  104 am   BACKBONE|DICT|INTERRES
   205  104  105 1    
   206  104  225 1    
   207  105  106 1    
   208  105  107 1    
   209  105  226 1    
   210  106  227 1    
   211  106  228 1    
   212  106  229 1    
   213  107  108 2    
   214  107  109 am   BACKBONE|DICT|INTERRES
   215  109  110 1    
   216  109  230 1    
   217  110  111 1    
   218  110  112 1    
   219  110  231 1    
   220  111  232 1    
   221  111  233 1    
   222  111  234 1    
   223  112  113 2    
   224  112  114 am   BACKBONE|DICT|INTERRES
   225  114  115 1    
   226  114  235 1    
   227  115  116 1    
   228  115  117 1    
   229  115  236 1    
   230  116  237 1    
   231  116  238 1    
   232  116  239 1    
   233  117  118 2    
   234  117  119 am   BACKBONE|DICT|INTERRES
   235  119  120 1    
   236  119  240 1    
   237  120  121 1    
   238  120  124 1    
   239  120  241 1    
   240  121  122 am   BACKBONE|DICT|INTERRES
   241  121  123 2    
   242  122  242 1    
   243  122  243 1    
   244  124  125 1    
   245  124  244 1    
   246  124  245 1    
   247  125  126 1    
   248  126  246 1    
   249  126  247 1    
@<TRIPOS>SUBSTRUCTURE
     1 UNK         1 GROUP             0       ****    0 ROOT    
