@<TRIPOS>MOLECULE
3R540
247   249    1
SMALL
USER_CHARGES


@<TRIPOS>ATOM
      1 CA          3.0447  -13.8798  -46.8505 C.3       0 UNK        -0.1800 
      2 C           2.0985  -12.9751  -46.0759 C.2       0 UNK         0.5000 
      3 O           2.5502  -12.1128  -45.3229 O.2       0 UNK        -0.5000 
      4 N           0.7841  -13.1387  -46.2724 N.am      1 UNK        -0.5000 
      5 CA         -0.2655  -12.3194  -45.6495 C.3       1 UNK         0.1400 
      6 C6         -1.6792  -12.9420  -45.7720 C.3       23 UNK        -0.0398 
      7 S7         -2.0807  -13.6110  -47.4270 S.3       23 UNK        -0.2404 
      8 C8         -2.6245  -15.2820  -46.9586 C.3       23 UNK        -0.0205 
      9 C9         -2.8562  -16.1774  -48.1633 C.ar      23 UNK        -0.0193 
     10 C10        -4.1526  -16.4063  -48.6334 C.ar      23 UNK        -0.1150 
     11 C11        -4.3800  -17.3163  -49.6701 C.ar      23 UNK        -0.0193 
     12 C12        -3.2961  -17.9773  -50.2536 C.ar      23 UNK        -0.1150 
     13 C13        -1.9953  -17.7584  -49.7899 C.ar      23 UNK        -0.0193 
     14 C14        -1.7807  -16.8459  -48.7548 C.ar      23 UNK        -0.1150 
     15 C15        -0.8356  -18.5739  -50.3462 C.3       23 UNK        -0.0205 
     16 S16        -0.3722  -19.9389  -49.2239 S.3       23 UNK        -0.2404 
     17 C17        -1.9954  -20.7331  -48.9919 C.3       23 UNK        -0.0398 
     18 CA         -1.9483  -22.1136  -48.3067 C.3       11 UNK         0.1400 
     19 N          -1.4425  -22.0423  -46.9306 N.am      11 UNK        -0.5000 
     20 C          -1.3095  -23.0881  -46.0989 C.2       10 UNK         0.5000 
     21 O          -1.5452  -24.2509  -46.4306 O.2       10 UNK        -0.5000 
     22 CA         -0.9106  -22.7987  -44.6381 C.3       10 UNK         0.1400 
     23 CB          0.5868  -23.0677  -44.4349 C.3       10 UNK        -0.1800 
     24 N          -1.2228  -21.4416  -44.1810 N.am      10 UNK        -0.5000 
     25 C          -2.4427  -20.8785  -44.1636 C.2       9 UNK         0.5000 
     26 O          -3.4670  -21.4693  -44.5083 O.2       9 UNK        -0.5000 
     27 CA         -2.5354  -19.3968  -43.7368 C.3       9 UNK         0.1400 
     28 CB         -3.0417  -19.2864  -42.2915 C.3       9 UNK        -0.1800 
     29 N          -1.2711  -18.6647  -43.8567 N.am      9 UNK        -0.5000 
     30 C          -0.6015  -18.4736  -45.0042 C.2       8 UNK         0.5000 
     31 O          -1.0356  -18.8263  -46.0989 O.2       8 UNK        -0.5000 
     32 CA          0.8030  -17.8409  -44.9207 C.3       8 UNK         0.1400 
     33 CB          0.7869  -16.3975  -45.4334 C.3       8 UNK        -0.1800 
     34 N           1.3811  -17.8464  -43.5768 N.am      8 UNK        -0.5000 
     35 C           1.7263  -18.9400  -42.8824 C.2       7 UNK         0.5000 
     36 O           1.6041  -20.0858  -43.3158 O.2       7 UNK        -0.5000 
     37 CA          2.2577  -18.7212  -41.4515 C.3       7 UNK         0.1400 
     38 CB          3.7900  -18.8271  -41.4288 C.3       7 UNK        -0.1800 
     39 N           1.8628  -17.4393  -40.8589 N.am      7 UNK        -0.5000 
     40 C           0.6042  -17.0571  -40.5959 C.2       6 UNK         0.5000 
     41 O          -0.3828  -17.7552  -40.8294 O.2       6 UNK        -0.5000 
     42 CA          0.4170  -15.6456  -40.0070 C.3       6 UNK         0.1400 
     43 CB          0.3236  -15.7118  -38.4753 C.3       6 UNK        -0.1800 
     44 N           1.4817  -14.7091  -40.3833 N.am      6 UNK        -0.5000 
     45 C           1.6685  -14.2308  -41.6202 C.2       5 UNK         0.5000 
     46 O           0.9765  -14.5502  -42.5889 O.2       5 UNK        -0.5000 
     47 CA          2.8307  -13.2415  -41.8114 C.3       5 UNK         0.1400 
     48 CB          3.9008  -13.8285  -42.7449 C.3       5 UNK        -0.1800 
     49 N           2.3337  -11.9792  -42.3572 N.am      5 UNK        -0.5000 
     50 C           1.6888  -11.0575  -41.6262 C.2       4 UNK         0.5000 
     51 O           1.5233  -11.1650  -40.4093 O.2       4 UNK        -0.5000 
     52 CA          1.1123   -9.8283  -42.3631 C.3       4 UNK         0.1400 
     53 CB          0.9740   -8.5906  -41.4515 C.3       4 UNK        -0.1800 
     54 N           1.8118   -9.4854  -43.6044 N.am      4 UNK        -0.5000 
     55 C           3.0817   -9.0762  -43.7560 C.2       3 UNK         0.5000 
     56 O           3.8619   -8.9096  -42.8177 O.2       3 UNK        -0.5000 
     57 CA          3.5667   -8.8152  -45.1994 C.3       3 UNK         0.1400 
     58 CB          4.9069   -9.5206  -45.4717 C.3       3 UNK        -0.1800 
     59 N           2.5904   -9.2789  -46.1875 N.am      3 UNK        -0.5000 
     60 C           1.7487   -8.5040  -46.8862 C.2       2 UNK         0.5000 
     61 O           1.7589   -7.2735  -46.8462 O.2       2 UNK        -0.5000 
     62 CA          0.6948   -9.2250  -47.7565 C.3       2 UNK         0.1400 
     63 CB          1.1754   -9.3209  -49.2122 C.3       2 UNK        -0.1800 
     64 N           0.3680  -10.5706  -47.2746 N.am      2 UNK        -0.5000 
     65 C          -0.2351  -10.8443  -46.1081 C.2       1 UNK         0.5000 
     66 O          -0.6806   -9.9749  -45.3594 O.2       1 UNK        -0.5000 
     67 C          -3.3508  -22.7510  -48.4018 C.2       11 UNK         0.5000 
     68 O          -3.6353  -23.4152  -49.3952 O.2       11 UNK        -0.5000 
     69 N          -4.1936  -22.5702  -47.3735 N.am      12 UNK        -0.5000 
     70 CA         -5.5343  -23.1553  -47.3084 C.3       12 UNK         0.1400 
     71 CB         -6.3094  -22.5138  -46.1484 C.3       12 UNK        -0.1800 
     72 C          -5.5216  -24.6910  -47.1701 C.2       12 UNK         0.5000 
     73 O          -6.4667  -25.3426  -47.6152 O.2       12 UNK        -0.5000 
     74 N          -4.4574  -25.2373  -46.5663 N.am      13 UNK        -0.5000 
     75 CA         -4.2379  -26.6736  -46.4147 C.3       13 UNK         0.1400 
     76 CB         -3.5213  -26.9375  -45.0805 C.3       13 UNK        -0.1800 
     77 C          -3.4243  -27.2391  -47.5904 C.2       13 UNK         0.5000 
     78 O          -3.7679  -28.3006  -48.1114 O.2       13 UNK        -0.5000 
     79 N          -2.3575  -26.5270  -47.9792 N.am      14 UNK        -0.5000 
     80 CA         -1.4284  -26.9263  -49.0368 C.3       14 UNK         0.1400 
     81 CB         -0.1622  -26.0656  -48.9293 C.3       14 UNK        -0.1800 
     82 C          -2.0246  -26.8283  -50.4521 C.2       14 UNK         0.5000 
     83 O          -1.6847  -27.6465  -51.3083 O.2       14 UNK        -0.5000 
     84 N          -2.8889  -25.8283  -50.6765 N.am      15 UNK        -0.5000 
     85 CA         -3.5441  -25.4947  -51.9403 C.3       15 UNK         0.1400 
     86 CB         -4.6475  -26.5274  -52.2595 C.3       15 UNK        -0.1800 
     87 C          -2.5158  -25.2817  -53.0689 C.2       15 UNK         0.5000 
     88 O          -1.6435  -24.4200  -52.9348 O.2       15 UNK        -0.5000 
     89 N          -2.6087  -26.0831  -54.1375 N.am      16 UNK        -0.5000 
     90 CA         -1.7334  -26.0592  -55.3109 C.3       16 UNK         0.1400 
     91 CB         -2.2575  -27.0734  -56.3387 C.3       16 UNK        -0.1800 
     92 C          -0.2427  -26.3178  -55.0115 C.2       16 UNK         0.5000 
     93 O           0.6032  -25.9062  -55.8059 O.2       16 UNK        -0.5000 
     94 N           0.0638  -26.9707  -53.8791 N.am      17 UNK        -0.5000 
     95 CA          1.4347  -27.1878  -53.4110 C.3       17 UNK         0.1400 
     96 CB          1.4473  -28.2803  -52.3313 C.3       17 UNK        -0.1800 
     97 C           2.1020  -25.8981  -52.8924 C.2       17 UNK         0.5000 
     98 O           3.3301  -25.8095  -52.9216 O.2       17 UNK        -0.5000 
     99 N           1.2952  -24.9247  -52.4452 N.am      18 UNK        -0.5000 
    100 CA         1.7500  -23.5862  -52.0772 C.3       18 UNK         0.1400 
    101 CB         0.9541  -23.0734  -50.8675 C.3       18 UNK        -0.1800 
    102 C          1.6145  -22.6382  -53.2771 C.2       18 UNK         0.5000 
    103 O          2.6144  -22.0681  -53.7150 O.2       18 UNK        -0.5000 
    104 N          0.3879  -22.5124  -53.7981 N.am      19 UNK        -0.5000 
    105 CA         0.0304  -21.6967  -54.9567 C.3       19 UNK         0.1400 
    106 CB         0.2450  -20.1909  -54.6870 C.3       19 UNK        -0.1800 
    107 C         -1.4284  -21.9847  -55.3252 C.2       19 UNK         0.5000 
    108 O         -1.7004  -22.4916  -56.4134 O.2       19 UNK        -0.5000 
    109 N         -2.3309  -21.6838  -54.3870 N.am      20 UNK        -0.5000 
    110 CA        -3.7675  -21.9150  -54.4460 C.3       20 UNK         0.1400 
    111 CB        -4.4318  -20.9563  -55.4532 C.3       20 UNK        -0.1800 
    112 C         -4.3327  -21.6902  -53.0371 C.2       20 UNK         0.5000 
    113 O         -3.7098  -20.9911  -52.2356 O.2       20 UNK        -0.5000 
    114 N         -5.5153  -22.2572  -52.7725 N.am      21 UNK        -0.5000 
    115 CA        -6.2528  -22.0833  -51.5153 C.3       21 UNK         0.1400 
    116 CB        -7.0223  -23.3801  -51.2105 C.3       21 UNK        -0.1800 
    117 C         -7.2045  -20.8661  -51.5379 C.2       21 UNK         0.5000 
    118 O         -7.8993  -20.6304  -50.5494 O.2       21 UNK        -0.5000 
    119 N         -7.2321  -20.1286  -52.6580 N.am      22 UNK        -0.5000 
    120 CA        -8.0896  -18.9584  -52.9357 C.3       22 UNK         0.1400 
    121 C         -9.6003  -19.2939  -53.1412 C.2       22 UNK         0.5000 
    122 N         -9.9834  -20.5514  -53.3265 N.am      22 UNK        -0.7600 
    123 O        -10.4414  -18.3992  -53.1677 O.2       22 UNK        -0.5000 
    124 C124       -7.8838  -17.7696  -51.9514 C.3       23 UNK        -0.0398 
    125 S125       -6.1494  -17.2092  -51.8204 S.3       23 UNK        -0.2404 
    126 C126       -5.7999  -17.6586  -50.0929 C.3       23 UNK        -0.0205 
    127 H127        2.5046  -14.5851  -47.4824 H         1 UNK         0.0600 
    128 H128        3.6951  -13.2805  -47.4873 H         1 UNK         0.0600 
    129 H129        3.6710  -14.4472  -46.1626 H         1 UNK         0.0600 
    130 H130        0.4532  -13.8442  -46.9152 H         1 UNK         0.3000 
    131 H131       -0.0351  -12.2904  -44.5817 H         1 UNK         0.0600 
    132 H132       -1.7584  -13.7447  -45.0377 H         1 UNK         0.0800 
    133 H133       -2.4534  -12.2268  -45.4871 H         1 UNK         0.0800 
    134 H134       -1.8810  -15.7471  -46.3121 H         1 UNK         0.0800 
    135 H135       -3.5358  -15.2058  -46.3633 H         1 UNK         0.0800 
    136 H136       -4.9879  -15.9085  -48.1612 H         1 UNK         0.1150 
    137 H137       -3.4741  -18.6995  -51.0376 H         1 UNK         0.1150 
    138 H138       -0.7802  -16.6982  -48.3762 H         1 UNK         0.1150 
    139 H139       -1.0929  -18.9858  -51.3235 H         1 UNK         0.0800 
    140 H140        0.0293  -17.9276  -50.5015 H         1 UNK         0.0800 
    141 H141       -2.6283  -20.0577  -48.4130 H         1 UNK         0.0800 
    142 H142       -2.4516  -20.8185  -49.9791 H         1 UNK         0.0800 
    143 H143       -1.2667  -22.7531  -48.8689 H         1 UNK         0.0600 
    144 H144       -1.2280  -21.1141  -46.5866 H         1 UNK         0.3000 
    145 H145       -1.4717  -23.4921  -44.0086 H         1 UNK         0.0600 
    146 H146        0.8698  -22.9562  -43.3880 H         1 UNK         0.0600 
    147 H147        0.8476  -24.0834  -44.7355 H         1 UNK         0.0600 
    148 H148        1.2000  -22.3827  -45.0221 H         1 UNK         0.0600 
    149 H149       -0.4319  -20.8803  -43.8890 H         1 UNK         0.3000 
    150 H150       -3.2620  -18.9146  -44.3939 H         1 UNK         0.0600 
    151 H151       -4.0032  -19.7879  -42.1734 H         1 UNK         0.0600 
    152 H152       -3.1802  -18.2451  -42.0000 H         1 UNK         0.0600 
    153 H153       -2.3441  -19.7410  -41.5868 H         1 UNK         0.0600 
    154 H154       -0.8509  -18.3489  -42.9912 H         1 UNK         0.3000 
    155 H155        1.4603  -18.4258  -45.5673 H         1 UNK         0.0600 
    156 H156        0.4949  -16.3569  -46.4820 H         1 UNK         0.0600 
    157 H157        0.0932  -15.7759  -44.8664 H         1 UNK         0.0600 
    158 H158        1.7762  -15.9495  -45.3536 H         1 UNK         0.0600 
    159 H159        1.4816  -16.9443  -43.1315 H         1 UNK         0.3000 
    160 H160        1.8477  -19.5181  -40.8278 H         1 UNK         0.0600 
    161 H161        4.1222  -19.7820  -41.8387 H         1 UNK         0.0600 
    162 H162        4.2564  -18.0366  -42.0182 H         1 UNK         0.0600 
    163 H163        4.1756  -18.7610  -40.4113 H         1 UNK         0.0600 
    164 H164        2.6086  -16.7973  -40.6348 H         1 UNK         0.3000 
    165 H165       -0.5286  -15.2552  -40.3896 H         1 UNK         0.0600 
    166 H166        1.2499  -16.0773  -38.0302 H         1 UNK         0.0600 
    167 H167        0.1099  -14.7308  -38.0503 H         1 UNK         0.0600 
    168 H168       -0.4782  -16.3817  -38.1614 H         1 UNK         0.0600 
    169 H169        2.0805  -14.3857  -39.6369 H         1 UNK         0.3000 
    170 H170        3.3037  -13.0441  -40.8469 H         1 UNK         0.0600 
    171 H171        4.3619  -14.7108  -42.2996 H         1 UNK         0.0600 
    172 H172        3.4808  -14.1322  -43.7030 H         1 UNK         0.0600 
    173 H173        4.6949  -13.1077  -42.9403 H         1 UNK         0.0600 
    174 H174        2.4108  -11.8596  -43.3629 H         1 UNK         0.3000 
    175 H175        0.1049  -10.1183  -42.6641 H         1 UNK         0.0600 
    176 H176        0.5512   -7.7458  -41.9953 H         1 UNK         0.0600 
    177 H177        0.3113   -8.7951  -40.6099 H         1 UNK         0.0600 
    178 H178        1.9349   -8.2794  -41.0411 H         1 UNK         0.0600 
    179 H179        1.2500   -9.5718  -44.4413 H         1 UNK         0.3000 
    180 H180        3.7229   -7.7392  -45.2967 H         1 UNK         0.0600 
    181 H181        5.2473   -9.3389  -46.4912 H         1 UNK         0.0600 
    182 H182        5.6866   -9.1568  -44.8015 H         1 UNK         0.0600 
    183 H183        4.8304  -10.5994  -45.3311 H         1 UNK         0.0600 
    184 H184        2.4950  -10.2866  -46.2478 H         1 UNK         0.3000 
    185 H185       -0.2179   -8.6259  -47.7338 H         1 UNK         0.0600 
    186 H186        0.4115   -9.7637  -49.8517 H         1 UNK         0.0600 
    187 H187        1.4017   -8.3327  -49.6149 H         1 UNK         0.0600 
    188 H188        2.0792   -9.9255  -49.2987 H         1 UNK         0.0600 
    189 H189        0.7025  -11.3446  -47.8297 H         1 UNK         0.3000 
    190 H190       -3.8866  -22.0465  -46.5613 H         1 UNK         0.3000 
    191 H191       -6.0536  -22.9124  -48.2377 H         1 UNK         0.0600 
    192 H192       -7.3323  -22.8899  -46.1075 H         1 UNK         0.0600 
    193 H193       -6.3653  -21.4309  -46.2615 H         1 UNK         0.0600 
    194 H194       -5.8423  -22.7274  -45.1862 H         1 UNK         0.0600 
    195 H195       -3.7019  -24.6317  -46.2733 H         1 UNK         0.3000 
    196 H196       -5.1974  -27.1945  -46.3863 H         1 UNK         0.0600 
    197 H197       -3.3512  -28.0049  -44.9343 H         1 UNK         0.0600 
    198 H198       -4.1174  -26.5852  -44.2385 H         1 UNK         0.0600 
    199 H199       -2.5513  -26.4411  -45.0337 H         1 UNK         0.0600 
    200 H200       -2.1200  -25.6817  -47.4659 H         1 UNK         0.3000 
    201 H201       -1.1466  -27.9681  -48.8706 H         1 UNK         0.0600 
    202 H202        0.3428  -26.2252  -47.9765 H         1 UNK         0.0600 
    203 H203       -0.4026  -25.0060  -49.0034 H         1 UNK         0.0600 
    204 H204        0.5505  -26.3002  -49.7204 H         1 UNK         0.0600 
    205 H205       -3.0728  -25.1650  -49.9297 H         1 UNK         0.3000 
    206 H206       -4.0266  -24.5296  -51.7911 H         1 UNK         0.0600 
    207 H207       -5.3641  -26.5901  -51.4403 H         1 UNK         0.0600 
    208 H208       -5.2088  -26.2454  -53.1512 H         1 UNK         0.0600 
    209 H209       -4.2443  -27.5287  -52.4153 H         1 UNK         0.0600 
    210 H210       -3.3334  -26.7860  -54.1397 H         1 UNK         0.3000 
    211 H211       -1.8046  -25.0639  -55.7507 H         1 UNK         0.0600 
    212 H212       -2.2408  -28.0901  -55.9440 H         1 UNK         0.0600 
    213 H213       -1.6498  -27.0627  -57.2446 H         1 UNK         0.0600 
    214 H214       -3.2811  -26.8432  -56.6348 H         1 UNK         0.0600 
    215 H215       -0.6817  -27.2717  -53.2619 H         1 UNK         0.3000 
    216 H216        2.0278  -27.5476  -54.2546 H         1 UNK         0.0600 
    217 H217        2.4696  -28.5287  -52.0435 H         1 UNK         0.0600 
    218 H218        0.9784  -29.1970  -52.6891 H         1 UNK         0.0600 
    219 H219        0.9247  -27.9653  -51.4292 H         1 UNK         0.0600 
    220 H220        0.2927  -25.0558  -52.5108 H         1 UNK         0.3000 
    221 H221        2.8030  -23.6094  -51.7882 H         1 UNK         0.0600 
    222 H222       -0.1230  -23.1299  -51.0273 H         1 UNK         0.0600 
    223 H223        1.1972  -23.6459  -49.9738 H         1 UNK         0.0600 
    224 H224        1.2030  -22.0335  -50.6552 H         1 UNK         0.0600 
    225 H225       -0.3688  -23.0742  -53.4131 H         1 UNK         0.3000 
    226 H226        0.6555  -21.9988  -55.7994 H         1 UNK         0.0600 
    227 H227        1.3033  -19.9447  -54.6060 H         1 UNK         0.0600 
    228 H228       -0.1587  -19.5870  -55.5007 H         1 UNK         0.0600 
    229 H229       -0.2414  -19.8692  -53.7655 H         1 UNK         0.0600 
    230 H230       -2.0287  -21.2866  -53.5054 H         1 UNK         0.3000 
    231 H231       -3.9472  -22.9509  -54.7405 H         1 UNK         0.0600 
    232 H232       -5.5109  -21.1087  -55.4903 H         1 UNK         0.0600 
    233 H233       -4.0548  -21.1119  -56.4639 H         1 UNK         0.0600 
    234 H234       -4.2547  -19.9129  -55.1886 H         1 UNK         0.0600 
    235 H235       -5.9724  -22.8069  -53.4864 H         1 UNK         0.3000 
    236 H236       -5.5481  -21.9154  -50.6983 H         1 UNK         0.0600 
    237 H237       -7.7295  -23.6266  -52.0030 H         1 UNK         0.0600 
    238 H238       -6.3417  -24.2223  -51.0908 H         1 UNK         0.0600 
    239 H239       -7.5870  -23.2964  -50.2811 H         1 UNK         0.0600 
    240 H240       -6.6192  -20.4010  -53.4105 H         1 UNK         0.3000 
    241 H241       -7.7648  -18.6065  -53.9154 H         1 UNK         0.0600 
    242 H242      -10.9603  -20.7552  -53.4697 H         1 UNK         0.3800 
    243 H243       -9.3111  -21.3006  -53.3211 H         1 UNK         0.3800 
    244 H244       -8.2721  -18.0226  -50.9640 H         1 UNK         0.0800 
    245 H245       -8.4641  -16.9063  -52.2807 H         1 UNK         0.0800 
    246 H246       -6.5225  -17.1608  -49.4444 H         1 UNK         0.0800 
    247 H247       -5.9516  -18.7294  -49.9577 H         1 UNK         0.0800 
@<TRIPOS>BOND
     1    1    2 1    
     2    1  127 1    
     3    1  128 1    
     4    1  129 1    
     5    2    3 2    
     6    2    4 am   BACKBONE|DICT|INTERRES
     7    4    5 1    
     8    4  130 1    
     9    5    6 1    
    10    5   65 1    
    11    5  131 1    
    12    6    7 1    
    13    6  132 1    
    14    6  133 1    
    15    7    8 1    
    16    8    9 1    
    17    8  134 1    
    18    8  135 1    
    19    9   10 ar   
    20    9   14 ar   
    21   10   11 ar   
    22   10  136 1    
    23   11   12 ar   
    24   11  126 1    
    25   12   13 ar   
    26   12  137 1    
    27   13   14 ar   
    28   13   15 1    
    29   14  138 1    
    30   15   16 1    
    31   15  139 1    
    32   15  140 1    
    33   16   17 1    
    34   17   18 1    
    35   17  141 1    
    36   17  142 1    
    37   18   19 1    
    38   18   67 1    
    39   18  143 1    
    40   19   20 am   BACKBONE|DICT|INTERRES
    41   19  144 1    
    42   20   21 2    
    43   20   22 1    
    44   22   23 1    
    45   22   24 1    
    46   22  145 1    
    47   23  146 1    
    48   23  147 1    
    49   23  148 1    
    50   24   25 am   BACKBONE|DICT|INTERRES
    51   24  149 1    
    52   25   26 2    
    53   25   27 1    
    54   27   28 1    
    55   27   29 1    
    56   27  150 1    
    57   28  151 1    
    58   28  152 1    
    59   28  153 1    
    60   29   30 am   BACKBONE|DICT|INTERRES
    61   29  154 1    
    62   30   31 2    
    63   30   32 1    
    64   32   33 1    
    65   32   34 1    
    66   32  155 1    
    67   33  156 1    
    68   33  157 1    
    69   33  158 1    
    70   34   35 am   BACKBONE|DICT|INTERRES
    71   34  159 1    
    72   35   36 2    
    73   35   37 1    
    74   37   38 1    
    75   37   39 1    
    76   37  160 1    
    77   38  161 1    
    78   38  162 1    
    79   38  163 1    
    80   39   40 am   BACKBONE|DICT|INTERRES
    81   39  164 1    
    82   40   41 2    
    83   40   42 1    
    84   42   43 1    
    85   42   44 1    
    86   42  165 1    
    87   43  166 1    
    88   43  167 1    
    89   43  168 1    
    90   44   45 am   BACKBONE|DICT|INTERRES
    91   44  169 1    
    92   45   46 2    
    93   45   47 1    
    94   47   48 1    
    95   47   49 1    
    96   47  170 1    
    97   48  171 1    
    98   48  172 1    
    99   48  173 1    
   100   49   50 am   BACKBONE|DICT|INTERRES
   101   49  174 1    
   102   50   51 2    
   103   50   52 1    
   104   52   53 1    
   105   52   54 1    
   106   52  175 1    
   107   53  176 1    
   108   53  177 1    
   109   53  178 1    
   110   54   55 am   BACKBONE|DICT|INTERRES
   111   54  179 1    
   112   55   56 2    
   113   55   57 1    
   114   57   58 1    
   115   57   59 1    
   116   57  180 1    
   117   58  181 1    
   118   58  182 1    
   119   58  183 1    
   120   59   60 am   BACKBONE|DICT|INTERRES
   121   59  184 1    
   122   60   61 2    
   123   60   62 1    
   124   62   63 1    
   125   62   64 1    
   126   62  185 1    
   127   63  186 1    
   128   63  187 1    
   129   63  188 1    
   130   64   65 am   BACKBONE|DICT|INTERRES
   131   64  189 1    
   132   65   66 2    
   133   67   68 2    
   134   67   69 am   BACKBONE|DICT|INTERRES
   135   69   70 1    
   136   69  190 1    
   137   70   71 1    
   138   70   72 1    
   139   70  191 1    
   140   71  192 1    
   141   71  193 1    
   142   71  194 1    
   143   72   73 2    
   144   72   74 am   BACKBONE|DICT|INTERRES
   145   74   75 1    
   146   74  195 1    
   147   75   76 1    
   148   75   77 1    
   149   75  196 1    
   150   76  197 1    
   151   76  198 1    
   152   76  199 1    
   153   77   78 2    
   154   77   79 am   BACKBONE|DICT|INTERRES
   155   79   80 1    
   156   79  200 1    
   157   80   81 1    
   158   80   82 1    
   159   80  201 1    
   160   81  202 1    
   161   81  203 1    
   162   81  204 1    
   163   82   83 2    
   164   82   84 am   BACKBONE|DICT|INTERRES
   165   84   85 1    
   166   84  205 1    
   167   85   86 1    
   168   85   87 1    
   169   85  206 1    
   170   86  207 1    
   171   86  208 1    
   172   86  209 1    
   173   87   88 2    
   174   87   89 am   BACKBONE|DICT|INTERRES
   175   89   90 1    
   176   89  210 1    
   177   90   91 1    
   178   90   92 1    
   179   90  211 1    
   180   91  212 1    
   181   91  213 1    
   182   91  214 1    
   183   92   93 2    
   184   92   94 am   BACKBONE|DICT|INTERRES
   185   94   95 1    
   186   94  215 1    
   187   95   96 1    
   188   95   97 1    
   189   95  216 1    
   190   96  217 1    
   191   96  218 1    
   192   96  219 1    
   193   97   98 2    
   194   97   99 am   BACKBONE|DICT|INTERRES
   195   99  100 1    
   196   99  220 1    
   197  100  101 1    
   198  100  102 1    
   199  100  221 1    
   200  101  222 1    
   201  101  223 1    
   202  101  224 1    
   203  102  103 2    
   204  102  104 am   BACKBONE|DICT|INTERRES
   205  104  105 1    
   206  104  225 1    
   207  105  106 1    
   208  105  107 1    
   209  105  226 1    
   210  106  227 1    
   211  106  228 1    
   212  106  229 1    
   213  107  108 2    
   214  107  109 am   BACKBONE|DICT|INTERRES
   215  109  110 1    
   216  109  230 1    
   217  110  111 1    
   218  110  112 1    
   219  110  231 1    
   220  111  232 1    
   221  111  233 1    
   222  111  234 1    
   223  112  113 2    
   224  112  114 am   BACKBONE|DICT|INTERRES
   225  114  115 1    
   226  114  235 1    
   227  115  116 1    
   228  115  117 1    
   229  115  236 1    
   230  116  237 1    
   231  116  238 1    
   232  116  239 1    
   233  117  118 2    
   234  117  119 am   BACKBONE|DICT|INTERRES
   235  119  120 1    
   236  119  240 1    
   237  120  121 1    
   238  120  124 1    
   239  120  241 1    
   240  121  122 am   BACKBONE|DICT|INTERRES
   241  121  123 2    
   242  122  242 1    
   243  122  243 1    
   244  124  125 1    
   245  124  244 1    
   246  124  245 1    
   247  125  126 1    
   248  126  246 1    
   249  126  247 1    
@<TRIPOS>SUBSTRUCTURE
     1 UNK         1 GROUP             0       ****    0 ROOT    
