@<TRIPOS>MOLECULE
3R540
247   249    1
SMALL
USER_CHARGES


@<TRIPOS>ATOM
      1 CA         -0.2178  -10.3534  -50.3600 C.3       0 UNK        -0.1800 
      2 C           0.7416  -10.6083  -49.2065 C.2       0 UNK         0.5000 
      3 O           1.5984   -9.7712  -48.9221 O.2       0 UNK        -0.5000 
      4 N           0.5916  -11.7497  -48.5244 N.am      1 UNK        -0.5000 
      5 CA          1.4338  -12.2177  -47.4134 C.3       1 UNK         0.1400 
      6 C6          1.3566  -13.7574  -47.2490 C.3       23 UNK        -0.0398 
      7 S7          1.8296  -14.6979  -48.7395 S.3       23 UNK        -0.2404 
      8 C8          0.4105  -15.8290  -48.8730 C.3       23 UNK        -0.0205 
      9 C9          0.6880  -16.9701  -49.8366 C.ar      23 UNK        -0.0193 
     10 C10         0.2281  -16.9118  -51.1559 C.ar      23 UNK        -0.1150 
     11 C11         0.4565  -17.9774  -52.0315 C.ar      23 UNK        -0.0193 
     12 C12         1.1549  -19.1008  -51.5819 C.ar      23 UNK        -0.1150 
     13 C13         1.6236  -19.1676  -50.2676 C.ar      23 UNK        -0.0193 
     14 C14         1.3867  -18.0996  -49.3979 C.ar      23 UNK        -0.1150 
     15 C15         2.3885  -20.3947  -49.7988 C.3       23 UNK        -0.0205 
     16 S16         1.2629  -21.7316  -49.2957 S.3       23 UNK        -0.2404 
     17 C17         0.7579  -21.1689  -47.6353 C.3       23 UNK        -0.0398 
     18 CA          0.1316  -22.3148  -46.8043 C.3       11 UNK         0.1400 
     19 N           0.3106  -22.1233  -45.3617 N.am      11 UNK        -0.5000 
     20 C           0.0496  -23.0485  -44.4262 C.2       10 UNK         0.5000 
     21 O          -0.3902  -24.1704  -44.6803 O.2       10 UNK        -0.5000 
     22 CA          0.2853  -22.6382  -42.9609 C.3       10 UNK         0.1400 
     23 CB          1.7815  -22.6516  -42.6120 C.3       10 UNK        -0.1800 
     24 N          -0.2797  -21.3217  -42.6679 N.am      10 UNK        -0.5000 
     25 C          -1.5945  -21.0705  -42.5972 C.2       9 UNK         0.5000 
     26 O          -2.4608  -21.9414  -42.6777 O.2       9 UNK        -0.5000 
     27 CA         -2.0182  -19.5984  -42.4382 C.3       9 UNK         0.1400 
     28 CB         -2.0549  -19.2027  -40.9546 C.3       9 UNK        -0.1800 
     29 N          -1.1579  -18.6661  -43.1681 N.am      9 UNK        -0.5000 
     30 C          -1.0072  -18.6432  -44.5003 C.2       8 UNK         0.5000 
     31 O          -1.5929  -19.4012  -45.2715 O.2       8 UNK        -0.5000 
     32 CA          0.0168  -17.6412  -45.0600 C.3       8 UNK         0.1400 
     33 CB         -0.5551  -16.2159  -45.0458 C.3       8 UNK        -0.1800 
     34 N           1.2798  -17.6709  -44.3226 N.am      8 UNK        -0.5000 
     35 C           2.0747  -18.7443  -44.2084 C.2       7 UNK         0.5000 
     36 O           1.8534  -19.8209  -44.7590 O.2       7 UNK        -0.5000 
     37 CA          3.2899  -18.6113  -43.2780 C.3       7 UNK         0.1400 
     38 CB          4.4765  -17.9737  -44.0150 C.3       7 UNK        -0.1800 
     39 N           2.9638  -17.8338  -42.0828 N.am      7 UNK        -0.5000 
     40 C           2.1824  -18.2795  -41.0883 C.2       6 UNK         0.5000 
     41 O           1.7051  -19.4142  -41.0508 O.2       6 UNK        -0.5000 
     42 CA          1.8466  -17.2734  -39.9712 C.3       6 UNK         0.1400 
     43 CB          2.9720  -17.2259  -38.9271 C.3       6 UNK        -0.1800 
     44 N           1.6025  -15.9236  -40.4850 N.am      6 UNK        -0.5000 
     45 C           0.5521  -15.5863  -41.2466 C.2       5 UNK         0.5000 
     46 O          -0.3432  -16.3725  -41.5539 O.2       5 UNK        -0.5000 
     47 CA          0.5152  -14.1449  -41.7928 C.3       5 UNK         0.1400 
     48 CB         -0.2258  -13.2162  -40.8203 C.3       5 UNK        -0.1800 
     49 N           1.8352  -13.5793  -42.0880 N.am      5 UNK        -0.5000 
     50 C           2.7102  -14.0876  -42.9665 C.2       4 UNK         0.5000 
     51 O           2.5237  -15.1410  -43.5775 O.2       4 UNK        -0.5000 
     52 CA          3.9939  -13.2741  -43.1940 C.3       4 UNK         0.1400 
     53 CB          4.8261  -13.7769  -44.3887 C.3       4 UNK        -0.1800 
     54 N           3.6656  -11.8638  -43.3953 N.am      4 UNK        -0.5000 
     55 C           4.3723  -10.8327  -42.9124 C.2       3 UNK         0.5000 
     56 O           5.3386  -10.9718  -42.1611 O.2       3 UNK        -0.5000 
     57 CA          3.9679   -9.4083  -43.3495 C.3       3 UNK         0.1400 
     58 CB          5.1369   -8.7089  -44.0638 C.3       3 UNK        -0.1800 
     59 N           2.8097   -9.3892  -44.2437 N.am      3 UNK        -0.5000 
     60 C           1.5333   -9.2942  -43.8522 C.2       2 UNK         0.5000 
     61 O           1.1822   -9.1829  -42.6773 O.2       2 UNK        -0.5000 
     62 CA          0.4684   -9.3632  -44.9653 C.3       2 UNK         0.1400 
     63 CB          0.1090   -7.9532  -45.4572 C.3       2 UNK        -0.1800 
     64 N           0.8637  -10.1841  -46.1159 N.am      2 UNK        -0.5000 
     65 C           1.1116  -11.5000  -46.0770 C.2       1 UNK         0.5000 
     66 O           1.0914  -12.1415  -45.0263 O.2       1 UNK        -0.5000 
     67 C          -1.3405  -22.5576  -47.1946 C.2       11 UNK         0.5000 
     68 O          -1.5944  -23.3629  -48.0879 O.2       11 UNK        -0.5000 
     69 N          -2.2817  -21.9215  -46.4814 N.am      12 UNK        -0.5000 
     70 CA         -3.7321  -22.0584  -46.6525 C.3       12 UNK         0.1400 
     71 CB         -4.4467  -21.1053  -45.6823 C.3       12 UNK        -0.1800 
     72 C          -4.2818  -23.4935  -46.5012 C.2       12 UNK         0.5000 
     73 O          -5.3844  -23.7636  -46.9763 O.2       12 UNK        -0.5000 
     74 N          -3.5215  -24.3850  -45.8511 N.am      13 UNK        -0.5000 
     75 CA         -3.8405  -25.8070  -45.7318 C.3       13 UNK         0.1400 
     76 CB         -3.2358  -26.3360  -44.4219 C.3       13 UNK        -0.1800 
     77 C          -3.3363  -26.6398  -46.9291 C.2       13 UNK         0.5000 
     78 O          -3.8066  -27.7638  -47.1089 O.2       13 UNK        -0.5000 
     79 N          -2.3830  -26.1050  -47.7044 N.am      14 UNK        -0.5000 
     80 CA         -1.7228  -26.7884  -48.8184 C.3       14 UNK         0.1400 
     81 CB         -0.2022  -26.6095  -48.6788 C.3       14 UNK        -0.1800 
     82 C          -2.1990  -26.2569  -50.1798 C.2       14 UNK         0.5000 
     83 O          -2.3990  -27.0473  -51.1028 O.2       14 UNK        -0.5000 
     84 N          -2.3816  -24.9372  -50.2798 N.am      15 UNK        -0.5000 
     85 CA         -2.8746  -24.2240  -51.4514 C.3       15 UNK         0.1400 
     86 CB         -1.7144  -23.9297  -52.4241 C.3       15 UNK        -0.1800 
     87 C          -3.6194  -22.9651  -50.9776 C.2       15 UNK         0.5000 
     88 O          -4.1482  -22.9643  -49.8659 O.2       15 UNK        -0.5000 
     89 N          -3.6871  -21.9320  -51.8270 N.am      16 UNK        -0.5000 
     90 CA         -4.3265  -20.6297  -51.6110 C.3       16 UNK         0.1400 
     91 CB         -3.6011  -19.8321  -50.5042 C.3       16 UNK        -0.1800 
     92 C          -5.8423  -20.7666  -51.3751 C.2       16 UNK         0.5000 
     93 O          -6.6122  -20.7166  -52.3335 O.2       16 UNK        -0.5000 
     94 N          -6.2435  -20.9802  -50.1168 N.am      17 UNK        -0.5000 
     95 CA         -7.6109  -21.3277  -49.7346 C.3       17 UNK         0.1400 
     96 CB         -7.7808  -21.1144  -48.2232 C.3       17 UNK        -0.1800 
     97 C          -7.9731  -22.7746  -50.1251 C.2       17 UNK         0.5000 
     98 O          -9.1264  -23.0368  -50.4677 O.2       17 UNK        -0.5000 
     99 N          -6.9866  -23.6818  -50.0805 N.am      18 UNK        -0.5000 
    100 CA        -7.1445  -25.0960  -50.4239 C.3       18 UNK         0.1400 
    101 CB        -6.1102  -25.9201  -49.6418 C.3       18 UNK        -0.1800 
    102 C         -7.0309  -25.3739  -51.9359 C.2       18 UNK         0.5000 
    103 O         -7.4885  -26.4265  -52.3823 O.2       18 UNK        -0.5000 
    104 N         -6.4376  -24.4470  -52.7000 N.am      19 UNK        -0.5000 
    105 CA        -6.2807  -24.5340  -54.1489 C.3       19 UNK         0.1400 
    106 CB        -5.1201  -25.4746  -54.5280 C.3       19 UNK        -0.1800 
    107 C         -6.0512  -23.1200  -54.6897 C.2       19 UNK         0.5000 
    108 O         -4.9825  -22.5494  -54.4577 O.2       19 UNK        -0.5000 
    109 N         -7.0525  -22.5862  -55.4016 N.am      20 UNK        -0.5000 
    110 CA        -7.1078  -21.2124  -55.9187 C.3       20 UNK         0.1400 
    111 CB        -8.4881  -20.9798  -56.5529 C.3       20 UNK        -0.1800 
    112 C         -5.9889  -20.8359  -56.9120 C.2       20 UNK         0.5000 
    113 O         -5.7419  -19.6473  -57.1197 O.2       20 UNK        -0.5000 
    114 N         -5.3168  -21.8432  -57.4873 N.am      21 UNK        -0.5000 
    115 CA        -4.1125  -21.6951  -58.3074 C.3       21 UNK         0.1400 
    116 CB        -3.7814  -23.0511  -58.9494 C.3       21 UNK        -0.1800 
    117 C         -2.8965  -21.1609  -57.5196 C.2       21 UNK         0.5000 
    118 O         -1.9890  -20.5941  -58.1290 O.2       21 UNK        -0.5000 
    119 N         -2.9060  -21.3351  -56.1892 N.am      22 UNK        -0.5000 
    120 CA        -1.8958  -20.8366  -55.2421 C.3       22 UNK         0.1400 
    121 C         -0.5115  -21.5537  -55.3159 C.2       22 UNK         0.5000 
    122 N         -0.4100  -22.7216  -55.9389 N.am      22 UNK        -0.7600 
    123 O          0.4801  -21.0699  -54.7796 O.2       22 UNK        -0.5000 
    124 C124       -1.8046  -19.2797  -55.2389 C.3       23 UNK        -0.0398 
    125 S125       -1.7484  -18.5929  -53.5500 S.3       23 UNK        -0.2404 
    126 C126       -0.0578  -17.9311  -53.4601 C.3       23 UNK        -0.0205 
    127 H127       -0.9204  -11.1766  -50.4924 H         1 UNK         0.0600 
    128 H128        0.3384  -10.2286  -51.2890 H         1 UNK         0.0600 
    129 H129       -0.7896   -9.4434  -50.1784 H         1 UNK         0.0600 
    130 H130       -0.1459  -12.3830  -48.7972 H         1 UNK         0.3000 
    131 H131        2.4707  -11.9684  -47.6484 H         1 UNK         0.0600 
    132 H132        2.0084  -14.0962  -46.4412 H         1 UNK         0.0800 
    133 H133        0.3416  -14.0311  -46.9599 H         1 UNK         0.0800 
    134 H134       -0.4722  -15.2691  -49.1857 H         1 UNK         0.0800 
    135 H135        0.1807  -16.2440  -47.8919 H         1 UNK         0.0800 
    136 H136       -0.3177  -16.0439  -51.4988 H         1 UNK         0.1150 
    137 H137        1.3255  -19.9298  -52.2553 H         1 UNK         0.1150 
    138 H138        1.7442  -18.1466  -48.3786 H         1 UNK         0.1150 
    139 H139        3.0212  -20.7581  -50.6100 H         1 UNK         0.0800 
    140 H140        3.0639  -20.1420  -48.9800 H         1 UNK         0.0800 
    141 H141        0.0868  -20.3114  -47.7164 H         1 UNK         0.0800 
    142 H142        1.6571  -20.8039  -47.1394 H         1 UNK         0.0800 
    143 H143        0.6724  -23.2340  -47.0418 H         1 UNK         0.0600 
    144 H144        0.7074  -21.2323  -45.0712 H         1 UNK         0.3000 
    145 H145       -0.2126  -23.3729  -42.3244 H         1 UNK         0.0600 
    146 H146        1.9425  -22.4050  -41.5623 H         1 UNK         0.0600 
    147 H147        2.2121  -23.6386  -42.7850 H         1 UNK         0.0600 
    148 H148        2.3469  -21.9384  -43.2113 H         1 UNK         0.0600 
    149 H149        0.3715  -20.5556  -42.5524 H         1 UNK         0.3000 
    150 H150       -3.0279  -19.5017  -42.8424 H         1 UNK         0.0600 
    151 H151       -2.7017  -19.8722  -40.3863 H         1 UNK         0.0600 
    152 H152       -2.4408  -18.1912  -40.8264 H         1 UNK         0.0600 
    153 H153       -1.0627  -19.2411  -40.5038 H         1 UNK         0.0600 
    154 H154       -0.6718  -17.9688  -42.6111 H         1 UNK         0.3000 
    155 H155        0.2370  -17.9181  -46.0927 H         1 UNK         0.0600 
    156 H156       -1.0077  -15.9654  -44.0870 H         1 UNK         0.0600 
    157 H157        0.2209  -15.4784  -45.2397 H         1 UNK         0.0600 
    158 H158       -1.3271  -16.0999  -45.8070 H         1 UNK         0.0600 
    159 H159        1.5760  -16.8049  -43.8816 H         1 UNK         0.3000 
    160 H160        3.5864  -19.6145  -42.9643 H         1 UNK         0.0600 
    161 H161        4.7902  -18.5977  -44.8527 H         1 UNK         0.0600 
    162 H162        4.2236  -16.9940  -44.4190 H         1 UNK         0.0600 
    163 H163        5.3368  -17.8563  -43.3561 H         1 UNK         0.0600 
    164 H164        3.2591  -16.8684  -42.0763 H         1 UNK         0.3000 
    165 H165        0.9366  -17.6190  -39.4759 H         1 UNK         0.0600 
    166 H166        2.7090  -16.5743  -38.0937 H         1 UNK         0.0600 
    167 H167        3.1633  -18.2177  -38.5150 H         1 UNK         0.0600 
    168 H168        3.9068  -16.8627  -39.3560 H         1 UNK         0.0600 
    169 H169        2.2929  -15.2181  -40.2752 H         1 UNK         0.3000 
    170 H170       -0.0430  -14.1656  -42.7308 H         1 UNK         0.0600 
    171 H171       -1.2252  -13.5957  -40.6026 H         1 UNK         0.0600 
    172 H172        0.3039  -13.1210  -39.8717 H         1 UNK         0.0600 
    173 H173       -0.3435  -12.2176  -41.2420 H         1 UNK         0.0600 
    174 H174        2.0610  -12.7028  -41.6407 H         1 UNK         0.3000 
    175 H175        4.5911  -13.3951  -42.2881 H         1 UNK         0.0600 
    176 H176        4.2588  -13.7350  -45.3190 H         1 UNK         0.0600 
    177 H177        5.7285  -13.1799  -44.5199 H         1 UNK         0.0600 
    178 H178        5.1436  -14.8087  -44.2389 H         1 UNK         0.0600 
    179 H179        2.8380  -11.6852  -43.9541 H         1 UNK         0.3000 
    180 H180        3.7401   -8.8437  -42.4430 H         1 UNK         0.0600 
    181 H181        5.4330   -9.2422  -44.9681 H         1 UNK         0.0600 
    182 H182        6.0134   -8.6464  -43.4175 H         1 UNK         0.0600 
    183 H183        4.8729   -7.6895  -44.3462 H         1 UNK         0.0600 
    184 H184        2.9998   -9.4817  -45.2312 H         1 UNK         0.3000 
    185 H185       -0.4272   -9.8120  -44.5308 H         1 UNK         0.0600 
    186 H186       -0.7077   -7.9835  -46.1788 H         1 UNK         0.0600 
    187 H187       -0.2133   -7.3200  -44.6294 H         1 UNK         0.0600 
    188 H188        0.9600   -7.4646  -45.9334 H         1 UNK         0.0600 
    189 H189        0.9445   -9.7190  -47.0138 H         1 UNK         0.3000 
    190 H190       -1.9785  -21.2239  -45.8074 H         1 UNK         0.3000 
    191 H191       -3.9669  -21.7314  -47.6638 H         1 UNK         0.0600 
    192 H192       -4.2085  -21.3377  -44.6446 H         1 UNK         0.0600 
    193 H193       -5.5298  -21.1700  -45.7918 H         1 UNK         0.0600 
    194 H194       -4.1665  -20.0686  -45.8685 H         1 UNK         0.0600 
    195 H195       -2.6294  -24.0863  -45.4778 H         1 UNK         0.3000 
    196 H196       -4.9239  -25.9325  -45.6761 H         1 UNK         0.0600 
    197 H197       -3.4985  -27.3829  -44.2647 H         1 UNK         0.0600 
    198 H198       -3.6042  -25.7759  -43.5621 H         1 UNK         0.0600 
    199 H199       -2.1473  -26.2684  -44.4250 H         1 UNK         0.0600 
    200 H200       -2.1028  -25.1429  -47.5443 H         1 UNK         0.3000 
    201 H201       -1.9363  -27.8588  -48.7879 H         1 UNK         0.0600 
    202 H202        0.1582  -27.0308  -47.7402 H         1 UNK         0.0600 
    203 H203        0.0862  -25.5578  -48.7050 H         1 UNK         0.0600 
    204 H204        0.3265  -27.1155  -49.4875 H         1 UNK         0.0600 
    205 H205       -2.2213  -24.3474  -49.4634 H         1 UNK         0.3000 
    206 H206       -3.6116  -24.8518  -51.9526 H         1 UNK         0.0600 
    207 H207       -1.1613  -24.8372  -52.6659 H         1 UNK         0.0600 
    208 H208       -2.0808  -23.5260  -53.3680 H         1 UNK         0.0600 
    209 H209       -1.0079  -23.2135  -52.0017 H         1 UNK         0.0600 
    210 H210       -3.3291  -22.0725  -52.7603 H         1 UNK         0.3000 
    211 H211       -4.2119  -20.0749  -52.5432 H         1 UNK         0.0600 
    212 H212       -3.6055  -20.3436  -49.5428 H         1 UNK         0.0600 
    213 H213       -4.0646  -18.8555  -50.3605 H         1 UNK         0.0600 
    214 H214       -2.5586  -19.6575  -50.7714 H         1 UNK         0.0600 
    215 H215       -5.5320  -21.0837  -49.4075 H         1 UNK         0.3000 
    216 H216       -8.2988  -20.6567  -50.2534 H         1 UNK         0.0600 
    217 H217       -8.8043  -21.3276  -47.9124 H         1 UNK         0.0600 
    218 H218       -7.5630  -20.0840  -47.9418 H         1 UNK         0.0600 
    219 H219       -7.1222  -21.7663  -47.6490 H         1 UNK         0.0600 
    220 H220       -6.0606  -23.3899  -49.7792 H         1 UNK         0.3000 
    221 H221       -8.1362  -25.4280  -50.1094 H         1 UNK         0.0600 
    222 H222       -5.0931  -25.6016  -49.8614 H         1 UNK         0.0600 
    223 H223       -6.2627  -25.8243  -48.5669 H         1 UNK         0.0600 
    224 H224       -6.1822  -26.9809  -49.8849 H         1 UNK         0.0600 
    225 H225       -6.1453  -23.5758  -52.2797 H         1 UNK         0.3000 
    226 H226       -7.2022  -24.9312  -54.5803 H         1 UNK         0.0600 
    227 H227       -5.2658  -26.4757  -54.1225 H         1 UNK         0.0600 
    228 H228       -5.0437  -25.5737  -55.6113 H         1 UNK         0.0600 
    229 H229       -4.1591  -25.1060  -54.1706 H         1 UNK         0.0600 
    230 H230       -7.8857  -23.1382  -55.5456 H         1 UNK         0.3000 
    231 H231       -7.0086  -20.5399  -55.0644 H         1 UNK         0.0600 
    232 H232       -8.5841  -19.9572  -56.9205 H         1 UNK         0.0600 
    233 H233       -9.2873  -21.1374  -55.8283 H         1 UNK         0.0600 
    234 H234       -8.6603  -21.6494  -57.3965 H         1 UNK         0.0600 
    235 H235       -5.6008  -22.7858  -57.2666 H         1 UNK         0.3000 
    236 H236       -4.3294  -20.9797  -59.1032 H         1 UNK         0.0600 
    237 H237       -4.6035  -23.4039  -59.5725 H         1 UNK         0.0600 
    238 H238       -2.9005  -22.9766  -59.5885 H         1 UNK         0.0600 
    239 H239       -3.5780  -23.8141  -58.1969 H         1 UNK         0.0600 
    240 H240       -3.6967  -21.8119  -55.7665 H         1 UNK         0.3000 
    241 H241       -2.2933  -21.1446  -54.2759 H         1 UNK         0.0600 
    242 H242        0.4842  -23.1848  -55.9763 H         1 UNK         0.3800 
    243 H243       -1.2105  -23.1376  -56.3857 H         1 UNK         0.3800 
    244 H244       -0.9653  -18.9232  -55.8383 H         1 UNK         0.0800 
    245 H245       -2.6917  -18.8470  -55.7040 H         1 UNK         0.0800 
    246 H246        0.6100  -18.5028  -54.1055 H         1 UNK         0.0800 
    247 H247       -0.0483  -16.9075  -53.8372 H         1 UNK         0.0800 
@<TRIPOS>BOND
     1    1    2 1    
     2    1  127 1    
     3    1  128 1    
     4    1  129 1    
     5    2    3 2    
     6    2    4 am   BACKBONE|DICT|INTERRES
     7    4    5 1    
     8    4  130 1    
     9    5    6 1    
    10    5   65 1    
    11    5  131 1    
    12    6    7 1    
    13    6  132 1    
    14    6  133 1    
    15    7    8 1    
    16    8    9 1    
    17    8  134 1    
    18    8  135 1    
    19    9   10 ar   
    20    9   14 ar   
    21   10   11 ar   
    22   10  136 1    
    23   11   12 ar   
    24   11  126 1    
    25   12   13 ar   
    26   12  137 1    
    27   13   14 ar   
    28   13   15 1    
    29   14  138 1    
    30   15   16 1    
    31   15  139 1    
    32   15  140 1    
    33   16   17 1    
    34   17   18 1    
    35   17  141 1    
    36   17  142 1    
    37   18   19 1    
    38   18   67 1    
    39   18  143 1    
    40   19   20 am   BACKBONE|DICT|INTERRES
    41   19  144 1    
    42   20   21 2    
    43   20   22 1    
    44   22   23 1    
    45   22   24 1    
    46   22  145 1    
    47   23  146 1    
    48   23  147 1    
    49   23  148 1    
    50   24   25 am   BACKBONE|DICT|INTERRES
    51   24  149 1    
    52   25   26 2    
    53   25   27 1    
    54   27   28 1    
    55   27   29 1    
    56   27  150 1    
    57   28  151 1    
    58   28  152 1    
    59   28  153 1    
    60   29   30 am   BACKBONE|DICT|INTERRES
    61   29  154 1    
    62   30   31 2    
    63   30   32 1    
    64   32   33 1    
    65   32   34 1    
    66   32  155 1    
    67   33  156 1    
    68   33  157 1    
    69   33  158 1    
    70   34   35 am   BACKBONE|DICT|INTERRES
    71   34  159 1    
    72   35   36 2    
    73   35   37 1    
    74   37   38 1    
    75   37   39 1    
    76   37  160 1    
    77   38  161 1    
    78   38  162 1    
    79   38  163 1    
    80   39   40 am   BACKBONE|DICT|INTERRES
    81   39  164 1    
    82   40   41 2    
    83   40   42 1    
    84   42   43 1    
    85   42   44 1    
    86   42  165 1    
    87   43  166 1    
    88   43  167 1    
    89   43  168 1    
    90   44   45 am   BACKBONE|DICT|INTERRES
    91   44  169 1    
    92   45   46 2    
    93   45   47 1    
    94   47   48 1    
    95   47   49 1    
    96   47  170 1    
    97   48  171 1    
    98   48  172 1    
    99   48  173 1    
   100   49   50 am   BACKBONE|DICT|INTERRES
   101   49  174 1    
   102   50   51 2    
   103   50   52 1    
   104   52   53 1    
   105   52   54 1    
   106   52  175 1    
   107   53  176 1    
   108   53  177 1    
   109   53  178 1    
   110   54   55 am   BACKBONE|DICT|INTERRES
   111   54  179 1    
   112   55   56 2    
   113   55   57 1    
   114   57   58 1    
   115   57   59 1    
   116   57  180 1    
   117   58  181 1    
   118   58  182 1    
   119   58  183 1    
   120   59   60 am   BACKBONE|DICT|INTERRES
   121   59  184 1    
   122   60   61 2    
   123   60   62 1    
   124   62   63 1    
   125   62   64 1    
   126   62  185 1    
   127   63  186 1    
   128   63  187 1    
   129   63  188 1    
   130   64   65 am   BACKBONE|DICT|INTERRES
   131   64  189 1    
   132   65   66 2    
   133   67   68 2    
   134   67   69 am   BACKBONE|DICT|INTERRES
   135   69   70 1    
   136   69  190 1    
   137   70   71 1    
   138   70   72 1    
   139   70  191 1    
   140   71  192 1    
   141   71  193 1    
   142   71  194 1    
   143   72   73 2    
   144   72   74 am   BACKBONE|DICT|INTERRES
   145   74   75 1    
   146   74  195 1    
   147   75   76 1    
   148   75   77 1    
   149   75  196 1    
   150   76  197 1    
   151   76  198 1    
   152   76  199 1    
   153   77   78 2    
   154   77   79 am   BACKBONE|DICT|INTERRES
   155   79   80 1    
   156   79  200 1    
   157   80   81 1    
   158   80   82 1    
   159   80  201 1    
   160   81  202 1    
   161   81  203 1    
   162   81  204 1    
   163   82   83 2    
   164   82   84 am   BACKBONE|DICT|INTERRES
   165   84   85 1    
   166   84  205 1    
   167   85   86 1    
   168   85   87 1    
   169   85  206 1    
   170   86  207 1    
   171   86  208 1    
   172   86  209 1    
   173   87   88 2    
   174   87   89 am   BACKBONE|DICT|INTERRES
   175   89   90 1    
   176   89  210 1    
   177   90   91 1    
   178   90   92 1    
   179   90  211 1    
   180   91  212 1    
   181   91  213 1    
   182   91  214 1    
   183   92   93 2    
   184   92   94 am   BACKBONE|DICT|INTERRES
   185   94   95 1    
   186   94  215 1    
   187   95   96 1    
   188   95   97 1    
   189   95  216 1    
   190   96  217 1    
   191   96  218 1    
   192   96  219 1    
   193   97   98 2    
   194   97   99 am   BACKBONE|DICT|INTERRES
   195   99  100 1    
   196   99  220 1    
   197  100  101 1    
   198  100  102 1    
   199  100  221 1    
   200  101  222 1    
   201  101  223 1    
   202  101  224 1    
   203  102  103 2    
   204  102  104 am   BACKBONE|DICT|INTERRES
   205  104  105 1    
   206  104  225 1    
   207  105  106 1    
   208  105  107 1    
   209  105  226 1    
   210  106  227 1    
   211  106  228 1    
   212  106  229 1    
   213  107  108 2    
   214  107  109 am   BACKBONE|DICT|INTERRES
   215  109  110 1    
   216  109  230 1    
   217  110  111 1    
   218  110  112 1    
   219  110  231 1    
   220  111  232 1    
   221  111  233 1    
   222  111  234 1    
   223  112  113 2    
   224  112  114 am   BACKBONE|DICT|INTERRES
   225  114  115 1    
   226  114  235 1    
   227  115  116 1    
   228  115  117 1    
   229  115  236 1    
   230  116  237 1    
   231  116  238 1    
   232  116  239 1    
   233  117  118 2    
   234  117  119 am   BACKBONE|DICT|INTERRES
   235  119  120 1    
   236  119  240 1    
   237  120  121 1    
   238  120  124 1    
   239  120  241 1    
   240  121  122 am   BACKBONE|DICT|INTERRES
   241  121  123 2    
   242  122  242 1    
   243  122  243 1    
   244  124  125 1    
   245  124  244 1    
   246  124  245 1    
   247  125  126 1    
   248  126  246 1    
   249  126  247 1    
@<TRIPOS>SUBSTRUCTURE
     1 UNK         1 GROUP             0       ****    0 ROOT    
