@<TRIPOS>MOLECULE
3R540
247   249    1
SMALL
USER_CHARGES


@<TRIPOS>ATOM
      1 CA         -3.2431  -15.5035  -47.8563 C.3       0 UNK        -0.1800 
      2 C          -2.0718  -14.6028  -48.2256 C.2       0 UNK         0.5000 
      3 O          -2.1797  -13.3810  -48.1166 O.2       0 UNK        -0.5000 
      4 N          -0.9679  -15.2041  -48.6830 N.am      1 UNK        -0.5000 
      5 CA          0.2621  -14.5235  -49.1025 C.3       1 UNK         0.1400 
      6 C6          1.1630  -15.4719  -49.9342 C.3       23 UNK        -0.0398 
      7 S7          2.0244  -14.6069  -51.2934 S.3       23 UNK        -0.2404 
      8 C8          3.5182  -15.6308  -51.4992 C.3       23 UNK        -0.0205 
      9 C9          3.1875  -17.1133  -51.5978 C.ar      23 UNK        -0.0193 
     10 C10         2.4429  -17.6050  -52.6732 C.ar      23 UNK        -0.1150 
     11 C11         2.0811  -18.9542  -52.7339 C.ar      23 UNK        -0.0193 
     12 C12         2.5012  -19.8194  -51.7164 C.ar      23 UNK        -0.1150 
     13 C13         3.2286  -19.3349  -50.6253 C.ar      23 UNK        -0.0193 
     14 C14         3.5856  -17.9853  -50.5828 C.ar      23 UNK        -0.1150 
     15 C15         3.5910  -20.2577  -49.4700 C.3       23 UNK        -0.0205 
     16 S16         2.8950  -19.6880  -47.8808 S.3       23 UNK        -0.2404 
     17 C17         1.0964  -19.7429  -48.2001 C.3       23 UNK        -0.0398 
     18 CA          0.4617  -21.0533  -47.6857 C.3       11 UNK         0.1400 
     19 N           0.4553  -21.1340  -46.2239 N.am      11 UNK        -0.5000 
     20 C           0.1971  -22.2481  -45.5279 C.2       10 UNK         0.5000 
     21 O          -0.0630  -23.3338  -46.0468 O.2       10 UNK        -0.5000 
     22 CA          0.1917  -22.1224  -43.9949 C.3       10 UNK         0.1400 
     23 CB          1.6252  -22.0569  -43.4472 C.3       10 UNK        -0.1800 
     24 N          -0.5754  -20.9694  -43.5209 N.am      10 UNK        -0.5000 
     25 C          -1.8932  -20.8089  -43.7105 C.2       9 UNK         0.5000 
     26 O          -2.6028  -21.6193  -44.3049 O.2       9 UNK        -0.5000 
     27 CA         -2.5253  -19.5124  -43.1766 C.3       9 UNK         0.1400 
     28 CB         -2.7184  -19.5846  -41.6546 C.3       9 UNK        -0.1800 
     29 N          -1.7514  -18.3212  -43.5182 N.am      9 UNK        -0.5000 
     30 C          -1.5096  -17.9003  -44.7685 C.2       8 UNK         0.5000 
     31 O          -1.9298  -18.4609  -45.7800 O.2       8 UNK        -0.5000 
     32 CA         -0.5960  -16.6723  -44.9086 C.3       8 UNK         0.1400 
     33 CB         -1.3411  -15.3963  -44.4838 C.3       8 UNK        -0.1800 
     34 N           0.6331  -16.8025  -44.1269 N.am      8 UNK        -0.5000 
     35 C           1.5207  -17.8016  -44.2338 C.2       7 UNK         0.5000 
     36 O           1.4187  -18.7322  -45.0299 O.2       7 UNK        -0.5000 
     37 CA          2.6825  -17.7985  -43.2280 C.3       7 UNK         0.1400 
     38 CB          3.7698  -16.7911  -43.6349 C.3       7 UNK        -0.1800 
     39 N           2.2182  -17.5154  -41.8698 N.am      7 UNK        -0.5000 
     40 C           1.4338  -18.3331  -41.1517 C.2       6 UNK         0.5000 
     41 O           1.0509  -19.4360  -41.5414 O.2       6 UNK        -0.5000 
     42 CA          0.9642  -17.8071  -39.7838 C.3       6 UNK         0.1400 
     43 CB          2.0540  -18.0064  -38.7198 C.3       6 UNK        -0.1800 
     44 N           0.5843  -16.3949  -39.8340 N.am      6 UNK        -0.5000 
     45 C          -0.4743  -15.9225  -40.5073 C.2       5 UNK         0.5000 
     46 O          -1.2695  -16.6358  -41.1188 O.2       5 UNK        -0.5000 
     47 CA         -0.6443  -14.3916  -40.5385 C.3       5 UNK         0.1400 
     48 CB         -1.4267  -13.9103  -39.3076 C.3       5 UNK        -0.1800 
     49 N           0.6272  -13.6644  -40.6233 N.am      5 UNK        -0.5000 
     50 C           1.4909  -13.7650  -41.6416 C.2       4 UNK         0.5000 
     51 O           1.3255  -14.5115  -42.6083 O.2       4 UNK        -0.5000 
     52 CA          2.7717  -12.9294  -41.5484 C.3       4 UNK         0.1400 
     53 CB          3.8085  -13.6191  -40.6444 C.3       4 UNK        -0.1800 
     54 N           3.3235  -12.7706  -42.8905 N.am      4 UNK        -0.5000 
     55 C           4.0352  -11.7223  -43.3172 C.2       3 UNK         0.5000 
     56 O           4.3209  -10.7645  -42.5968 O.2       3 UNK        -0.5000 
     57 CA          4.5134  -11.7372  -44.7837 C.3       3 UNK         0.1400 
     58 CB          5.9658  -11.2383  -44.9009 C.3       3 UNK        -0.1800 
     59 N           4.4372  -13.0791  -45.3768 N.am      3 UNK        -0.5000 
     60 C           3.8394  -13.4675  -46.5133 C.2       2 UNK         0.5000 
     61 O           3.9707  -14.6214  -46.9243 O.2       2 UNK        -0.5000 
     62 CA          3.0071  -12.4580  -47.3464 C.3       2 UNK         0.1400 
     63 CB          3.9230  -11.5482  -48.1840 C.3       2 UNK        -0.1800 
     64 N           2.0773  -13.1103  -48.2709 N.am      2 UNK        -0.5000 
     65 C           1.0414  -13.8853  -47.9268 C.2       1 UNK         0.5000 
     66 O           0.7174  -14.1028  -46.7583 O.2       1 UNK        -0.5000 
     67 C          -0.9408  -21.2783  -48.2842 C.2       11 UNK         0.5000 
     68 O          -1.0495  -21.9692  -49.2971 O.2       11 UNK        -0.5000 
     69 N          -1.9904  -20.7513  -47.6354 N.am      12 UNK        -0.5000 
     70 CA         -3.3819  -21.0057  -48.0067 C.3       12 UNK         0.1400 
     71 CB         -4.3204  -20.0754  -47.2261 C.3       12 UNK        -0.1800 
     72 C          -3.7788  -22.4787  -47.8067 C.2       12 UNK         0.5000 
     73 O          -4.3896  -23.0609  -48.7026 O.2       12 UNK        -0.5000 
     74 N          -3.4022  -23.0692  -46.6631 N.am      13 UNK        -0.5000 
     75 CA         -3.6408  -24.4772  -46.3356 C.3       13 UNK         0.1400 
     76 CB         -3.2232  -24.7571  -44.8846 C.3       13 UNK        -0.1800 
     77 C          -2.9367  -25.4434  -47.3044 C.2       13 UNK         0.5000 
     78 O          -3.5630  -26.3977  -47.7673 O.2       13 UNK        -0.5000 
     79 N          -1.6738  -25.1453  -47.6437 N.am      14 UNK        -0.5000 
     80 CA         -0.8786  -25.8690  -48.6413 C.3       14 UNK         0.1400 
     81 CB          0.5550  -25.3174  -48.6433 C.3       14 UNK        -0.1800 
     82 C          -1.4805  -25.8092  -50.0597 C.2       14 UNK         0.5000 
     83 O          -1.3263  -26.7576  -50.8292 O.2       14 UNK        -0.5000 
     84 N          -2.1902  -24.7151  -50.3580 N.am      15 UNK        -0.5000 
     85 CA         -2.9391  -24.4827  -51.5899 C.3       15 UNK         0.1400 
     86 CB         -2.8670  -22.9860  -51.9210 C.3       15 UNK        -0.1800 
     87 C          -4.3968  -24.9803  -51.5180 C.2       15 UNK         0.5000 
     88 O          -5.2145  -24.5318  -52.3211 O.2       15 UNK        -0.5000 
     89 N          -4.7065  -25.8815  -50.5728 N.am      16 UNK        -0.5000 
     90 CA         -6.0040  -26.5337  -50.3631 C.3       16 UNK         0.1400 
     91 CB         -6.3531  -27.4493  -51.5558 C.3       16 UNK        -0.1800 
     92 C          -7.1230  -25.5294  -50.0212 C.2       16 UNK         0.5000 
     93 O          -8.1830  -25.5389  -50.6493 O.2       16 UNK        -0.5000 
     94 N          -6.8395  -24.6713  -49.0313 N.am      17 UNK        -0.5000 
     95 CA         -7.6577  -23.5452  -48.5675 C.3       17 UNK         0.1400 
     96 CB         -9.0205  -24.0159  -48.0164 C.3       17 UNK        -0.1800 
     97 C          -7.7668  -22.4446  -49.6418 C.2       17 UNK         0.5000 
     98 O          -8.8556  -21.9313  -49.9056 O.2       17 UNK        -0.5000 
     99 N          -6.6086  -22.1134  -50.2301 N.am      18 UNK        -0.5000 
    100 CA        -6.3840  -21.1108  -51.2723 C.3       18 UNK         0.1400 
    101 CB        -6.5621  -19.6876  -50.7054 C.3       18 UNK        -0.1800 
    102 C         -7.2052  -21.3695  -52.5528 C.2       18 UNK         0.5000 
    103 O         -7.8624  -20.4614  -53.0667 O.2       18 UNK        -0.5000 
    104 N         -7.1358  -22.6087  -53.0602 N.am      19 UNK        -0.5000 
    105 CA        -7.6171  -22.9724  -54.3942 C.3       19 UNK         0.1400 
    106 CB        -7.7464  -24.4998  -54.5013 C.3       19 UNK        -0.1800 
    107 C         -6.6787  -22.4161  -55.4834 C.2       19 UNK         0.5000 
    108 O         -7.1538  -21.9532  -56.5212 O.2       19 UNK        -0.5000 
    109 N         -5.3695  -22.4239  -55.1960 N.am      20 UNK        -0.5000 
    110 CA        -4.3583  -21.6351  -55.8981 C.3       20 UNK         0.1400 
    111 CB        -3.0266  -22.4030  -55.9017 C.3       20 UNK        -0.1800 
    112 C         -4.2017  -20.2740  -55.1953 C.2       20 UNK         0.5000 
    113 O         -4.5374  -20.1491  -54.0137 O.2       20 UNK        -0.5000 
    114 N         -3.6764  -19.2795  -55.9215 N.am      21 UNK        -0.5000 
    115 CA        -3.5094  -17.8863  -55.4880 C.3       21 UNK         0.1400 
    116 CB        -3.3332  -17.0052  -56.7384 C.3       21 UNK        -0.1800 
    117 C         -2.3784  -17.6803  -54.4514 C.2       21 UNK         0.5000 
    118 O         -1.4875  -16.8542  -54.6581 O.2       21 UNK        -0.5000 
    119 N         -2.4405  -18.4409  -53.3566 N.am      22 UNK        -0.5000 
    120 CA        -1.4952  -18.4333  -52.2306 C.3       22 UNK         0.1400 
    121 C         -2.1202  -17.8966  -50.9093 C.2       22 UNK         0.5000 
    122 N         -3.3778  -17.4715  -50.8921 N.am      22 UNK        -0.7600 
    123 O         -1.4520  -17.8584  -49.8793 O.2       22 UNK        -0.5000 
    124 C124       -0.8942  -19.8395  -51.9956 C.3       23 UNK        -0.0398 
    125 S125       -0.0993  -20.6204  -53.4467 S.3       23 UNK        -0.2404 
    126 C126        1.2269  -19.4457  -53.9005 C.3       23 UNK        -0.0205 
    127 H127       -2.9302  -16.5416  -47.7356 H         1 UNK         0.0600 
    128 H128       -4.0064  -15.4595  -48.6325 H         1 UNK         0.0600 
    129 H129       -3.6966  -15.1763  -46.9213 H         1 UNK         0.0600 
    130 H130       -0.9777  -16.2121  -48.8035 H         1 UNK         0.3000 
    131 H131       -0.0605  -13.7015  -49.7455 H         1 UNK         0.0600 
    132 H132        1.8781  -15.9991  -49.2989 H         1 UNK         0.0800 
    133 H133        0.5677  -16.2512  -50.4102 H         1 UNK         0.0800 
    134 H134        4.1939  -15.4388  -50.6640 H         1 UNK         0.0800 
    135 H135        4.0455  -15.3173  -52.4010 H         1 UNK         0.0800 
    136 H136        2.1206  -16.9245  -53.4492 H         1 UNK         0.1150 
    137 H137        2.2243  -20.8635  -51.7540 H         1 UNK         0.1150 
    138 H138        4.1414  -17.6086  -49.7353 H         1 UNK         0.1150 
    139 H139        3.2498  -21.2763  -49.6612 H         1 UNK         0.0800 
    140 H140        4.6772  -20.3066  -49.3834 H         1 UNK         0.0800 
    141 H141        0.9235  -19.6140  -49.2663 H         1 UNK         0.0800 
    142 H142        0.6293  -18.8800  -47.7216 H         1 UNK         0.0800 
    143 H143        1.0783  -21.8790  -48.0480 H         1 UNK         0.0600 
    144 H144        0.6946  -20.2783  -45.7256 H         1 UNK         0.3000 
    145 H145       -0.2811  -23.0208  -43.5931 H         1 UNK         0.0600 
    146 H146        1.6308  -22.0721  -42.3573 H         1 UNK         0.0600 
    147 H147        2.2134  -22.9100  -43.7875 H         1 UNK         0.0600 
    148 H148        2.1396  -21.1518  -43.7714 H         1 UNK         0.0600 
    149 H149       -0.0605  -20.2646  -43.0023 H         1 UNK         0.3000 
    150 H150       -3.5093  -19.4100  -43.6387 H         1 UNK         0.0600 
    151 H151       -3.2978  -20.4652  -41.3747 H         1 UNK         0.0600 
    152 H152       -3.2550  -18.7108  -41.2846 H         1 UNK         0.0600 
    153 H153       -1.7641  -19.6365  -41.1291 H         1 UNK         0.0600 
    154 H154       -1.3843  -17.7814  -42.7402 H         1 UNK         0.3000 
    155 H155       -0.3121  -16.5778  -45.9585 H         1 UNK         0.0600 
    156 H156       -1.6736  -15.4450  -43.4482 H         1 UNK         0.0600 
    157 H157       -2.2252  -15.2370  -45.0987 H         1 UNK         0.0600 
    158 H158       -0.7107  -14.5136  -44.5859 H         1 UNK         0.0600 
    159 H159        0.8263  -16.0520  -43.4678 H         1 UNK         0.3000 
    160 H160        3.1291  -18.7951  -43.2304 H         1 UNK         0.0600 
    161 H161        3.3921  -15.7697  -43.6593 H         1 UNK         0.0600 
    162 H162        4.1526  -17.0175  -44.6311 H         1 UNK         0.0600 
    163 H163        4.6144  -16.8211  -42.9466 H         1 UNK         0.0600 
    164 H164        2.4376  -16.6052  -41.4958 H         1 UNK         0.3000 
    165 H165        0.0870  -18.3862  -39.4871 H         1 UNK         0.0600 
    166 H166        1.7007  -17.7061  -37.7332 H         1 UNK         0.0600 
    167 H167        2.3465  -19.0552  -38.6538 H         1 UNK         0.0600 
    168 H168        2.9512  -17.4287  -38.9456 H         1 UNK         0.0600 
    169 H169        1.1839  -15.7394  -39.3554 H         1 UNK         0.3000 
    170 H170       -1.2270  -14.1439  -41.4279 H         1 UNK         0.0600 
    171 H171       -2.3871  -14.4221  -39.2312 H         1 UNK         0.0600 
    172 H172       -0.8800  -14.0983  -38.3827 H         1 UNK         0.0600 
    173 H173       -1.6338  -12.8416  -39.3648 H         1 UNK         0.0600 
    174 H174        0.8380  -13.0373  -39.8602 H         1 UNK         0.3000 
    175 H175        2.5115  -11.9527  -41.1348 H         1 UNK         0.0600 
    176 H176        4.0899  -14.5995  -41.0310 H         1 UNK         0.0600 
    177 H177        4.7164  -13.0216  -40.5604 H         1 UNK         0.0600 
    178 H178        3.4210  -13.7606  -39.6348 H         1 UNK         0.0600 
    179 H179        3.0428  -13.4881  -43.5470 H         1 UNK         0.3000 
    180 H180        3.8749  -11.0270  -45.3057 H         1 UNK         0.0600 
    181 H181        6.6473  -11.8489  -44.3074 H         1 UNK         0.0600 
    182 H182        6.0597  -10.2087  -44.5533 H         1 UNK         0.0600 
    183 H183        6.3155  -11.2615  -45.9328 H         1 UNK         0.0600 
    184 H184        4.9593  -13.7805  -44.8720 H         1 UNK         0.3000 
    185 H185        2.3998  -11.8516  -46.6733 H         1 UNK         0.0600 
    186 H186        4.5994  -10.9663  -47.5600 H         1 UNK         0.0600 
    187 H187        4.5366  -12.1277  -48.8752 H         1 UNK         0.0600 
    188 H188        3.3420  -10.8360  -48.7703 H         1 UNK         0.0600 
    189 H189        2.3008  -13.0266  -49.2525 H         1 UNK         0.3000 
    190 H190       -1.8357  -20.1462  -46.8342 H         1 UNK         0.3000 
    191 H191       -3.4920  -20.7744  -49.0685 H         1 UNK         0.0600 
    192 H192       -4.2153  -20.2073  -46.1488 H         1 UNK         0.0600 
    193 H193       -5.3635  -20.2661  -47.4814 H         1 UNK         0.0600 
    194 H194       -4.1147  -19.0298  -47.4566 H         1 UNK         0.0600 
    195 H195       -2.9370  -22.5131  -45.9497 H         1 UNK         0.3000 
    196 H196       -4.7149  -24.6560  -46.4156 H         1 UNK         0.0600 
    197 H197       -3.3954  -25.8016  -44.6218 H         1 UNK         0.0600 
    198 H198       -3.7971  -24.1480  -44.1863 H         1 UNK         0.0600 
    199 H199       -2.1662  -24.5461  -44.7208 H         1 UNK         0.0600 
    200 H200       -1.2149  -24.3653  -47.1788 H         1 UNK         0.3000 
    201 H201       -0.8429  -26.9182  -48.3414 H         1 UNK         0.0600 
    202 H202        1.0202  -25.4238  -47.6632 H         1 UNK         0.0600 
    203 H203        0.5771  -24.2605  -48.9113 H         1 UNK         0.0600 
    204 H204        1.1798  -25.8519  -49.3599 H         1 UNK         0.0600 
    205 H205       -2.2463  -23.9795  -49.6647 H         1 UNK         0.3000 
    206 H206       -2.4673  -25.0267  -52.4104 H         1 UNK         0.0600 
    207 H207       -1.8372  -22.7063  -52.1365 H         1 UNK         0.0600 
    208 H208       -3.4623  -22.7264  -52.7948 H         1 UNK         0.0600 
    209 H209       -3.2191  -22.3727  -51.0921 H         1 UNK         0.0600 
    210 H210       -3.9846  -26.1387  -49.9110 H         1 UNK         0.3000 
    211 H211       -5.8870  -27.1710  -49.4854 H         1 UNK         0.0600 
    212 H212       -6.5285  -26.8803  -52.4694 H         1 UNK         0.0600 
    213 H213       -7.2565  -28.0254  -51.3529 H         1 UNK         0.0600 
    214 H214       -5.5520  -28.1615  -51.7532 H         1 UNK         0.0600 
    215 H215       -5.9003  -24.6961  -48.6549 H         1 UNK         0.3000 
    216 H216       -7.1117  -23.0995  -47.7346 H         1 UNK         0.0600 
    217 H217       -9.5514  -23.1903  -47.5412 H         1 UNK         0.0600 
    218 H218       -8.8941  -24.7953  -47.2651 H         1 UNK         0.0600 
    219 H219       -9.6681  -24.4069  -48.8013 H         1 UNK         0.0600 
    220 H220       -5.7776  -22.5996  -49.9040 H         1 UNK         0.3000 
    221 H221       -5.3384  -21.2089  -51.5655 H         1 UNK         0.0600 
    222 H222       -7.5893  -19.5016  -50.3909 H         1 UNK         0.0600 
    223 H223       -5.9109  -19.5208  -49.8478 H         1 UNK         0.0600 
    224 H224       -6.3060  -18.9369  -51.4539 H         1 UNK         0.0600 
    225 H225       -6.5657  -23.3075  -52.5880 H         1 UNK         0.3000 
    226 H226       -8.6077  -22.5363  -54.5395 H         1 UNK         0.0600 
    227 H227       -8.3854  -24.8980  -53.7126 H         1 UNK         0.0600 
    228 H228       -8.1882  -24.7852  -55.4566 H         1 UNK         0.0600 
    229 H229       -6.7783  -24.9959  -54.4284 H         1 UNK         0.0600 
    230 H230       -5.0959  -22.7924  -54.2964 H         1 UNK         0.3000 
    231 H231       -4.6673  -21.4668  -56.9318 H         1 UNK         0.0600 
    232 H232       -3.1447  -23.3956  -56.3365 H         1 UNK         0.0600 
    233 H233       -2.6172  -22.5226  -54.8993 H         1 UNK         0.0600 
    234 H234       -2.2766  -21.8773  -56.4938 H         1 UNK         0.0600 
    235 H235       -3.3828  -19.4789  -56.8668 H         1 UNK         0.3000 
    236 H236       -4.4353  -17.5750  -54.9999 H         1 UNK         0.0600 
    237 H237       -3.2680  -15.9499  -56.4699 H         1 UNK         0.0600 
    238 H238       -2.4260  -17.2624  -57.2866 H         1 UNK         0.0600 
    239 H239       -4.1785  -17.1110  -57.4186 H         1 UNK         0.0600 
    240 H240       -3.1995  -19.1166  -53.3054 H         1 UNK         0.3000 
    241 H241       -0.6727  -17.7516  -52.4510 H         1 UNK         0.0600 
    242 H242       -3.7746  -17.1389  -50.0305 H         1 UNK         0.3800 
    243 H243       -3.9301  -17.4706  -51.7338 H         1 UNK         0.3800 
    244 H244       -0.1657  -19.8124  -51.1891 H         1 UNK         0.0800 
    245 H245       -1.6794  -20.5077  -51.6467 H         1 UNK         0.0800 
    246 H246        0.7641  -18.6004  -54.4119 H         1 UNK         0.0800 
    247 H247        1.8795  -19.9237  -54.6317 H         1 UNK         0.0800 
@<TRIPOS>BOND
     1    1    2 1    
     2    1  127 1    
     3    1  128 1    
     4    1  129 1    
     5    2    3 2    
     6    2    4 am   BACKBONE|DICT|INTERRES
     7    4    5 1    
     8    4  130 1    
     9    5    6 1    
    10    5   65 1    
    11    5  131 1    
    12    6    7 1    
    13    6  132 1    
    14    6  133 1    
    15    7    8 1    
    16    8    9 1    
    17    8  134 1    
    18    8  135 1    
    19    9   10 ar   
    20    9   14 ar   
    21   10   11 ar   
    22   10  136 1    
    23   11   12 ar   
    24   11  126 1    
    25   12   13 ar   
    26   12  137 1    
    27   13   14 ar   
    28   13   15 1    
    29   14  138 1    
    30   15   16 1    
    31   15  139 1    
    32   15  140 1    
    33   16   17 1    
    34   17   18 1    
    35   17  141 1    
    36   17  142 1    
    37   18   19 1    
    38   18   67 1    
    39   18  143 1    
    40   19   20 am   BACKBONE|DICT|INTERRES
    41   19  144 1    
    42   20   21 2    
    43   20   22 1    
    44   22   23 1    
    45   22   24 1    
    46   22  145 1    
    47   23  146 1    
    48   23  147 1    
    49   23  148 1    
    50   24   25 am   BACKBONE|DICT|INTERRES
    51   24  149 1    
    52   25   26 2    
    53   25   27 1    
    54   27   28 1    
    55   27   29 1    
    56   27  150 1    
    57   28  151 1    
    58   28  152 1    
    59   28  153 1    
    60   29   30 am   BACKBONE|DICT|INTERRES
    61   29  154 1    
    62   30   31 2    
    63   30   32 1    
    64   32   33 1    
    65   32   34 1    
    66   32  155 1    
    67   33  156 1    
    68   33  157 1    
    69   33  158 1    
    70   34   35 am   BACKBONE|DICT|INTERRES
    71   34  159 1    
    72   35   36 2    
    73   35   37 1    
    74   37   38 1    
    75   37   39 1    
    76   37  160 1    
    77   38  161 1    
    78   38  162 1    
    79   38  163 1    
    80   39   40 am   BACKBONE|DICT|INTERRES
    81   39  164 1    
    82   40   41 2    
    83   40   42 1    
    84   42   43 1    
    85   42   44 1    
    86   42  165 1    
    87   43  166 1    
    88   43  167 1    
    89   43  168 1    
    90   44   45 am   BACKBONE|DICT|INTERRES
    91   44  169 1    
    92   45   46 2    
    93   45   47 1    
    94   47   48 1    
    95   47   49 1    
    96   47  170 1    
    97   48  171 1    
    98   48  172 1    
    99   48  173 1    
   100   49   50 am   BACKBONE|DICT|INTERRES
   101   49  174 1    
   102   50   51 2    
   103   50   52 1    
   104   52   53 1    
   105   52   54 1    
   106   52  175 1    
   107   53  176 1    
   108   53  177 1    
   109   53  178 1    
   110   54   55 am   BACKBONE|DICT|INTERRES
   111   54  179 1    
   112   55   56 2    
   113   55   57 1    
   114   57   58 1    
   115   57   59 1    
   116   57  180 1    
   117   58  181 1    
   118   58  182 1    
   119   58  183 1    
   120   59   60 am   BACKBONE|DICT|INTERRES
   121   59  184 1    
   122   60   61 2    
   123   60   62 1    
   124   62   63 1    
   125   62   64 1    
   126   62  185 1    
   127   63  186 1    
   128   63  187 1    
   129   63  188 1    
   130   64   65 am   BACKBONE|DICT|INTERRES
   131   64  189 1    
   132   65   66 2    
   133   67   68 2    
   134   67   69 am   BACKBONE|DICT|INTERRES
   135   69   70 1    
   136   69  190 1    
   137   70   71 1    
   138   70   72 1    
   139   70  191 1    
   140   71  192 1    
   141   71  193 1    
   142   71  194 1    
   143   72   73 2    
   144   72   74 am   BACKBONE|DICT|INTERRES
   145   74   75 1    
   146   74  195 1    
   147   75   76 1    
   148   75   77 1    
   149   75  196 1    
   150   76  197 1    
   151   76  198 1    
   152   76  199 1    
   153   77   78 2    
   154   77   79 am   BACKBONE|DICT|INTERRES
   155   79   80 1    
   156   79  200 1    
   157   80   81 1    
   158   80   82 1    
   159   80  201 1    
   160   81  202 1    
   161   81  203 1    
   162   81  204 1    
   163   82   83 2    
   164   82   84 am   BACKBONE|DICT|INTERRES
   165   84   85 1    
   166   84  205 1    
   167   85   86 1    
   168   85   87 1    
   169   85  206 1    
   170   86  207 1    
   171   86  208 1    
   172   86  209 1    
   173   87   88 2    
   174   87   89 am   BACKBONE|DICT|INTERRES
   175   89   90 1    
   176   89  210 1    
   177   90   91 1    
   178   90   92 1    
   179   90  211 1    
   180   91  212 1    
   181   91  213 1    
   182   91  214 1    
   183   92   93 2    
   184   92   94 am   BACKBONE|DICT|INTERRES
   185   94   95 1    
   186   94  215 1    
   187   95   96 1    
   188   95   97 1    
   189   95  216 1    
   190   96  217 1    
   191   96  218 1    
   192   96  219 1    
   193   97   98 2    
   194   97   99 am   BACKBONE|DICT|INTERRES
   195   99  100 1    
   196   99  220 1    
   197  100  101 1    
   198  100  102 1    
   199  100  221 1    
   200  101  222 1    
   201  101  223 1    
   202  101  224 1    
   203  102  103 2    
   204  102  104 am   BACKBONE|DICT|INTERRES
   205  104  105 1    
   206  104  225 1    
   207  105  106 1    
   208  105  107 1    
   209  105  226 1    
   210  106  227 1    
   211  106  228 1    
   212  106  229 1    
   213  107  108 2    
   214  107  109 am   BACKBONE|DICT|INTERRES
   215  109  110 1    
   216  109  230 1    
   217  110  111 1    
   218  110  112 1    
   219  110  231 1    
   220  111  232 1    
   221  111  233 1    
   222  111  234 1    
   223  112  113 2    
   224  112  114 am   BACKBONE|DICT|INTERRES
   225  114  115 1    
   226  114  235 1    
   227  115  116 1    
   228  115  117 1    
   229  115  236 1    
   230  116  237 1    
   231  116  238 1    
   232  116  239 1    
   233  117  118 2    
   234  117  119 am   BACKBONE|DICT|INTERRES
   235  119  120 1    
   236  119  240 1    
   237  120  121 1    
   238  120  124 1    
   239  120  241 1    
   240  121  122 am   BACKBONE|DICT|INTERRES
   241  121  123 2    
   242  122  242 1    
   243  122  243 1    
   244  124  125 1    
   245  124  244 1    
   246  124  245 1    
   247  125  126 1    
   248  126  246 1    
   249  126  247 1    
@<TRIPOS>SUBSTRUCTURE
     1 UNK         1 GROUP             0       ****    0 ROOT    
