@<TRIPOS>MOLECULE
3R540
247   249    1
SMALL
USER_CHARGES


@<TRIPOS>ATOM
      1 CA          5.9728  -13.5387  -46.0178 C.3       0 UNK        -0.1800 
      2 C           4.5525  -13.0074  -45.9042 C.2       0 UNK         0.5000 
      3 O           4.1247  -12.6373  -44.8120 O.2       0 UNK        -0.5000 
      4 N           3.8260  -12.9519  -47.0283 N.am      1 UNK        -0.5000 
      5 CA          2.4151  -12.5454  -47.1209 C.3       1 UNK         0.1400 
      6 C6          1.8591  -12.6739  -48.5622 C.3       23 UNK        -0.0398 
      7 S7          2.1987  -14.2795  -49.3588 S.3       23 UNK        -0.2404 
      8 C8          0.9087  -15.3119  -48.6043 C.3       23 UNK        -0.0205 
      9 C9          0.7934  -16.6658  -49.2880 C.ar      23 UNK        -0.0193 
     10 C10        -0.3980  -17.0334  -49.9231 C.ar      23 UNK        -0.1150 
     11 C11        -0.5273  -18.2944  -50.5113 C.ar      23 UNK        -0.0193 
     12 C12         0.5547  -19.1757  -50.4933 C.ar      23 UNK        -0.1150 
     13 C13         1.7457  -18.8269  -49.8518 C.ar      23 UNK        -0.0193 
     14 C14         1.8588  -17.5719  -49.2471 C.ar      23 UNK        -0.1150 
     15 C15         2.8969  -19.8202  -49.7981 C.3       23 UNK        -0.0205 
     16 S16         2.8839  -20.8001  -48.2624 S.3       23 UNK        -0.2404 
     17 C17         1.2390  -21.5843  -48.3483 C.3       23 UNK        -0.0398 
     18 CA          1.0468  -22.6857  -47.2845 C.3       11 UNK         0.1400 
     19 N           1.0644  -22.1642  -45.9161 N.am      11 UNK        -0.5000 
     20 C           1.2034  -22.9289  -44.8248 C.2       10 UNK         0.5000 
     21 O           1.4100  -24.1419  -44.8630 O.2       10 UNK        -0.5000 
     22 CA          1.0565  -22.2339  -43.4592 C.3       10 UNK         0.1400 
     23 CB          2.3824  -21.5864  -43.0325 C.3       10 UNK        -0.1800 
     24 N          -0.0096  -21.2318  -43.4395 N.am      10 UNK        -0.5000 
     25 C          -1.3120  -21.4980  -43.6167 C.2       9 UNK         0.5000 
     26 O          -1.7631  -22.6319  -43.7818 O.2       9 UNK        -0.5000 
     27 CA         -2.2668  -20.2889  -43.6590 C.3       9 UNK         0.1400 
     28 CB         -2.6127  -19.8132  -42.2406 C.3       9 UNK        -0.1800 
     29 N          -1.7356  -19.1686  -44.4382 N.am      9 UNK        -0.5000 
     30 C          -1.4397  -19.2287  -45.7449 C.2       8 UNK         0.5000 
     31 O          -1.5949  -20.2301  -46.4388 O.2       8 UNK        -0.5000 
     32 CA         -0.8112  -17.9776  -46.3702 C.3       8 UNK         0.1400 
     33 CB         -1.8892  -16.9342  -46.7044 C.3       8 UNK        -0.1800 
     34 N           0.2101  -17.3947  -45.5008 N.am      8 UNK        -0.5000 
     35 C           1.3771  -17.9921  -45.2154 C.2       7 UNK         0.5000 
     36 O           1.7183  -19.0813  -45.6725 O.2       7 UNK        -0.5000 
     37 CA          2.2878  -17.2799  -44.1996 C.3       7 UNK         0.1400 
     38 CB          3.0592  -16.1348  -44.8726 C.3       7 UNK        -0.1800 
     39 N           1.5395  -16.7596  -43.0550 N.am      7 UNK        -0.5000 
     40 C           0.8684  -17.5239  -42.1785 C.2       6 UNK         0.5000 
     41 O           0.8780  -18.7537  -42.2001 O.2       6 UNK        -0.5000 
     42 CA         -0.0029  -16.8012  -41.1324 C.3       6 UNK         0.1400 
     43 CB          0.7843  -16.5936  -39.8303 C.3       6 UNK        -0.1800 
     44 N          -0.5142  -15.5100  -41.5925 N.am      6 UNK        -0.5000 
     45 C          -1.2765  -15.3089  -42.6778 C.2       5 UNK         0.5000 
     46 O          -1.7124  -16.2236  -43.3774 O.2       5 UNK        -0.5000 
     47 CA         -1.5566  -13.8433  -43.0725 C.3       5 UNK         0.1400 
     48 CB         -3.0075  -13.4653  -42.7405 C.3       5 UNK        -0.1800 
     49 N          -0.6508  -12.8876  -42.4232 N.am      5 UNK        -0.5000 
     50 C           0.6595  -12.7761  -42.6815 C.2       4 UNK         0.5000 
     51 O           1.2456  -13.4243  -43.5506 O.2       4 UNK        -0.5000 
     52 CA          1.4509  -11.8707  -41.7308 C.3       4 UNK         0.1400 
     53 CB          1.9047  -12.6772  -40.4971 C.3       4 UNK        -0.1800 
     54 N           2.6081  -11.2976  -42.4114 N.am      4 UNK        -0.5000 
     55 C           3.2909  -10.2335  -41.9673 C.2       3 UNK         0.5000 
     56 O           3.0146   -9.6276  -40.9308 O.2       3 UNK        -0.5000 
     57 CA          4.4633   -9.7411  -42.8291 C.3       3 UNK         0.1400 
     58 CB          5.7129  -10.6110  -42.6170 C.3       3 UNK        -0.1800 
     59 N           4.1059   -9.7122  -44.2456 N.am      3 UNK        -0.5000 
     60 C           3.4353   -8.7081  -44.8294 C.2       2 UNK         0.5000 
     61 O           3.0799   -7.6905  -44.2334 O.2       2 UNK        -0.5000 
     62 CA          3.1166   -8.8412  -46.3310 C.3       2 UNK         0.1400 
     63 CB          4.1143   -8.0224  -47.1650 C.3       2 UNK        -0.1800 
     64 N           3.1375  -10.2251  -46.8005 N.am      2 UNK        -0.5000 
     65 C           2.1565  -11.1153  -46.5994 C.2       1 UNK         0.5000 
     66 O           1.0965  -10.8505  -46.0318 O.2       1 UNK        -0.5000 
     67 C          -0.2448  -23.4804  -47.5570 C.2       11 UNK         0.5000 
     68 O          -0.1654  -24.6150  -48.0285 O.2       11 UNK        -0.5000 
     69 N          -1.4069  -22.8951  -47.2304 N.am      12 UNK        -0.5000 
     70 CA         -2.7416  -23.4638  -47.4468 C.3       12 UNK         0.1400 
     71 CB         -3.8117  -22.4426  -47.0351 C.3       12 UNK        -0.1800 
     72 C          -2.9814  -24.8064  -46.7337 C.2       12 UNK         0.5000 
     73 O          -3.7710  -25.6135  -47.2213 O.2       12 UNK        -0.5000 
     74 N          -2.2616  -25.0567  -45.6318 N.am      13 UNK        -0.5000 
     75 CA         -2.2353  -26.3387  -44.9245 C.3       13 UNK         0.1400 
     76 CB         -1.3808  -26.1940  -43.6565 C.3       13 UNK        -0.1800 
     77 C          -1.7330  -27.5202  -45.7849 C.2       13 UNK         0.5000 
     78 O          -2.1016  -28.6611  -45.5022 O.2       13 UNK        -0.5000 
     79 N          -0.9245  -27.2327  -46.8152 N.am      14 UNK        -0.5000 
     80 CA         -0.4331  -28.2035  -47.7920 C.3       14 UNK         0.1400 
     81 CB          1.0997  -28.1112  -47.8590 C.3       14 UNK        -0.1800 
     82 C          -1.0454  -27.9640  -49.1836 C.2       14 UNK         0.5000 
     83 O          -1.4171  -28.9268  -49.8553 O.2       14 UNK        -0.5000 
     84 N          -1.1266  -26.6939  -49.6026 N.am      15 UNK        -0.5000 
     85 CA         -1.5340  -26.2796  -50.9470 C.3       15 UNK         0.1400 
     86 CB         -0.9392  -24.8900  -51.2324 C.3       15 UNK        -0.1800 
     87 C          -3.0567  -26.2513  -51.1720 C.2       15 UNK         0.5000 
     88 O          -3.4810  -26.1289  -52.3226 O.2       15 UNK        -0.5000 
     89 N          -3.8519  -26.3180  -50.0937 N.am      16 UNK        -0.5000 
     90 CA         -5.3022  -26.1067  -50.0674 C.3       16 UNK         0.1400 
     91 CB         -6.0461  -27.2371  -50.8155 C.3       16 UNK        -0.1800 
     92 C          -5.6362  -24.6803  -50.5512 C.2       16 UNK         0.5000 
     93 O          -5.1505  -23.7189  -49.9554 O.2       16 UNK        -0.5000 
     94 N          -6.4165  -24.5568  -51.6312 N.am      17 UNK        -0.5000 
     95 CA         -6.7321  -23.2809  -52.2752 C.3       17 UNK         0.1400 
     96 CB         -8.0676  -23.4199  -53.0207 C.3       17 UNK        -0.1800 
     97 C          -5.6253  -22.7877  -53.2311 C.2       17 UNK         0.5000 
     98 O          -5.7459  -21.6754  -53.7494 O.2       17 UNK        -0.5000 
     99 N          -4.5853  -23.6033  -53.4692 N.am      18 UNK        -0.5000 
    100 CA        -3.4867  -23.3831  -54.4151 C.3       18 UNK         0.1400 
    101 CB        -2.5705  -22.2357  -53.9322 C.3       18 UNK        -0.1800 
    102 C         -4.0315  -23.2024  -55.8476 C.2       18 UNK         0.5000 
    103 O         -4.7344  -24.0876  -56.3376 O.2       18 UNK        -0.5000 
    104 N         -3.7645  -22.0497  -56.4736 N.am      19 UNK        -0.5000 
    105 CA        -4.2938  -21.6383  -57.7774 C.3       19 UNK         0.1400 
    106 CB        -3.2988  -20.6532  -58.4177 C.3       19 UNK        -0.1800 
    107 C         -5.7246  -21.0545  -57.6820 C.2       19 UNK         0.5000 
    108 O         -6.0411  -20.0931  -58.3846 O.2       19 UNK        -0.5000 
    109 N         -6.5556  -21.6391  -56.8057 N.am      20 UNK        -0.5000 
    110 CA        -7.9315  -21.2564  -56.4702 C.3       20 UNK         0.1400 
    111 CB        -8.8747  -21.5184  -57.6630 C.3       20 UNK        -0.1800 
    112 C         -8.0307  -19.8179  -55.9179 C.2       20 UNK         0.5000 
    113 O         -8.8962  -19.0495  -56.3436 O.2       20 UNK        -0.5000 
    114 N         -7.1224  -19.4741  -54.9956 N.am      21 UNK        -0.5000 
    115 CA        -6.9759  -18.1229  -54.4485 C.3       21 UNK         0.1400 
    116 CB        -5.9981  -17.3271  -55.3315 C.3       21 UNK        -0.1800 
    117 C         -6.5254  -18.0885  -52.9770 C.2       21 UNK         0.5000 
    118 O         -6.7415  -17.0697  -52.3185 O.2       21 UNK        -0.5000 
    119 N         -5.8963  -19.1618  -52.4825 N.am      22 UNK        -0.5000 
    120 CA        -5.4005  -19.2729  -51.1019 C.3       22 UNK         0.1400 
    121 C         -6.5130  -19.6336  -50.0758 C.2       22 UNK         0.5000 
    122 N         -6.2297  -19.5115  -48.7863 N.am      22 UNK        -0.7600 
    123 O         -7.6185  -20.0399  -50.4279 O.2       22 UNK        -0.5000 
    124 C124       -4.1916  -20.2445  -51.0241 C.3       23 UNK        -0.0398 
    125 S125       -2.8612  -19.6349  -49.9384 S.3       23 UNK        -0.2404 
    126 C126       -1.8392  -18.7274  -51.1415 C.3       23 UNK        -0.0205 
    127 H127        6.2287  -13.7962  -47.0457 H         1 UNK         0.0600 
    128 H128        6.6821  -12.7895  -45.6663 H         1 UNK         0.0600 
    129 H129        6.0860  -14.4321  -45.4039 H         1 UNK         0.0600 
    130 H130        4.2325  -13.2784  -47.8937 H         1 UNK         0.3000 
    131 H131        1.8500  -13.2226  -46.4771 H         1 UNK         0.0600 
    132 H132        0.7822  -12.4961  -48.5738 H         1 UNK         0.0800 
    133 H133        2.2941  -11.9057  -49.2046 H         1 UNK         0.0800 
    134 H134       -0.0435  -14.7815  -48.6483 H         1 UNK         0.0800 
    135 H135        1.1368  -15.4612  -47.5483 H         1 UNK         0.0800 
    136 H136       -1.2361  -16.3509  -49.9361 H         1 UNK         0.1150 
    137 H137        0.4552  -20.1504  -50.9497 H         1 UNK         0.1150 
    138 H138        2.7732  -17.3019  -48.7377 H         1 UNK         0.1150 
    139 H139        2.8597  -20.4927  -50.6564 H         1 UNK         0.0800 
    140 H140        3.8461  -19.2874  -49.8698 H         1 UNK         0.0800 
    141 H141        1.1180  -21.9980  -49.3514 H         1 UNK         0.0800 
    142 H142        0.4755  -20.8131  -48.2313 H         1 UNK         0.0800 
    143 H143        1.8779  -23.3877  -47.3842 H         1 UNK         0.0600 
    144 H144        0.9498  -21.1629  -45.8078 H         1 UNK         0.3000 
    145 H145        0.8024  -23.0013  -42.7251 H         1 UNK         0.0600 
    146 H146        2.3137  -21.1760  -42.0249 H         1 UNK         0.0600 
    147 H147        3.1923  -22.3169  -43.0315 H         1 UNK         0.0600 
    148 H148        2.6697  -20.7769  -43.7042 H         1 UNK         0.0600 
    149 H149        0.2744  -20.2739  -43.2550 H         1 UNK         0.3000 
    150 H150       -3.1914  -20.6121  -44.1411 H         1 UNK         0.0600 
    151 H151       -3.1018  -20.6070  -41.6747 H         1 UNK         0.0600 
    152 H152       -3.2924  -18.9610  -42.2621 H         1 UNK         0.0600 
    153 H153       -1.7221  -19.5200  -41.6858 H         1 UNK         0.0600 
    154 H154       -1.5910  -18.2911  -43.9522 H         1 UNK         0.3000 
    155 H155       -0.3282  -18.2846  -47.2991 H         1 UNK         0.0600 
    156 H156       -2.4868  -16.6678  -45.8329 H         1 UNK         0.0600 
    157 H157       -2.5731  -17.3209  -47.4610 H         1 UNK         0.0600 
    158 H158       -1.4531  -16.0185  -47.0995 H         1 UNK         0.0600 
    159 H159       -0.0383  -16.5461  -45.0133 H         1 UNK         0.3000 
    160 H160        3.0108  -18.0092  -43.8281 H         1 UNK         0.0600 
    161 H161        3.7588  -15.6686  -44.1785 H         1 UNK         0.0600 
    162 H162        2.3884  -15.3572  -45.2390 H         1 UNK         0.0600 
    163 H163        3.6364  -16.4974  -45.7241 H         1 UNK         0.0600 
    164 H164        1.4705  -15.7532  -42.9804 H         1 UNK         0.3000 
    165 H165       -0.8623  -17.4380  -40.9173 H         1 UNK         0.0600 
    166 H166        0.1581  -16.1505  -39.0557 H         1 UNK         0.0600 
    167 H167        1.1542  -17.5439  -39.4429 H         1 UNK         0.0600 
    168 H168        1.6464  -15.9424  -39.9799 H         1 UNK         0.0600 
    169 H169       -0.2181  -14.6997  -41.0711 H         1 UNK         0.3000 
    170 H170       -1.4192  -13.7655  -44.1532 H         1 UNK         0.0600 
    171 H171       -3.7093  -14.1387  -43.2346 H         1 UNK         0.0600 
    172 H172       -3.2023  -13.5169  -41.6685 H         1 UNK         0.0600 
    173 H173       -3.2387  -12.4544  -43.0768 H         1 UNK         0.0600 
    174 H174       -1.0534  -12.3253  -41.6868 H         1 UNK         0.3000 
    175 H175        0.7958  -11.0572  -41.4113 H         1 UNK         0.0600 
    176 H176        2.5788  -13.4879  -40.7767 H         1 UNK         0.0600 
    177 H177        2.4235  -12.0484  -39.7738 H         1 UNK         0.0600 
    178 H178        1.0537  -13.1197  -39.9783 H         1 UNK         0.0600 
    179 H179        2.8852  -11.7625  -43.2721 H         1 UNK         0.3000 
    180 H180        4.7141   -8.7279  -42.5075 H         1 UNK         0.0600 
    181 H181        5.5316  -11.6577  -42.8597 H         1 UNK         0.0600 
    182 H182        6.0373  -10.5724  -41.5765 H         1 UNK         0.0600 
    183 H183        6.5446  -10.2634  -43.2299 H         1 UNK         0.0600 
    184 H184        4.2900  -10.5572  -44.7721 H         1 UNK         0.3000 
    185 H185        2.1183   -8.4297  -46.4943 H         1 UNK         0.0600 
    186 H186        4.1074   -6.9738  -46.8644 H         1 UNK         0.0600 
    187 H187        5.1344   -8.3903  -47.0482 H         1 UNK         0.0600 
    188 H188        3.8636   -8.0561  -48.2253 H         1 UNK         0.0600 
    189 H189        3.9752  -10.5326  -47.2732 H         1 UNK         0.3000 
    190 H190       -1.3919  -21.9467  -46.8557 H         1 UNK         0.3000 
    191 H191       -2.8425  -23.6461  -48.5181 H         1 UNK         0.0600 
    192 H192       -3.7313  -22.1815  -45.9798 H         1 UNK         0.0600 
    193 H193       -4.8147  -22.8367  -47.2039 H         1 UNK         0.0600 
    194 H194       -3.7259  -21.5259  -47.6181 H         1 UNK         0.0600 
    195 H195       -1.6829  -24.3149  -45.2567 H         1 UNK         0.3000 
    196 H196       -3.2591  -26.5675  -44.6222 H         1 UNK         0.0600 
    197 H197       -1.3840  -27.1169  -43.0752 H         1 UNK         0.0600 
    198 H198       -1.7612  -25.4020  -43.0110 H         1 UNK         0.0600 
    199 H199       -0.3432  -25.9616  -43.8970 H         1 UNK         0.0600 
    200 H200       -0.6796  -26.2629  -46.9833 H         1 UNK         0.3000 
    201 H201       -0.6940  -29.2200  -47.4905 H         1 UNK         0.0600 
    202 H202        1.5488  -28.3468  -46.8941 H         1 UNK         0.0600 
    203 H203        1.4327  -27.1130  -48.1468 H         1 UNK         0.0600 
    204 H204        1.5030  -28.8163  -48.5868 H         1 UNK         0.0600 
    205 H205       -0.7757  -25.9525  -48.9988 H         1 UNK         0.3000 
    206 H206       -1.1121  -26.9816  -51.6692 H         1 UNK         0.0600 
    207 H207        0.1423  -24.8860  -51.0959 H         1 UNK         0.0600 
    208 H208       -1.1365  -24.5840  -52.2604 H         1 UNK         0.0600 
    209 H209       -1.3630  -24.1280  -50.5770 H         1 UNK         0.0600 
    210 H210       -3.4175  -26.3607  -49.1796 H         1 UNK         0.3000 
    211 H211       -5.6099  -26.1528  -49.0225 H         1 UNK         0.0600 
    212 H212       -5.8128  -27.2627  -51.8801 H         1 UNK         0.0600 
    213 H213       -7.1266  -27.1289  -50.7140 H         1 UNK         0.0600 
    214 H214       -5.7841  -28.2105  -50.4007 H         1 UNK         0.0600 
    215 H215       -6.7620  -25.3927  -52.0805 H         1 UNK         0.3000 
    216 H216       -6.8584  -22.5176  -51.5050 H         1 UNK         0.0600 
    217 H217       -8.4051  -22.4516  -53.3906 H         1 UNK         0.0600 
    218 H218       -8.8500  -23.7984  -52.3627 H         1 UNK         0.0600 
    219 H219       -7.9878  -24.0951  -53.8737 H         1 UNK         0.0600 
    220 H220       -4.5649  -24.5058  -53.0068 H         1 UNK         0.3000 
    221 H221       -2.8961  -24.3002  -54.4211 H         1 UNK         0.0600 
    222 H222       -3.0591  -21.2634  -53.9879 H         1 UNK         0.0600 
    223 H223       -2.2608  -22.3909  -52.8985 H         1 UNK         0.0600 
    224 H224       -1.6624  -22.1833  -54.5339 H         1 UNK         0.0600 
    225 H225       -3.2183  -21.3587  -55.9803 H         1 UNK         0.3000 
    226 H226       -4.3538  -22.5148  -58.4257 H         1 UNK         0.0600 
    227 H227       -2.3033  -21.0910  -58.4927 H         1 UNK         0.0600 
    228 H228       -3.6069  -20.3828  -59.4285 H         1 UNK         0.0600 
    229 H229       -3.2183  -19.7317  -57.8397 H         1 UNK         0.0600 
    230 H230       -6.1821  -22.4211  -56.2832 H         1 UNK         0.3000 
    231 H231       -8.2429  -21.9161  -55.6612 H         1 UNK         0.0600 
    232 H232       -8.7958  -22.5493  -58.0080 H         1 UNK         0.0600 
    233 H233       -8.6539  -20.8645  -58.5071 H         1 UNK         0.0600 
    234 H234       -9.9150  -21.3500  -57.3824 H         1 UNK         0.0600 
    235 H235       -6.4738  -20.1860  -54.6732 H         1 UNK         0.3000 
    236 H236       -7.9447  -17.6195  -54.4719 H         1 UNK         0.0600 
    237 H237       -5.8649  -16.3117  -54.9564 H         1 UNK         0.0600 
    238 H238       -5.0155  -17.7993  -55.3639 H         1 UNK         0.0600 
    239 H239       -6.3645  -17.2488  -56.3553 H         1 UNK         0.0600 
    240 H240       -5.8096  -20.0014  -53.0458 H         1 UNK         0.3000 
    241 H241       -5.0506  -18.2766  -50.8237 H         1 UNK         0.0600 
    242 H242       -6.9340  -19.7468  -48.1050 H         1 UNK         0.3800 
    243 H243       -5.3193  -19.2070  -48.4781 H         1 UNK         0.3800 
    244 H244       -4.4911  -21.2375  -50.6855 H         1 UNK         0.0800 
    245 H245       -3.7618  -20.4014  -52.0113 H         1 UNK         0.0800 
    246 H246       -1.6365  -19.3592  -52.0078 H         1 UNK         0.0800 
    247 H247       -2.3912  -17.8612  -51.5096 H         1 UNK         0.0800 
@<TRIPOS>BOND
     1    1    2 1    
     2    1  127 1    
     3    1  128 1    
     4    1  129 1    
     5    2    3 2    
     6    2    4 am   BACKBONE|DICT|INTERRES
     7    4    5 1    
     8    4  130 1    
     9    5    6 1    
    10    5   65 1    
    11    5  131 1    
    12    6    7 1    
    13    6  132 1    
    14    6  133 1    
    15    7    8 1    
    16    8    9 1    
    17    8  134 1    
    18    8  135 1    
    19    9   10 ar   
    20    9   14 ar   
    21   10   11 ar   
    22   10  136 1    
    23   11   12 ar   
    24   11  126 1    
    25   12   13 ar   
    26   12  137 1    
    27   13   14 ar   
    28   13   15 1    
    29   14  138 1    
    30   15   16 1    
    31   15  139 1    
    32   15  140 1    
    33   16   17 1    
    34   17   18 1    
    35   17  141 1    
    36   17  142 1    
    37   18   19 1    
    38   18   67 1    
    39   18  143 1    
    40   19   20 am   BACKBONE|DICT|INTERRES
    41   19  144 1    
    42   20   21 2    
    43   20   22 1    
    44   22   23 1    
    45   22   24 1    
    46   22  145 1    
    47   23  146 1    
    48   23  147 1    
    49   23  148 1    
    50   24   25 am   BACKBONE|DICT|INTERRES
    51   24  149 1    
    52   25   26 2    
    53   25   27 1    
    54   27   28 1    
    55   27   29 1    
    56   27  150 1    
    57   28  151 1    
    58   28  152 1    
    59   28  153 1    
    60   29   30 am   BACKBONE|DICT|INTERRES
    61   29  154 1    
    62   30   31 2    
    63   30   32 1    
    64   32   33 1    
    65   32   34 1    
    66   32  155 1    
    67   33  156 1    
    68   33  157 1    
    69   33  158 1    
    70   34   35 am   BACKBONE|DICT|INTERRES
    71   34  159 1    
    72   35   36 2    
    73   35   37 1    
    74   37   38 1    
    75   37   39 1    
    76   37  160 1    
    77   38  161 1    
    78   38  162 1    
    79   38  163 1    
    80   39   40 am   BACKBONE|DICT|INTERRES
    81   39  164 1    
    82   40   41 2    
    83   40   42 1    
    84   42   43 1    
    85   42   44 1    
    86   42  165 1    
    87   43  166 1    
    88   43  167 1    
    89   43  168 1    
    90   44   45 am   BACKBONE|DICT|INTERRES
    91   44  169 1    
    92   45   46 2    
    93   45   47 1    
    94   47   48 1    
    95   47   49 1    
    96   47  170 1    
    97   48  171 1    
    98   48  172 1    
    99   48  173 1    
   100   49   50 am   BACKBONE|DICT|INTERRES
   101   49  174 1    
   102   50   51 2    
   103   50   52 1    
   104   52   53 1    
   105   52   54 1    
   106   52  175 1    
   107   53  176 1    
   108   53  177 1    
   109   53  178 1    
   110   54   55 am   BACKBONE|DICT|INTERRES
   111   54  179 1    
   112   55   56 2    
   113   55   57 1    
   114   57   58 1    
   115   57   59 1    
   116   57  180 1    
   117   58  181 1    
   118   58  182 1    
   119   58  183 1    
   120   59   60 am   BACKBONE|DICT|INTERRES
   121   59  184 1    
   122   60   61 2    
   123   60   62 1    
   124   62   63 1    
   125   62   64 1    
   126   62  185 1    
   127   63  186 1    
   128   63  187 1    
   129   63  188 1    
   130   64   65 am   BACKBONE|DICT|INTERRES
   131   64  189 1    
   132   65   66 2    
   133   67   68 2    
   134   67   69 am   BACKBONE|DICT|INTERRES
   135   69   70 1    
   136   69  190 1    
   137   70   71 1    
   138   70   72 1    
   139   70  191 1    
   140   71  192 1    
   141   71  193 1    
   142   71  194 1    
   143   72   73 2    
   144   72   74 am   BACKBONE|DICT|INTERRES
   145   74   75 1    
   146   74  195 1    
   147   75   76 1    
   148   75   77 1    
   149   75  196 1    
   150   76  197 1    
   151   76  198 1    
   152   76  199 1    
   153   77   78 2    
   154   77   79 am   BACKBONE|DICT|INTERRES
   155   79   80 1    
   156   79  200 1    
   157   80   81 1    
   158   80   82 1    
   159   80  201 1    
   160   81  202 1    
   161   81  203 1    
   162   81  204 1    
   163   82   83 2    
   164   82   84 am   BACKBONE|DICT|INTERRES
   165   84   85 1    
   166   84  205 1    
   167   85   86 1    
   168   85   87 1    
   169   85  206 1    
   170   86  207 1    
   171   86  208 1    
   172   86  209 1    
   173   87   88 2    
   174   87   89 am   BACKBONE|DICT|INTERRES
   175   89   90 1    
   176   89  210 1    
   177   90   91 1    
   178   90   92 1    
   179   90  211 1    
   180   91  212 1    
   181   91  213 1    
   182   91  214 1    
   183   92   93 2    
   184   92   94 am   BACKBONE|DICT|INTERRES
   185   94   95 1    
   186   94  215 1    
   187   95   96 1    
   188   95   97 1    
   189   95  216 1    
   190   96  217 1    
   191   96  218 1    
   192   96  219 1    
   193   97   98 2    
   194   97   99 am   BACKBONE|DICT|INTERRES
   195   99  100 1    
   196   99  220 1    
   197  100  101 1    
   198  100  102 1    
   199  100  221 1    
   200  101  222 1    
   201  101  223 1    
   202  101  224 1    
   203  102  103 2    
   204  102  104 am   BACKBONE|DICT|INTERRES
   205  104  105 1    
   206  104  225 1    
   207  105  106 1    
   208  105  107 1    
   209  105  226 1    
   210  106  227 1    
   211  106  228 1    
   212  106  229 1    
   213  107  108 2    
   214  107  109 am   BACKBONE|DICT|INTERRES
   215  109  110 1    
   216  109  230 1    
   217  110  111 1    
   218  110  112 1    
   219  110  231 1    
   220  111  232 1    
   221  111  233 1    
   222  111  234 1    
   223  112  113 2    
   224  112  114 am   BACKBONE|DICT|INTERRES
   225  114  115 1    
   226  114  235 1    
   227  115  116 1    
   228  115  117 1    
   229  115  236 1    
   230  116  237 1    
   231  116  238 1    
   232  116  239 1    
   233  117  118 2    
   234  117  119 am   BACKBONE|DICT|INTERRES
   235  119  120 1    
   236  119  240 1    
   237  120  121 1    
   238  120  124 1    
   239  120  241 1    
   240  121  122 am   BACKBONE|DICT|INTERRES
   241  121  123 2    
   242  122  242 1    
   243  122  243 1    
   244  124  125 1    
   245  124  244 1    
   246  124  245 1    
   247  125  126 1    
   248  126  246 1    
   249  126  247 1    
@<TRIPOS>SUBSTRUCTURE
     1 UNK         1 GROUP             0       ****    0 ROOT    
