@<TRIPOS>MOLECULE
3R540
247   249    1
SMALL
USER_CHARGES


@<TRIPOS>ATOM
      1 CA         -1.8562  -14.3609  -47.6908 C.3       0 UNK        -0.1800 
      2 C          -1.1701  -13.7553  -48.9072 C.2       0 UNK         0.5000 
      3 O          -1.5336  -12.6624  -49.3394 O.2       0 UNK        -0.5000 
      4 N          -0.1869  -14.4733  -49.4638 N.am      1 UNK        -0.5000 
      5 CA          0.5874  -14.0867  -50.6505 C.3       1 UNK         0.1400 
      6 C6          1.3910  -15.2993  -51.1721 C.3       23 UNK        -0.0398 
      7 S7          1.7990  -15.2146  -52.9446 S.3       23 UNK        -0.2404 
      8 C8          3.1281  -16.4596  -53.0384 C.3       23 UNK        -0.0205 
      9 C9          2.6978  -17.7988  -52.4544 C.ar      23 UNK        -0.0193 
     10 C10         1.8519  -18.6427  -53.1777 C.ar      23 UNK        -0.1150 
     11 C11         1.4257  -19.8572  -52.6330 C.ar      23 UNK        -0.0193 
     12 C12         1.8523  -20.2276  -51.3536 C.ar      23 UNK        -0.1150 
     13 C13         2.7041  -19.3929  -50.6216 C.ar      23 UNK        -0.0193 
     14 C14         3.1282  -18.1845  -51.1808 C.ar      23 UNK        -0.1150 
     15 C15         3.1893  -19.8021  -49.2373 C.3       23 UNK        -0.0205 
     16 S16         2.3000  -18.9505  -47.8890 S.3       23 UNK        -0.2404 
     17 C17         0.6171  -19.6285  -48.0534 C.3       23 UNK        -0.0398 
     18 CA          0.4891  -21.0627  -47.4858 C.3       11 UNK         0.1400 
     19 N           0.6069  -21.1292  -46.0232 N.am      11 UNK        -0.5000 
     20 C           0.7192  -22.2757  -45.3338 C.2       10 UNK         0.5000 
     21 O           0.7954  -23.3831  -45.8645 O.2       10 UNK        -0.5000 
     22 CA          0.6837  -22.1884  -43.7970 C.3       10 UNK         0.1400 
     23 CB          2.0605  -21.8072  -43.2338 C.3       10 UNK        -0.1800 
     24 N          -0.3359  -21.2606  -43.3074 N.am      10 UNK        -0.5000 
     25 C          -1.6546  -21.4177  -43.4939 C.2       9 UNK         0.5000 
     26 O          -2.1504  -22.4002  -44.0417 O.2       9 UNK        -0.5000 
     27 CA         -2.5743  -20.2664  -43.0460 C.3       9 UNK         0.1400 
     28 CB         -2.9603  -20.4189  -41.5684 C.3       9 UNK        -0.1800 
     29 N          -1.9842  -18.9467  -43.2729 N.am      9 UNK        -0.5000 
     30 C          -1.6433  -18.4634  -44.4766 C.2       8 UNK         0.5000 
     31 O          -1.8336  -19.0637  -45.5349 O.2       8 UNK        -0.5000 
     32 CA         -0.9084  -17.1126  -44.4906 C.3       8 UNK         0.1400 
     33 CB         -1.8977  -15.9430  -44.3954 C.3       8 UNK        -0.1800 
     34 N           0.0798  -17.0289  -43.4128 N.am      8 UNK        -0.5000 
     35 C           1.2245  -17.7277  -43.4033 C.2       7 UNK         0.5000 
     36 O           1.5949  -18.4331  -44.3409 O.2       7 UNK        -0.5000 
     37 CA          2.0694  -17.6732  -42.1167 C.3       7 UNK         0.1400 
     38 CB          3.0561  -16.4970  -42.1316 C.3       7 UNK        -0.1800 
     39 N           1.2420  -17.6036  -40.9121 N.am      7 UNK        -0.5000 
     40 C           0.5514  -18.6454  -40.4287 C.2       6 UNK         0.5000 
     41 O           0.5626  -19.7622  -40.9442 O.2       6 UNK        -0.5000 
     42 CA         -0.3201  -18.4024  -39.1823 C.3       6 UNK         0.1400 
     43 CB          0.4835  -18.6849  -37.9044 C.3       6 UNK        -0.1800 
     44 N          -0.8883  -17.0560  -39.1036 N.am      6 UNK        -0.5000 
     45 C          -1.7178  -16.5074  -40.0016 C.2       5 UNK         0.5000 
     46 O          -2.0773  -17.0799  -41.0322 O.2       5 UNK        -0.5000 
     47 CA         -2.2184  -15.0727  -39.7215 C.3       5 UNK         0.1400 
     48 CB         -1.6886  -14.4644  -38.4028 C.3       5 UNK        -0.1800 
     49 N          -1.9487  -14.1544  -40.8333 N.am      5 UNK        -0.5000 
     50 C          -0.7624  -13.9162  -41.4082 C.2       4 UNK         0.5000 
     51 O           0.2831  -14.5046  -41.1136 O.2       4 UNK        -0.5000 
     52 CA         -0.7424  -12.8280  -42.4912 C.3       4 UNK         0.1400 
     53 CB         -0.7941  -11.4216  -41.8697 C.3       4 UNK        -0.1800 
     54 N           0.4830  -12.9745  -43.2664 N.am      4 UNK        -0.5000 
     55 C           0.6297  -12.6775  -44.5590 C.2       3 UNK         0.5000 
     56 O          -0.2535  -12.1727  -45.2570 O.2       3 UNK        -0.5000 
     57 CA          1.9866  -13.0386  -45.1783 C.3       3 UNK         0.1400 
     58 CB          2.1511  -14.5663  -45.2829 C.3       3 UNK        -0.1800 
     59 N           2.0774  -12.4675  -46.5146 N.am      3 UNK        -0.5000 
     60 C           3.2088  -12.1976  -47.1746 C.2       2 UNK         0.5000 
     61 O           4.3311  -12.2806  -46.6728 O.2       2 UNK        -0.5000 
     62 CA          3.0383  -11.8782  -48.6686 C.3       2 UNK         0.1400 
     63 CB          4.3748  -11.8081  -49.4359 C.3       2 UNK        -0.1800 
     64 N           2.1774  -12.9171  -49.2259 N.am      2 UNK        -0.5000 
     65 C           1.4978  -12.8715  -50.3748 C.2       1 UNK         0.5000 
     66 O           1.5394  -11.9296  -51.1674 O.2       1 UNK        -0.5000 
     67 C          -0.8105  -21.7202  -47.9853 C.2       11 UNK         0.5000 
     68 O          -0.7658  -22.4747  -48.9570 O.2       11 UNK        -0.5000 
     69 N          -1.9293  -21.4568  -47.2956 N.am      12 UNK        -0.5000 
     70 CA         -3.2286  -22.0698  -47.5728 C.3       12 UNK         0.1400 
     71 CB         -4.3030  -21.4208  -46.6859 C.3       12 UNK        -0.1800 
     72 C          -3.2066  -23.6013  -47.3965 C.2       12 UNK         0.5000 
     73 O          -3.6777  -24.3252  -48.2736 O.2       12 UNK        -0.5000 
     74 N          -2.6102  -24.0714  -46.2921 N.am      13 UNK        -0.5000 
     75 CA         -2.4181  -25.4891  -45.9854 C.3       13 UNK         0.1400 
     76 CB         -1.8765  -25.6384  -44.5558 C.3       13 UNK        -0.1800 
     77 C          -1.5010  -26.2070  -46.9923 C.2       13 UNK         0.5000 
     78 O          -1.8054  -27.3338  -47.3840 O.2       13 UNK        -0.5000 
     79 N          -0.4150  -25.5399  -47.4095 N.am      14 UNK        -0.5000 
     80 CA          0.5239  -26.0320  -48.4192 C.3       14 UNK         0.1400 
     81 CB          1.7659  -25.1279  -48.4569 C.3       14 UNK        -0.1800 
     82 C          -0.1104  -26.1415  -49.8172 C.2       14 UNK         0.5000 
     83 O           0.1241  -27.1299  -50.5139 O.2       14 UNK        -0.5000 
     84 N          -0.9107  -25.1356  -50.1951 N.am      15 UNK        -0.5000 
     85 CA         -1.6507  -25.1021  -51.4562 C.3       15 UNK         0.1400 
     86 CB         -2.1281  -23.6670  -51.7174 C.3       15 UNK        -0.1800 
     87 C          -2.8521  -26.0656  -51.4848 C.2       15 UNK         0.5000 
     88 O          -3.2271  -26.5234  -52.5645 O.2       15 UNK        -0.5000 
     89 N          -3.4419  -26.3237  -50.3076 N.am      16 UNK        -0.5000 
     90 CA         -4.7154  -27.0147  -50.0780 C.3       16 UNK         0.1400 
     91 CB         -4.6382  -28.4960  -50.5023 C.3       16 UNK        -0.1800 
     92 C          -5.8908  -26.2450  -50.7186 C.2       16 UNK         0.5000 
     93 O          -6.7607  -26.8397  -51.3580 O.2       16 UNK        -0.5000 
     94 N          -5.8661  -24.9187  -50.5511 N.am      17 UNK        -0.5000 
     95 CA         -6.7645  -23.9382  -51.1526 C.3       17 UNK         0.1400 
     96 CB         -6.4265  -23.7757  -52.6495 C.3       17 UNK        -0.1800 
     97 C          -6.6068  -22.6135  -50.3869 C.2       17 UNK         0.5000 
     98 O          -5.9163  -22.5768  -49.3680 O.2       17 UNK        -0.5000 
     99 N          -7.2263  -21.5353  -50.8810 N.am      18 UNK        -0.5000 
    100 CA        -6.9873  -20.1773  -50.3883 C.3       18 UNK         0.1400 
    101 CB        -8.0435  -19.2325  -50.9813 C.3       18 UNK        -0.1800 
    102 C         -5.5701  -19.7063  -50.7660 C.2       18 UNK         0.5000 
    103 O         -5.1430  -19.9379  -51.8993 O.2       18 UNK        -0.5000 
    104 N         -4.8768  -19.0431  -49.8314 N.am      19 UNK        -0.5000 
    105 CA        -3.5465  -18.4668  -50.0470 C.3       19 UNK         0.1400 
    106 CB        -3.0025  -17.9311  -48.7134 C.3       19 UNK        -0.1800 
    107 C         -3.5607  -17.3540  -51.1133 C.2       19 UNK         0.5000 
    108 O         -4.5909  -16.7056  -51.3130 O.2       19 UNK        -0.5000 
    109 N         -2.4195  -17.1715  -51.7897 N.am      20 UNK        -0.5000 
    110 CA        -2.1675  -16.2715  -52.9252 C.3       20 UNK         0.1400 
    111 CB        -2.5635  -14.8143  -52.6135 C.3       20 UNK        -0.1800 
    112 C         -2.8174  -16.7498  -54.2381 C.2       20 UNK         0.5000 
    113 O         -2.1599  -16.7203  -55.2787 O.2       20 UNK        -0.5000 
    114 N         -4.0802  -17.1920  -54.1702 N.am      21 UNK        -0.5000 
    115 CA        -4.8076  -17.8279  -55.2671 C.3       21 UNK         0.1400 
    116 CB        -6.3027  -17.9007  -54.9159 C.3       21 UNK        -0.1800 
    117 C         -4.2341  -19.2225  -55.5712 C.2       21 UNK         0.5000 
    118 O         -3.8472  -19.4910  -56.7090 O.2       21 UNK        -0.5000 
    119 N         -4.1581  -20.0586  -54.5278 N.am      22 UNK        -0.5000 
    120 CA        -3.5078  -21.3774  -54.4945 C.3       22 UNK         0.1400 
    121 C         -4.1360  -22.4568  -55.4290 C.2       22 UNK         0.5000 
    122 N         -5.3793  -22.3033  -55.8679 N.am      22 UNK        -0.7600 
    123 O         -3.5055  -23.4643  -55.7374 O.2       22 UNK        -0.5000 
    124 C124       -1.9624  -21.2806  -54.6235 C.3       23 UNK        -0.0398 
    125 S125       -1.2177  -20.2280  -53.3293 S.3       23 UNK        -0.2404 
    126 C126        0.5136  -20.7668  -53.4388 C.3       23 UNK        -0.0205 
    127 H127       -1.3465  -15.2599  -47.3436 H         1 UNK         0.0600 
    128 H128       -2.8852  -14.6248  -47.9348 H         1 UNK         0.0600 
    129 H129       -1.8743  -13.6434  -46.8710 H         1 UNK         0.0600 
    130 H130        0.0555  -15.3638  -49.0554 H         1 UNK         0.3000 
    131 H131       -0.1232  -13.7852  -51.4211 H         1 UNK         0.0600 
    132 H132        2.3018  -15.4478  -50.5892 H         1 UNK         0.0800 
    133 H133        0.8043  -16.2106  -51.0435 H         1 UNK         0.0800 
    134 H134        4.0108  -16.0811  -52.5205 H         1 UNK         0.0800 
    135 H135        3.4193  -16.5921  -54.0813 H         1 UNK         0.0800 
    136 H136        1.5135  -18.3471  -54.1611 H         1 UNK         0.1150 
    137 H137        1.5219  -21.1658  -50.9293 H         1 UNK         0.1150 
    138 H138        3.7847  -17.5383  -50.6150 H         1 UNK         0.1150 
    139 H139        3.1141  -20.8822  -49.1087 H         1 UNK         0.0800 
    140 H140        4.2513  -19.5683  -49.1498 H         1 UNK         0.0800 
    141 H141        0.3345  -19.5907  -49.1063 H         1 UNK         0.0800 
    142 H142       -0.0708  -18.9547  -47.5414 H         1 UNK         0.0800 
    143 H143        1.3039  -21.6613  -47.8961 H         1 UNK         0.0600 
    144 H144        0.5699  -20.2521  -45.5198 H         1 UNK         0.3000 
    145 H145        0.4322  -23.1808  -43.4172 H         1 UNK         0.0600 
    146 H146        2.0555  -21.8098  -42.1438 H         1 UNK         0.0600 
    147 H147        2.8223  -22.5179  -43.5566 H         1 UNK         0.0600 
    148 H148        2.3757  -20.8186  -43.5653 H         1 UNK         0.0600 
    149 H149       -0.0102  -20.4651  -42.7698 H         1 UNK         0.3000 
    150 H150       -3.4884  -20.3199  -43.6399 H         1 UNK         0.0600 
    151 H151       -3.4978  -21.3534  -41.4032 H         1 UNK         0.0600 
    152 H152       -3.6094  -19.6064  -41.2411 H         1 UNK         0.0600 
    153 H153       -2.0830  -20.4305  -40.9234 H         1 UNK         0.0600 
    154 H154       -1.8429  -18.3610  -42.4546 H         1 UNK         0.3000 
    155 H155       -0.3861  -17.0317  -45.4465 H         1 UNK         0.0600 
    156 H156       -2.6643  -16.0174  -45.1678 H         1 UNK         0.0600 
    157 H157       -1.3893  -14.9909  -44.5383 H         1 UNK         0.0600 
    158 H158       -2.4068  -15.9155  -43.4321 H         1 UNK         0.0600 
    159 H159       -0.1797  -16.5123  -42.5837 H         1 UNK         0.3000 
    160 H160        2.6571  -18.5932  -42.0780 H         1 UNK         0.0600 
    161 H161        2.5450  -15.5363  -42.0810 H         1 UNK         0.0600 
    162 H162        3.6627  -16.5054  -43.0382 H         1 UNK         0.0600 
    163 H163        3.7403  -16.5517  -41.2848 H         1 UNK         0.0600 
    164 H164        1.1470  -16.6992  -40.4688 H         1 UNK         0.3000 
    165 H165       -1.1526  -19.1067  -39.2196 H         1 UNK         0.0600 
    166 H166       -0.1455  -18.6095  -37.0171 H         1 UNK         0.0600 
    167 H167        0.9006  -19.6928  -37.9201 H         1 UNK         0.0600 
    168 H168        1.3142  -17.9875  -37.7888 H         1 UNK         0.0600 
    169 H169       -0.6284  -16.5060  -38.2980 H         1 UNK         0.3000 
    170 H170       -3.3035  -15.1470  -39.6380 H         1 UNK         0.0600 
    171 H171       -1.9659  -15.0749  -37.5424 H         1 UNK         0.0600 
    172 H172       -0.6030  -14.3579  -38.4065 H         1 UNK         0.0600 
    173 H173       -2.1128  -13.4742  -38.2359 H         1 UNK         0.0600 
    174 H174       -2.7537  -13.6466  -41.1722 H         1 UNK         0.3000 
    175 H175       -1.6100  -12.9740  -43.1381 H         1 UNK         0.0600 
    176 H176        0.0546  -11.2446  -41.2079 H         1 UNK         0.0600 
    177 H177       -0.7843  -10.6500  -42.6397 H         1 UNK         0.0600 
    178 H178       -1.7033  -11.2820  -41.2839 H         1 UNK         0.0600 
    179 H179        1.2271  -13.4400  -42.7620 H         1 UNK         0.3000 
    180 H180        2.7711  -12.6213  -44.5435 H         1 UNK         0.0600 
    181 H181        2.0563  -15.0365  -44.3078 H         1 UNK         0.0600 
    182 H182        3.1310  -14.8374  -45.6760 H         1 UNK         0.0600 
    183 H183        1.3947  -15.0101  -45.9315 H         1 UNK         0.0600 
    184 H184        1.1812  -12.2872  -46.9499 H         1 UNK         0.3000 
    185 H185        2.5326  -10.9135  -48.7440 H         1 UNK         0.0600 
    186 H186        5.0291  -11.0456  -49.0121 H         1 UNK         0.0600 
    187 H187        4.9075  -12.7590  -49.3994 H         1 UNK         0.0600 
    188 H188        4.2205  -11.5520  -50.4840 H         1 UNK         0.0600 
    189 H189        2.0555  -13.7240  -48.6298 H         1 UNK         0.3000 
    190 H190       -1.8861  -20.7969  -46.5248 H         1 UNK         0.3000 
    191 H191       -3.4731  -21.8577  -48.6155 H         1 UNK         0.0600 
    192 H192       -4.1049  -21.5795  -45.6272 H         1 UNK         0.0600 
    193 H193       -5.2876  -21.8392  -46.8954 H         1 UNK         0.0600 
    194 H194       -4.3633  -20.3466  -46.8577 H         1 UNK         0.0600 
    195 H195       -2.2877  -23.4090  -45.5902 H         1 UNK         0.3000 
    196 H196       -3.3969  -25.9712  -46.0287 H         1 UNK         0.0600 
    197 H197       -1.7394  -26.6889  -44.2966 H         1 UNK         0.0600 
    198 H198       -2.5654  -25.2107  -43.8272 H         1 UNK         0.0600 
    199 H199       -0.9135  -25.1412  -44.4369 H         1 UNK         0.0600 
    200 H200       -0.1996  -24.6400  -46.9902 H         1 UNK         0.3000 
    201 H201        0.8433  -27.0324  -48.1201 H         1 UNK         0.0600 
    202 H202        2.2739  -25.1166  -47.4926 H         1 UNK         0.0600 
    203 H203        1.5084  -24.0994  -48.7114 H         1 UNK         0.0600 
    204 H204        2.4840  -25.4803  -49.1983 H         1 UNK         0.0600 
    205 H205       -1.0049  -24.3248  -49.5897 H         1 UNK         0.3000 
    206 H206       -0.9727  -25.3881  -52.2631 H         1 UNK         0.0600 
    207 H207       -1.2898  -22.9725  -51.7671 H         1 UNK         0.0600 
    208 H208       -2.6583  -23.6128  -52.6673 H         1 UNK         0.0600 
    209 H209       -2.8074  -23.3169  -50.9386 H         1 UNK         0.0600 
    210 H210       -3.0860  -25.8252  -49.4989 H         1 UNK         0.3000 
    211 H211       -4.8832  -26.9897  -49.0003 H         1 UNK         0.0600 
    212 H212       -4.5388  -28.6081  -51.5821 H         1 UNK         0.0600 
    213 H213       -5.5383  -29.0329  -50.2014 H         1 UNK         0.0600 
    214 H214       -3.7901  -28.9947  -50.0330 H         1 UNK         0.0600 
    215 H215       -5.1702  -24.5121  -49.9312 H         1 UNK         0.3000 
    216 H216       -7.7957  -24.2767  -51.0376 H         1 UNK         0.0600 
    217 H217       -7.0958  -23.0698  -53.1416 H         1 UNK         0.0600 
    218 H218       -6.5159  -24.7205  -53.1855 H         1 UNK         0.0600 
    219 H219       -5.4069  -23.4151  -52.7857 H         1 UNK         0.0600 
    220 H220       -7.7575  -21.6183  -51.7348 H         1 UNK         0.3000 
    221 H221       -7.0890  -20.1750  -49.3008 H         1 UNK         0.0600 
    222 H222       -8.0012  -19.2136  -52.0710 H         1 UNK         0.0600 
    223 H223       -9.0500  -19.5324  -50.6890 H         1 UNK         0.0600 
    224 H224       -7.8932  -18.2106  -50.6303 H         1 UNK         0.0600 
    225 H225       -5.3081  -18.8568  -48.9387 H         1 UNK         0.3000 
    226 H226       -2.8899  -19.2684  -50.3935 H         1 UNK         0.0600 
    227 H227       -2.0055  -17.5064  -48.8359 H         1 UNK         0.0600 
    228 H228       -3.6433  -17.1514  -48.3002 H         1 UNK         0.0600 
    229 H229       -2.9230  -18.7271  -47.9745 H         1 UNK         0.0600 
    230 H230       -1.6520  -17.7955  -51.5832 H         1 UNK         0.3000 
    231 H231       -1.0873  -16.2952  -53.0753 H         1 UNK         0.0600 
    232 H232       -2.0811  -14.1266  -53.3085 H         1 UNK         0.0600 
    233 H233       -2.2724  -14.5270  -51.6053 H         1 UNK         0.0600 
    234 H234       -3.6392  -14.6561  -52.6971 H         1 UNK         0.0600 
    235 H235       -4.5381  -17.1592  -53.2655 H         1 UNK         0.3000 
    236 H236       -4.6959  -17.2111  -56.1613 H         1 UNK         0.0600 
    237 H237       -6.7217  -16.9040  -54.7773 H         1 UNK         0.0600 
    238 H238       -6.8682  -18.3831  -55.7141 H         1 UNK         0.0600 
    239 H239       -6.4783  -18.4652  -53.9994 H         1 UNK         0.0600 
    240 H240       -4.5297  -19.7630  -53.6278 H         1 UNK         0.3000 
    241 H241       -3.7156  -21.7487  -53.4918 H         1 UNK         0.0600 
    242 H242       -5.9087  -21.4818  -55.6254 H         1 UNK         0.3800 
    243 H243       -5.7851  -23.0062  -56.4650 H         1 UNK         0.3800 
    244 H244       -1.5117  -22.2715  -54.5483 H         1 UNK         0.0800 
    245 H245       -1.6823  -20.8890  -55.6024 H         1 UNK         0.0800 
    246 H246        0.8303  -20.7652  -54.4830 H         1 UNK         0.0800 
    247 H247        0.5962  -21.7977  -53.0910 H         1 UNK         0.0800 
@<TRIPOS>BOND
     1    1    2 1    
     2    1  127 1    
     3    1  128 1    
     4    1  129 1    
     5    2    3 2    
     6    2    4 am   BACKBONE|DICT|INTERRES
     7    4    5 1    
     8    4  130 1    
     9    5    6 1    
    10    5   65 1    
    11    5  131 1    
    12    6    7 1    
    13    6  132 1    
    14    6  133 1    
    15    7    8 1    
    16    8    9 1    
    17    8  134 1    
    18    8  135 1    
    19    9   10 ar   
    20    9   14 ar   
    21   10   11 ar   
    22   10  136 1    
    23   11   12 ar   
    24   11  126 1    
    25   12   13 ar   
    26   12  137 1    
    27   13   14 ar   
    28   13   15 1    
    29   14  138 1    
    30   15   16 1    
    31   15  139 1    
    32   15  140 1    
    33   16   17 1    
    34   17   18 1    
    35   17  141 1    
    36   17  142 1    
    37   18   19 1    
    38   18   67 1    
    39   18  143 1    
    40   19   20 am   BACKBONE|DICT|INTERRES
    41   19  144 1    
    42   20   21 2    
    43   20   22 1    
    44   22   23 1    
    45   22   24 1    
    46   22  145 1    
    47   23  146 1    
    48   23  147 1    
    49   23  148 1    
    50   24   25 am   BACKBONE|DICT|INTERRES
    51   24  149 1    
    52   25   26 2    
    53   25   27 1    
    54   27   28 1    
    55   27   29 1    
    56   27  150 1    
    57   28  151 1    
    58   28  152 1    
    59   28  153 1    
    60   29   30 am   BACKBONE|DICT|INTERRES
    61   29  154 1    
    62   30   31 2    
    63   30   32 1    
    64   32   33 1    
    65   32   34 1    
    66   32  155 1    
    67   33  156 1    
    68   33  157 1    
    69   33  158 1    
    70   34   35 am   BACKBONE|DICT|INTERRES
    71   34  159 1    
    72   35   36 2    
    73   35   37 1    
    74   37   38 1    
    75   37   39 1    
    76   37  160 1    
    77   38  161 1    
    78   38  162 1    
    79   38  163 1    
    80   39   40 am   BACKBONE|DICT|INTERRES
    81   39  164 1    
    82   40   41 2    
    83   40   42 1    
    84   42   43 1    
    85   42   44 1    
    86   42  165 1    
    87   43  166 1    
    88   43  167 1    
    89   43  168 1    
    90   44   45 am   BACKBONE|DICT|INTERRES
    91   44  169 1    
    92   45   46 2    
    93   45   47 1    
    94   47   48 1    
    95   47   49 1    
    96   47  170 1    
    97   48  171 1    
    98   48  172 1    
    99   48  173 1    
   100   49   50 am   BACKBONE|DICT|INTERRES
   101   49  174 1    
   102   50   51 2    
   103   50   52 1    
   104   52   53 1    
   105   52   54 1    
   106   52  175 1    
   107   53  176 1    
   108   53  177 1    
   109   53  178 1    
   110   54   55 am   BACKBONE|DICT|INTERRES
   111   54  179 1    
   112   55   56 2    
   113   55   57 1    
   114   57   58 1    
   115   57   59 1    
   116   57  180 1    
   117   58  181 1    
   118   58  182 1    
   119   58  183 1    
   120   59   60 am   BACKBONE|DICT|INTERRES
   121   59  184 1    
   122   60   61 2    
   123   60   62 1    
   124   62   63 1    
   125   62   64 1    
   126   62  185 1    
   127   63  186 1    
   128   63  187 1    
   129   63  188 1    
   130   64   65 am   BACKBONE|DICT|INTERRES
   131   64  189 1    
   132   65   66 2    
   133   67   68 2    
   134   67   69 am   BACKBONE|DICT|INTERRES
   135   69   70 1    
   136   69  190 1    
   137   70   71 1    
   138   70   72 1    
   139   70  191 1    
   140   71  192 1    
   141   71  193 1    
   142   71  194 1    
   143   72   73 2    
   144   72   74 am   BACKBONE|DICT|INTERRES
   145   74   75 1    
   146   74  195 1    
   147   75   76 1    
   148   75   77 1    
   149   75  196 1    
   150   76  197 1    
   151   76  198 1    
   152   76  199 1    
   153   77   78 2    
   154   77   79 am   BACKBONE|DICT|INTERRES
   155   79   80 1    
   156   79  200 1    
   157   80   81 1    
   158   80   82 1    
   159   80  201 1    
   160   81  202 1    
   161   81  203 1    
   162   81  204 1    
   163   82   83 2    
   164   82   84 am   BACKBONE|DICT|INTERRES
   165   84   85 1    
   166   84  205 1    
   167   85   86 1    
   168   85   87 1    
   169   85  206 1    
   170   86  207 1    
   171   86  208 1    
   172   86  209 1    
   173   87   88 2    
   174   87   89 am   BACKBONE|DICT|INTERRES
   175   89   90 1    
   176   89  210 1    
   177   90   91 1    
   178   90   92 1    
   179   90  211 1    
   180   91  212 1    
   181   91  213 1    
   182   91  214 1    
   183   92   93 2    
   184   92   94 am   BACKBONE|DICT|INTERRES
   185   94   95 1    
   186   94  215 1    
   187   95   96 1    
   188   95   97 1    
   189   95  216 1    
   190   96  217 1    
   191   96  218 1    
   192   96  219 1    
   193   97   98 2    
   194   97   99 am   BACKBONE|DICT|INTERRES
   195   99  100 1    
   196   99  220 1    
   197  100  101 1    
   198  100  102 1    
   199  100  221 1    
   200  101  222 1    
   201  101  223 1    
   202  101  224 1    
   203  102  103 2    
   204  102  104 am   BACKBONE|DICT|INTERRES
   205  104  105 1    
   206  104  225 1    
   207  105  106 1    
   208  105  107 1    
   209  105  226 1    
   210  106  227 1    
   211  106  228 1    
   212  106  229 1    
   213  107  108 2    
   214  107  109 am   BACKBONE|DICT|INTERRES
   215  109  110 1    
   216  109  230 1    
   217  110  111 1    
   218  110  112 1    
   219  110  231 1    
   220  111  232 1    
   221  111  233 1    
   222  111  234 1    
   223  112  113 2    
   224  112  114 am   BACKBONE|DICT|INTERRES
   225  114  115 1    
   226  114  235 1    
   227  115  116 1    
   228  115  117 1    
   229  115  236 1    
   230  116  237 1    
   231  116  238 1    
   232  116  239 1    
   233  117  118 2    
   234  117  119 am   BACKBONE|DICT|INTERRES
   235  119  120 1    
   236  119  240 1    
   237  120  121 1    
   238  120  124 1    
   239  120  241 1    
   240  121  122 am   BACKBONE|DICT|INTERRES
   241  121  123 2    
   242  122  242 1    
   243  122  243 1    
   244  124  125 1    
   245  124  244 1    
   246  124  245 1    
   247  125  126 1    
   248  126  246 1    
   249  126  247 1    
@<TRIPOS>SUBSTRUCTURE
     1 UNK         1 GROUP             0       ****    0 ROOT    
