@<TRIPOS>MOLECULE
3R540
247   249    1
SMALL
USER_CHARGES


@<TRIPOS>ATOM
      1 CA          6.1011  -11.5498  -48.6293 C.3       0 UNK        -0.1800 
      2 C           5.9540  -13.0592  -48.7602 C.2       0 UNK         0.5000 
      3 O           6.9172  -13.7408  -49.1131 O.2       0 UNK        -0.5000 
      4 N           4.7514  -13.5794  -48.4878 N.am      1 UNK        -0.5000 
      5 CA          4.4261  -15.0095  -48.5029 C.3       1 UNK         0.1400 
      6 C6          2.8936  -15.2495  -48.4787 C.3       23 UNK        -0.0398 
      7 S7          1.9982  -14.4199  -49.8444 S.3       23 UNK        -0.2404 
      8 C8          2.5993  -15.2695  -51.3457 C.3       23 UNK        -0.0205 
      9 C9          2.0389  -16.6771  -51.4709 C.ar      23 UNK        -0.0193 
     10 C10         0.9116  -16.9266  -52.2579 C.ar      23 UNK        -0.1150 
     11 C11         0.3770  -18.2163  -52.3451 C.ar      23 UNK        -0.0193 
     12 C12         0.9604  -19.2540  -51.6103 C.ar      23 UNK        -0.1150 
     13 C13         2.0869  -19.0130  -50.8176 C.ar      23 UNK        -0.0193 
     14 C14         2.6449  -17.7335  -50.7907 C.ar      23 UNK        -0.1150 
     15 C15         2.6844  -20.1207  -49.9619 C.3       23 UNK        -0.0205 
     16 S16         2.8572  -19.6372  -48.2077 S.3       23 UNK        -0.2404 
     17 C17         1.1473  -19.2021  -47.7399 C.3       23 UNK        -0.0398 
     18 CA          0.3842  -20.4080  -47.1376 C.3       11 UNK         0.1400 
     19 N          -0.4546  -20.0312  -46.0000 N.am      11 UNK        -0.5000 
     20 C          -0.9952  -20.9017  -45.1362 C.2       10 UNK         0.5000 
     21 O          -0.7851  -22.1144  -45.1634 O.2       10 UNK        -0.5000 
     22 CA         -1.9784  -20.3190  -44.1070 C.3       10 UNK         0.1400 
     23 CB         -1.2295  -19.8442  -42.8543 C.3       10 UNK        -0.1800 
     24 N          -2.7598  -19.2157  -44.6726 N.am      10 UNK        -0.5000 
     25 C          -3.7208  -19.3888  -45.5942 C.2       9 UNK         0.5000 
     26 O          -4.0847  -20.4978  -45.9855 O.2       9 UNK        -0.5000 
     27 CA         -4.3488  -18.1277  -46.2242 C.3       9 UNK         0.1400 
     28 CB         -5.5881  -17.6907  -45.4303 C.3       9 UNK        -0.1800 
     29 N          -3.4227  -16.9994  -46.3256 N.am      9 UNK        -0.5000 
     30 C          -2.2852  -16.9930  -47.0350 C.2       8 UNK         0.5000 
     31 O          -1.9257  -17.9293  -47.7462 O.2       8 UNK        -0.5000 
     32 CA         -1.3482  -15.7795  -46.8606 C.3       8 UNK         0.1400 
     33 CB         -1.4747  -14.8091  -48.0424 C.3       8 UNK        -0.1800 
     34 N          -1.5432  -15.0482  -45.6022 N.am      8 UNK        -0.5000 
     35 C          -1.3746  -15.5788  -44.3830 C.2       7 UNK         0.5000 
     36 O          -1.0588  -16.7565  -44.2078 O.2       7 UNK        -0.5000 
     37 CA         -1.6320  -14.6350  -43.1926 C.3       7 UNK         0.1400 
     38 CB         -3.1390  -14.3707  -42.9984 C.3       7 UNK        -0.1800 
     39 N          -0.9904  -15.0921  -41.9550 N.am      7 UNK        -0.5000 
     40 C          -1.3052  -16.1346  -41.1681 C.2       6 UNK         0.5000 
     41 O          -2.3259  -16.8121  -41.2958 O.2       6 UNK        -0.5000 
     42 CA         -0.3093  -16.4743  -40.0365 C.3       6 UNK         0.1400 
     43 CB         -0.1131  -17.9928  -39.8822 C.3       6 UNK        -0.1800 
     44 N           0.9989  -15.8666  -40.2821 N.am      6 UNK        -0.5000 
     45 C           1.5595  -14.8821  -39.5674 C.2       5 UNK         0.5000 
     46 O           1.0623  -14.4114  -38.5438 O.2       5 UNK        -0.5000 
     47 CA          2.8907  -14.3011  -40.0964 C.3       5 UNK         0.1400 
     48 CB          4.0811  -14.9318  -39.3583 C.3       5 UNK        -0.1800 
     49 N           3.0829  -14.4754  -41.5400 N.am      5 UNK        -0.5000 
     50 C           2.2908  -13.9608  -42.4910 C.2       4 UNK         0.5000 
     51 O           1.3536  -13.1993  -42.2520 O.2       4 UNK        -0.5000 
     52 CA          2.5330  -14.4138  -43.9455 C.3       4 UNK         0.1400 
     53 CB          3.3012  -13.3245  -44.7087 C.3       4 UNK        -0.1800 
     54 N           3.2059  -15.7139  -44.1069 N.am      4 UNK        -0.5000 
     55 C           2.7862  -16.8807  -43.5837 C.2       3 UNK         0.5000 
     56 O           1.8214  -16.9655  -42.8247 O.2       3 UNK        -0.5000 
     57 CA          3.5670  -18.1619  -43.9375 C.3       3 UNK         0.1400 
     58 CB          2.6324  -19.3749  -44.0862 C.3       3 UNK        -0.1800 
     59 N           4.3428  -18.0077  -45.1684 N.am      3 UNK        -0.5000 
     60 C           5.6776  -18.0662  -45.2507 C.2       2 UNK         0.5000 
     61 O           6.4162  -18.2815  -44.2889 O.2       2 UNK        -0.5000 
     62 CA          6.3052  -17.8253  -46.6395 C.3       2 UNK         0.1400 
     63 CB          6.6509  -19.1622  -47.3136 C.3       2 UNK        -0.1800 
     64 N           5.4945  -17.0179  -47.5610 N.am      2 UNK        -0.5000 
     65 C           5.1291  -15.7471  -47.3417 C.2       1 UNK         0.5000 
     66 O           5.3163  -15.1674  -46.2699 O.2       1 UNK        -0.5000 
     67 C          -0.4443  -21.1504  -48.2026 C.2       11 UNK         0.5000 
     68 O           0.0136  -22.1658  -48.7215 O.2       11 UNK        -0.5000 
     69 N          -1.6713  -20.6707  -48.4587 N.am      12 UNK        -0.5000 
     70 CA         -2.6555  -21.3108  -49.3315 C.3       12 UNK         0.1400 
     71 CB         -3.9223  -20.4449  -49.4327 C.3       12 UNK        -0.1800 
     72 C          -3.0110  -22.7293  -48.8581 C.2       12 UNK         0.5000 
     73 O          -3.0131  -23.6519  -49.6703 O.2       12 UNK        -0.5000 
     74 N          -3.2571  -22.8888  -47.5505 N.am      13 UNK        -0.5000 
     75 CA         -3.5078  -24.1797  -46.9092 C.3       13 UNK         0.1400 
     76 CB         -3.9026  -23.9589  -45.4417 C.3       13 UNK        -0.1800 
     77 C          -2.3168  -25.1501  -47.0258 C.2       13 UNK         0.5000 
     78 O          -2.5244  -26.3223  -47.3401 O.2       13 UNK        -0.5000 
     79 N          -1.0948  -24.6412  -46.8130 N.am      14 UNK        -0.5000 
     80 CA          0.1535  -25.3956  -46.9503 C.3       14 UNK         0.1400 
     81 CB          1.3153  -24.5700  -46.3760 C.3       14 UNK        -0.1800 
     82 C           0.4494  -25.8188  -48.4031 C.2       14 UNK         0.5000 
     83 O           0.8857  -26.9475  -48.6316 O.2       14 UNK        -0.5000 
     84 N           0.1939  -24.9140  -49.3567 N.am      15 UNK        -0.5000 
     85 CA          0.3920  -25.1192  -50.7932 C.3       15 UNK         0.1400 
     86 CB          0.4597  -23.7442  -51.4796 C.3       15 UNK        -0.1800 
     87 C          -0.6958  -25.9854  -51.4589 C.2       15 UNK         0.5000 
     88 O          -0.5070  -26.3979  -52.6040 O.2       15 UNK        -0.5000 
     89 N          -1.8157  -26.2134  -50.7556 N.am      16 UNK        -0.5000 
     90 CA         -3.0596  -26.8257  -51.2388 C.3       16 UNK         0.1400 
     91 CB         -2.8467  -28.2973  -51.6506 C.3       16 UNK        -0.1800 
     92 C          -3.7366  -25.9696  -52.3333 C.2       16 UNK         0.5000 
     93 O          -4.2982  -26.5001  -53.2929 O.2       16 UNK        -0.5000 
     94 N          -3.6696  -24.6471  -52.1453 N.am      17 UNK        -0.5000 
     95 CA         -4.2308  -23.6019  -52.9977 C.3       17 UNK         0.1400 
     96 CB         -3.1006  -22.6389  -53.4008 C.3       17 UNK        -0.1800 
     97 C          -5.3712  -22.8555  -52.2779 C.2       17 UNK         0.5000 
     98 O          -5.7618  -21.7709  -52.7097 O.2       17 UNK        -0.5000 
     99 N          -5.9078  -23.4372  -51.1950 N.am      18 UNK        -0.5000 
    100 CA        -6.9902  -22.8825  -50.3743 C.3       18 UNK         0.1400 
    101 CB        -7.2018  -23.7861  -49.1514 C.3       18 UNK        -0.1800 
    102 C         -8.3164  -22.6651  -51.1328 C.2       18 UNK         0.5000 
    103 O         -9.1182  -21.8309  -50.7146 O.2       18 UNK        -0.5000 
    104 N         -8.5085  -23.3873  -52.2461 N.am      19 UNK        -0.5000 
    105 CA        -9.6122  -23.1921  -53.1876 C.3       19 UNK         0.1400 
    106 CB        -9.6794  -24.3965  -54.1389 C.3       19 UNK        -0.1800 
    107 C         -9.4924  -21.8776  -53.9864 C.2       19 UNK         0.5000 
    108 O        -10.5169  -21.2813  -54.3206 O.2       19 UNK        -0.5000 
    109 N         -8.2542  -21.4446  -54.2677 N.am      20 UNK        -0.5000 
    110 CA        -7.9504  -20.1494  -54.8792 C.3       20 UNK         0.1400 
    111 CB        -6.6165  -20.2350  -55.6387 C.3       20 UNK        -0.1800 
    112 C         -7.9089  -19.0323  -53.8209 C.2       20 UNK         0.5000 
    113 O         -8.3474  -17.9188  -54.1089 O.2       20 UNK        -0.5000 
    114 N         -7.4166  -19.3744  -52.6191 N.am      21 UNK        -0.5000 
    115 CA        -7.3230  -18.5540  -51.4091 C.3       21 UNK         0.1400 
    116 CB        -8.7227  -18.1460  -50.9047 C.3       21 UNK        -0.1800 
    117 C         -6.3821  -17.3506  -51.6030 C.2       21 UNK         0.5000 
    118 O         -6.8396  -16.2345  -51.8577 O.2       21 UNK        -0.5000 
    119 N         -5.0759  -17.6258  -51.5026 N.am      22 UNK        -0.5000 
    120 CA        -3.9659  -16.6634  -51.6085 C.3       22 UNK         0.1400 
    121 C         -4.1122  -15.4215  -50.6816 C.2       22 UNK         0.5000 
    122 N         -3.7128  -14.2443  -51.1437 N.am      22 UNK        -0.7600 
    123 O         -4.5374  -15.5264  -49.5335 O.2       22 UNK        -0.5000 
    124 C124       -2.5980  -17.3405  -51.3347 C.3       23 UNK        -0.0398 
    125 S125       -2.3261  -18.8799  -52.2826 S.3       23 UNK        -0.2404 
    126 C126       -0.8283  -18.4854  -53.2363 C.3       23 UNK        -0.0205 
    127 H127        5.1690  -11.0770  -48.3185 H         1 UNK         0.0600 
    128 H128        6.3998  -11.1173  -49.5842 H         1 UNK         0.0600 
    129 H129        6.8660  -11.3105  -47.8906 H         1 UNK         0.0600 
    130 H130        4.0012  -12.9660  -48.2056 H         1 UNK         0.3000 
    131 H131        4.8272  -15.4245  -49.4284 H         1 UNK         0.0600 
    132 H132        2.6557  -16.3125  -48.4907 H         1 UNK         0.0800 
    133 H133        2.4706  -14.8756  -47.5453 H         1 UNK         0.0800 
    134 H134        2.3009  -14.6787  -52.2130 H         1 UNK         0.0800 
    135 H135        3.6886  -15.2902  -51.3679 H         1 UNK         0.0800 
    136 H136        0.4498  -16.1146  -52.8019 H         1 UNK         0.1150 
    137 H137        0.5279  -20.2444  -51.6494 H         1 UNK         0.1150 
    138 H138        3.5291  -17.5535  -50.1984 H         1 UNK         0.1150 
    139 H139        2.0819  -21.0272  -50.0229 H         1 UNK         0.0800 
    140 H140        3.6683  -20.3786  -50.3554 H         1 UNK         0.0800 
    141 H141        1.2325  -18.4042  -47.0018 H         1 UNK         0.0800 
    142 H142        0.6138  -18.7480  -48.5769 H         1 UNK         0.0800 
    143 H143        1.1152  -21.1203  -46.7479 H         1 UNK         0.0600 
    144 H144       -0.7226  -19.0603  -45.9297 H         1 UNK         0.3000 
    145 H145       -2.6656  -21.1140  -43.8098 H         1 UNK         0.0600 
    146 H146       -1.9199  -19.4498  -42.1090 H         1 UNK         0.0600 
    147 H147       -0.6843  -20.6669  -42.3903 H         1 UNK         0.0600 
    148 H148       -0.5044  -19.0634  -43.0860 H         1 UNK         0.0600 
    149 H149       -2.4672  -18.2782  -44.4172 H         1 UNK         0.3000 
    150 H150       -4.6650  -18.3862  -47.2366 H         1 UNK         0.0600 
    151 H151       -6.3108  -18.5044  -45.3558 H         1 UNK         0.0600 
    152 H152       -6.0917  -16.8538  -45.9146 H         1 UNK         0.0600 
    153 H153       -5.3290  -17.3867  -44.4151 H         1 UNK         0.0600 
    154 H154       -3.6375  -16.1868  -45.7682 H         1 UNK         0.3000 
    155 H155       -0.3275  -16.1679  -46.8574 H         1 UNK         0.0600 
    156 H156       -0.7286  -14.0165  -47.9844 H         1 UNK         0.0600 
    157 H157       -2.4599  -14.3433  -48.0758 H         1 UNK         0.0600 
    158 H158       -1.3216  -15.3257  -48.9912 H         1 UNK         0.0600 
    159 H159       -1.8167  -14.0794  -45.6852 H         1 UNK         0.3000 
    160 H160       -1.1553  -13.6830  -43.4305 H         1 UNK         0.0600 
    161 H161       -3.7066  -15.2944  -42.8824 H         1 UNK         0.0600 
    162 H162       -3.5568  -13.8439  -43.8568 H         1 UNK         0.0600 
    163 H163       -3.3215  -13.7513  -42.1202 H         1 UNK         0.0600 
    164 H164       -0.1275  -14.6075  -41.7401 H         1 UNK         0.3000 
    165 H165       -0.7437  -16.0914  -39.1112 H         1 UNK         0.0600 
    166 H166        0.3133  -18.4323  -40.7844 H         1 UNK         0.0600 
    167 H167        0.5573  -18.2189  -39.0530 H         1 UNK         0.0600 
    168 H168       -1.0580  -18.4986  -39.6807 H         1 UNK         0.0600 
    169 H169        1.4607  -16.1862  -41.1311 H         1 UNK         0.3000 
    170 H170        2.8852  -13.2293  -39.8879 H         1 UNK         0.0600 
    171 H171        3.9886  -14.7966  -38.2798 H         1 UNK         0.0600 
    172 H172        4.1505  -16.0034  -39.5500 H         1 UNK         0.0600 
    173 H173        5.0224  -14.4734  -39.6619 H         1 UNK         0.0600 
    174 H174        3.8251  -15.0966  -41.8259 H         1 UNK         0.3000 
    175 H175        1.5486  -14.5107  -44.4069 H         1 UNK         0.0600 
    176 H176        4.3401  -13.2624  -44.3825 H         1 UNK         0.0600 
    177 H177        3.2948  -13.5121  -45.7806 H         1 UNK         0.0600 
    178 H178        2.8506  -12.3424  -44.5583 H         1 UNK         0.0600 
    179 H179        4.0295  -15.7143  -44.6991 H         1 UNK         0.3000 
    180 H180        4.2278  -18.3562  -43.0908 H         1 UNK         0.0600 
    181 H181        1.8677  -19.1933  -44.8379 H         1 UNK         0.0600 
    182 H182        2.1218  -19.5979  -43.1485 H         1 UNK         0.0600 
    183 H183        3.1836  -20.2695  -44.3759 H         1 UNK         0.0600 
    184 H184        3.8211  -17.8338  -46.0147 H         1 UNK         0.3000 
    185 H185        7.2386  -17.2830  -46.4741 H         1 UNK         0.0600 
    186 H186        7.1780  -19.0069  -48.2550 H         1 UNK         0.0600 
    187 H187        7.2998  -19.7644  -46.6762 H         1 UNK         0.0600 
    188 H188        5.7588  -19.7532  -47.5205 H         1 UNK         0.0600 
    189 H189        5.2975  -17.4422  -48.4553 H         1 UNK         0.3000 
    190 H190       -1.9348  -19.7817  -48.0427 H         1 UNK         0.3000 
    191 H191       -2.2033  -21.3807  -50.3220 H         1 UNK         0.0600 
    192 H192       -4.5059  -20.7242  -50.3091 H         1 UNK         0.0600 
    193 H193       -3.6808  -19.3885  -49.5250 H         1 UNK         0.0600 
    194 H194       -4.5702  -20.5558  -48.5637 H         1 UNK         0.0600 
    195 H195       -3.2904  -22.0667  -46.9559 H         1 UNK         0.3000 
    196 H196       -4.3546  -24.6425  -47.4188 H         1 UNK         0.0600 
    197 H197       -4.1331  -24.9062  -44.9529 H         1 UNK         0.0600 
    198 H198       -4.7880  -23.3276  -45.3634 H         1 UNK         0.0600 
    199 H199       -3.1027  -23.4831  -44.8747 H         1 UNK         0.0600 
    200 H200       -1.0123  -23.6733  -46.5207 H         1 UNK         0.3000 
    201 H201        0.0600  -26.3053  -46.3536 H         1 UNK         0.0600 
    202 H202        1.1425  -24.3212  -45.3288 H         1 UNK         0.0600 
    203 H203        1.4562  -23.6367  -46.9215 H         1 UNK         0.0600 
    204 H204        2.2524  -25.1254  -46.4288 H         1 UNK         0.0600 
    205 H205       -0.0965  -23.9798  -49.0747 H         1 UNK         0.3000 
    206 H206        1.3488  -25.6235  -50.9430 H         1 UNK         0.0600 
    207 H207        1.2753  -23.1435  -51.0777 H         1 UNK         0.0600 
    208 H208        0.6304  -23.8450  -52.5521 H         1 UNK         0.0600 
    209 H209       -0.4668  -23.1841  -51.3459 H         1 UNK         0.0600 
    210 H210       -1.8684  -25.7964  -49.8352 H         1 UNK         0.3000 
    211 H211       -3.7424  -26.8217  -50.3880 H         1 UNK         0.0600 
    212 H212       -2.2389  -28.3869  -52.5510 H         1 UNK         0.0600 
    213 H213       -3.8005  -28.7853  -51.8537 H         1 UNK         0.0600 
    214 H214       -2.3569  -28.8611  -50.8566 H         1 UNK         0.0600 
    215 H215       -3.2407  -24.3153  -51.2810 H         1 UNK         0.3000 
    216 H216       -4.6544  -24.0368  -53.9047 H         1 UNK         0.0600 
    217 H217       -3.4617  -21.8668  -54.0815 H         1 UNK         0.0600 
    218 H218       -2.2956  -23.1690  -53.9100 H         1 UNK         0.0600 
    219 H219       -2.6718  -22.1366  -52.5339 H         1 UNK         0.0600 
    220 H220       -5.5233  -24.3213  -50.8973 H         1 UNK         0.3000 
    221 H221       -6.6652  -21.9034  -50.0177 H         1 UNK         0.0600 
    222 H222       -7.4789  -24.7999  -49.4427 H         1 UNK         0.0600 
    223 H223       -6.2980  -23.8431  -48.5458 H         1 UNK         0.0600 
    224 H224       -7.9949  -23.3992  -48.5102 H         1 UNK         0.0600 
    225 H225       -7.8086  -24.0684  -52.5001 H         1 UNK         0.3000 
    226 H226      -10.5443  -23.1526  -52.6198 H         1 UNK         0.0600 
    227 H227       -9.8341  -25.3252  -53.5893 H         1 UNK         0.0600 
    228 H228      -10.5084  -24.2935  -54.8404 H         1 UNK         0.0600 
    229 H229       -8.7649  -24.5000  -54.7243 H         1 UNK         0.0600 
    230 H230       -7.4618  -21.9617  -53.9094 H         1 UNK         0.3000 
    231 H231       -8.7308  -19.9018  -55.6021 H         1 UNK         0.0600 
    232 H232       -6.4022  -19.2960  -56.1503 H         1 UNK         0.0600 
    233 H233       -6.6437  -21.0187  -56.3959 H         1 UNK         0.0600 
    234 H234       -5.7780  -20.4405  -54.9732 H         1 UNK         0.0600 
    235 H235       -6.9984  -20.2971  -52.5487 H         1 UNK         0.3000 
    236 H236       -6.8815  -19.1910  -50.6408 H         1 UNK         0.0600 
    237 H237       -9.3465  -19.0219  -50.7266 H         1 UNK         0.0600 
    238 H238       -8.6503  -17.6009  -49.9630 H         1 UNK         0.0600 
    239 H239       -9.2456  -17.5029  -51.6129 H         1 UNK         0.0600 
    240 H240       -4.7929  -18.5809  -51.3445 H         1 UNK         0.3000 
    241 H241       -3.9678  -16.3128  -52.6421 H         1 UNK         0.0600 
    242 H242       -3.3572  -14.1322  -52.0804 H         1 UNK         0.3800 
    243 H243       -3.7928  -13.4357  -50.5476 H         1 UNK         0.3800 
    244 H244       -1.7955  -16.6345  -51.5493 H         1 UNK         0.0800 
    245 H245       -2.4933  -17.5839  -50.2776 H         1 UNK         0.0800 
    246 H246       -1.0323  -17.6328  -53.8859 H         1 UNK         0.0800 
    247 H247       -0.6022  -19.3243  -53.8958 H         1 UNK         0.0800 
@<TRIPOS>BOND
     1    1    2 1    
     2    1  127 1    
     3    1  128 1    
     4    1  129 1    
     5    2    3 2    
     6    2    4 am   BACKBONE|DICT|INTERRES
     7    4    5 1    
     8    4  130 1    
     9    5    6 1    
    10    5   65 1    
    11    5  131 1    
    12    6    7 1    
    13    6  132 1    
    14    6  133 1    
    15    7    8 1    
    16    8    9 1    
    17    8  134 1    
    18    8  135 1    
    19    9   10 ar   
    20    9   14 ar   
    21   10   11 ar   
    22   10  136 1    
    23   11   12 ar   
    24   11  126 1    
    25   12   13 ar   
    26   12  137 1    
    27   13   14 ar   
    28   13   15 1    
    29   14  138 1    
    30   15   16 1    
    31   15  139 1    
    32   15  140 1    
    33   16   17 1    
    34   17   18 1    
    35   17  141 1    
    36   17  142 1    
    37   18   19 1    
    38   18   67 1    
    39   18  143 1    
    40   19   20 am   BACKBONE|DICT|INTERRES
    41   19  144 1    
    42   20   21 2    
    43   20   22 1    
    44   22   23 1    
    45   22   24 1    
    46   22  145 1    
    47   23  146 1    
    48   23  147 1    
    49   23  148 1    
    50   24   25 am   BACKBONE|DICT|INTERRES
    51   24  149 1    
    52   25   26 2    
    53   25   27 1    
    54   27   28 1    
    55   27   29 1    
    56   27  150 1    
    57   28  151 1    
    58   28  152 1    
    59   28  153 1    
    60   29   30 am   BACKBONE|DICT|INTERRES
    61   29  154 1    
    62   30   31 2    
    63   30   32 1    
    64   32   33 1    
    65   32   34 1    
    66   32  155 1    
    67   33  156 1    
    68   33  157 1    
    69   33  158 1    
    70   34   35 am   BACKBONE|DICT|INTERRES
    71   34  159 1    
    72   35   36 2    
    73   35   37 1    
    74   37   38 1    
    75   37   39 1    
    76   37  160 1    
    77   38  161 1    
    78   38  162 1    
    79   38  163 1    
    80   39   40 am   BACKBONE|DICT|INTERRES
    81   39  164 1    
    82   40   41 2    
    83   40   42 1    
    84   42   43 1    
    85   42   44 1    
    86   42  165 1    
    87   43  166 1    
    88   43  167 1    
    89   43  168 1    
    90   44   45 am   BACKBONE|DICT|INTERRES
    91   44  169 1    
    92   45   46 2    
    93   45   47 1    
    94   47   48 1    
    95   47   49 1    
    96   47  170 1    
    97   48  171 1    
    98   48  172 1    
    99   48  173 1    
   100   49   50 am   BACKBONE|DICT|INTERRES
   101   49  174 1    
   102   50   51 2    
   103   50   52 1    
   104   52   53 1    
   105   52   54 1    
   106   52  175 1    
   107   53  176 1    
   108   53  177 1    
   109   53  178 1    
   110   54   55 am   BACKBONE|DICT|INTERRES
   111   54  179 1    
   112   55   56 2    
   113   55   57 1    
   114   57   58 1    
   115   57   59 1    
   116   57  180 1    
   117   58  181 1    
   118   58  182 1    
   119   58  183 1    
   120   59   60 am   BACKBONE|DICT|INTERRES
   121   59  184 1    
   122   60   61 2    
   123   60   62 1    
   124   62   63 1    
   125   62   64 1    
   126   62  185 1    
   127   63  186 1    
   128   63  187 1    
   129   63  188 1    
   130   64   65 am   BACKBONE|DICT|INTERRES
   131   64  189 1    
   132   65   66 2    
   133   67   68 2    
   134   67   69 am   BACKBONE|DICT|INTERRES
   135   69   70 1    
   136   69  190 1    
   137   70   71 1    
   138   70   72 1    
   139   70  191 1    
   140   71  192 1    
   141   71  193 1    
   142   71  194 1    
   143   72   73 2    
   144   72   74 am   BACKBONE|DICT|INTERRES
   145   74   75 1    
   146   74  195 1    
   147   75   76 1    
   148   75   77 1    
   149   75  196 1    
   150   76  197 1    
   151   76  198 1    
   152   76  199 1    
   153   77   78 2    
   154   77   79 am   BACKBONE|DICT|INTERRES
   155   79   80 1    
   156   79  200 1    
   157   80   81 1    
   158   80   82 1    
   159   80  201 1    
   160   81  202 1    
   161   81  203 1    
   162   81  204 1    
   163   82   83 2    
   164   82   84 am   BACKBONE|DICT|INTERRES
   165   84   85 1    
   166   84  205 1    
   167   85   86 1    
   168   85   87 1    
   169   85  206 1    
   170   86  207 1    
   171   86  208 1    
   172   86  209 1    
   173   87   88 2    
   174   87   89 am   BACKBONE|DICT|INTERRES
   175   89   90 1    
   176   89  210 1    
   177   90   91 1    
   178   90   92 1    
   179   90  211 1    
   180   91  212 1    
   181   91  213 1    
   182   91  214 1    
   183   92   93 2    
   184   92   94 am   BACKBONE|DICT|INTERRES
   185   94   95 1    
   186   94  215 1    
   187   95   96 1    
   188   95   97 1    
   189   95  216 1    
   190   96  217 1    
   191   96  218 1    
   192   96  219 1    
   193   97   98 2    
   194   97   99 am   BACKBONE|DICT|INTERRES
   195   99  100 1    
   196   99  220 1    
   197  100  101 1    
   198  100  102 1    
   199  100  221 1    
   200  101  222 1    
   201  101  223 1    
   202  101  224 1    
   203  102  103 2    
   204  102  104 am   BACKBONE|DICT|INTERRES
   205  104  105 1    
   206  104  225 1    
   207  105  106 1    
   208  105  107 1    
   209  105  226 1    
   210  106  227 1    
   211  106  228 1    
   212  106  229 1    
   213  107  108 2    
   214  107  109 am   BACKBONE|DICT|INTERRES
   215  109  110 1    
   216  109  230 1    
   217  110  111 1    
   218  110  112 1    
   219  110  231 1    
   220  111  232 1    
   221  111  233 1    
   222  111  234 1    
   223  112  113 2    
   224  112  114 am   BACKBONE|DICT|INTERRES
   225  114  115 1    
   226  114  235 1    
   227  115  116 1    
   228  115  117 1    
   229  115  236 1    
   230  116  237 1    
   231  116  238 1    
   232  116  239 1    
   233  117  118 2    
   234  117  119 am   BACKBONE|DICT|INTERRES
   235  119  120 1    
   236  119  240 1    
   237  120  121 1    
   238  120  124 1    
   239  120  241 1    
   240  121  122 am   BACKBONE|DICT|INTERRES
   241  121  123 2    
   242  122  242 1    
   243  122  243 1    
   244  124  125 1    
   245  124  244 1    
   246  124  245 1    
   247  125  126 1    
   248  126  246 1    
   249  126  247 1    
@<TRIPOS>SUBSTRUCTURE
     1 UNK         1 GROUP             0       ****    0 ROOT    
