@<TRIPOS>MOLECULE
3R540
247   249    1
SMALL
USER_CHARGES


@<TRIPOS>ATOM
      1 CA          4.5852  -10.2836  -52.1517 C.3       0 UNK        -0.1800 
      2 C           4.2298  -10.4150  -50.6776 C.2       0 UNK         0.5000 
      3 O           3.7241   -9.4638  -50.0820 O.2       0 UNK        -0.5000 
      4 N           4.4945  -11.5883  -50.0891 N.am      1 UNK        -0.5000 
      5 CA          4.1954  -11.9233  -48.6902 C.3       1 UNK         0.1400 
      6 C6          5.0092  -13.1517  -48.2023 C.3       23 UNK        -0.0398 
      7 S7          4.9273  -14.6079  -49.3058 S.3       23 UNK        -0.2404 
      8 C8          3.7306  -15.6523  -48.4208 C.3       23 UNK        -0.0205 
      9 C9          3.1114  -16.7041  -49.3246 C.ar      23 UNK        -0.0193 
     10 C10         2.3625  -16.3087  -50.4344 C.ar      23 UNK        -0.1150 
     11 C11         1.7348  -17.2543  -51.2500 C.ar      23 UNK        -0.0193 
     12 C12         1.8499  -18.6112  -50.9301 C.ar      23 UNK        -0.1150 
     13 C13         2.5988  -19.0255  -49.8226 C.ar      23 UNK        -0.0193 
     14 C14         3.2432  -18.0639  -49.0346 C.ar      23 UNK        -0.1150 
     15 C15         2.7225  -20.5121  -49.5032 C.3       23 UNK        -0.0205 
     16 S16         2.4602  -20.8810  -47.7379 S.3       23 UNK        -0.2404 
     17 C17         2.4941  -22.7045  -47.7342 C.3       23 UNK        -0.0398 
     18 CA          1.3227  -23.3553  -46.9607 C.3       11 UNK         0.1400 
     19 N           1.2496  -22.9159  -45.5646 N.am      11 UNK        -0.5000 
     20 C           0.5782  -23.5636  -44.6038 C.2       10 UNK         0.5000 
     21 O          -0.0157  -24.6227  -44.8060 O.2       10 UNK        -0.5000 
     22 CA          0.4901  -22.9047  -43.2130 C.3       10 UNK         0.1400 
     23 CB          0.6545  -23.9237  -42.0676 C.3       10 UNK        -0.1800 
     24 N           1.3752  -21.7503  -43.0365 N.am      10 UNK        -0.5000 
     25 C           2.7137  -21.7230  -42.9635 C.2       9 UNK         0.5000 
     26 O           3.4296  -22.7220  -43.0340 O.2       9 UNK        -0.5000 
     27 CA          3.3680  -20.3352  -42.8093 C.3       9 UNK         0.1400 
     28 CB          3.9930  -19.8964  -44.1433 C.3       9 UNK        -0.1800 
     29 N           2.4309  -19.2991  -42.3675 N.am      9 UNK        -0.5000 
     30 C           1.9185  -19.1908  -41.1340 C.2       8 UNK         0.5000 
     31 O           2.2401  -19.9172  -40.1932 O.2       8 UNK        -0.5000 
     32 CA          0.8340  -18.1144  -40.9312 C.3       8 UNK         0.1400 
     33 CB          1.4694  -16.7373  -40.6888 C.3       8 UNK        -0.1800 
     34 N          -0.1051  -18.0339  -42.0547 N.am      8 UNK        -0.5000 
     35 C          -0.9703  -19.0027  -42.3906 C.2       7 UNK         0.5000 
     36 O          -1.0806  -20.0631  -41.7763 O.2       7 UNK        -0.5000 
     37 CA         -1.8312  -18.7712  -43.6441 C.3       7 UNK         0.1400 
     38 CB         -3.0490  -17.8933  -43.3218 C.3       7 UNK        -0.1800 
     39 N          -1.0688  -18.1677  -44.7338 N.am      7 UNK        -0.5000 
     40 C          -0.1068  -18.7881  -45.4302 C.2       6 UNK         0.5000 
     41 O           0.1715  -19.9816  -45.2974 O.2       6 UNK        -0.5000 
     42 CA          0.6852  -17.9192  -46.4266 C.3       6 UNK         0.1400 
     43 CB         -0.0482  -17.8501  -47.7736 C.3       6 UNK        -0.1800 
     44 N           0.9353  -16.5646  -45.9257 N.am      6 UNK        -0.5000 
     45 C           1.6696  -16.2905  -44.8370 C.2       5 UNK         0.5000 
     46 O           2.2491  -17.1490  -44.1759 O.2       5 UNK        -0.5000 
     47 CA          1.7319  -14.8283  -44.3687 C.3       5 UNK         0.1400 
     48 CB          2.9112  -14.0933  -45.0096 C.3       5 UNK        -0.1800 
     49 N           0.4900  -14.1124  -44.6475 N.am      5 UNK        -0.5000 
     50 C          -0.6335  -14.2792  -43.9373 C.2       4 UNK         0.5000 
     51 O          -0.7179  -15.0186  -42.9555 O.2       4 UNK        -0.5000 
     52 CA         -1.8805  -13.5331  -44.4446 C.3       4 UNK         0.1400 
     53 CB         -1.8312  -12.0502  -44.0469 C.3       4 UNK        -0.1800 
     54 N          -2.0462  -13.6438  -45.8952 N.am      4 UNK        -0.5000 
     55 C          -2.2734  -14.7951  -46.5424 C.2       3 UNK         0.5000 
     56 O          -2.3923  -15.8814  -45.9775 O.2       3 UNK        -0.5000 
     57 CA         -2.3603  -14.7348  -48.0783 C.3       3 UNK         0.1400 
     58 CB         -3.8190  -14.5497  -48.5202 C.3       3 UNK        -0.1800 
     59 N          -1.5332  -13.6987  -48.7034 N.am      3 UNK        -0.5000 
     60 C          -0.2001  -13.5900  -48.6053 C.2       2 UNK         0.5000 
     61 O           0.4869  -14.3116  -47.8791 O.2       2 UNK        -0.5000 
     62 CA          0.4389  -12.5030  -49.4979 C.3       2 UNK         0.1400 
     63 CB         -0.1774  -11.1105  -49.2399 C.3       2 UNK        -0.1800 
     64 N           1.9045  -12.4344  -49.4402 N.am      2 UNK        -0.5000 
     65 C           2.6771  -12.0508  -48.4114 C.2       1 UNK         0.5000 
     66 O           2.2446  -11.7464  -47.2990 O.2       1 UNK        -0.5000 
     67 C          -0.0360  -23.1952  -47.6752 C.2       11 UNK         0.5000 
     68 O          -0.3865  -24.0365  -48.5021 O.2       11 UNK        -0.5000 
     69 N          -0.8109  -22.1693  -47.2886 N.am      12 UNK        -0.5000 
     70 CA         -2.1951  -21.9745  -47.7225 C.3       12 UNK         0.1400 
     71 CB         -2.6804  -20.5909  -47.2672 C.3       12 UNK        -0.1800 
     72 C          -3.1322  -23.0793  -47.2003 C.2       12 UNK         0.5000 
     73 O          -4.0058  -23.5360  -47.9379 O.2       12 UNK        -0.5000 
     74 N          -2.9115  -23.5073  -45.9491 N.am      13 UNK        -0.5000 
     75 CA         -3.6442  -24.5986  -45.3078 C.3       13 UNK         0.1400 
     76 CB         -3.3847  -24.5828  -43.7935 C.3       13 UNK        -0.1800 
     77 C          -3.2928  -25.9647  -45.9215 C.2       13 UNK         0.5000 
     78 O          -4.1957  -26.7612  -46.1749 O.2       13 UNK        -0.5000 
     79 N          -2.0009  -26.1906  -46.2026 N.am      14 UNK        -0.5000 
     80 CA         -1.4882  -27.3803  -46.8889 C.3       14 UNK         0.1400 
     81 CB          0.0471  -27.3601  -46.8692 C.3       14 UNK        -0.1800 
     82 C          -2.0104  -27.5155  -48.3330 C.2       14 UNK         0.5000 
     83 O          -2.2700  -28.6315  -48.7838 O.2       14 UNK        -0.5000 
     84 N          -2.1936  -26.3761  -49.0152 N.am      15 UNK        -0.5000 
     85 CA         -2.8074  -26.2774  -50.3410 C.3       15 UNK         0.1400 
     86 CB         -2.4522  -24.9127  -50.9517 C.3       15 UNK        -0.1800 
     87 C          -4.3374  -26.4859  -50.3362 C.2       15 UNK         0.5000 
     88 O          -4.9218  -26.6200  -51.4121 O.2       15 UNK        -0.5000 
     89 N          -4.9609  -26.4887  -49.1477 N.am      16 UNK        -0.5000 
     90 CA         -6.3814  -26.6919  -48.8301 C.3       16 UNK         0.1400 
     91 CB         -6.8745  -28.0696  -49.3106 C.3       16 UNK        -0.1800 
     92 C          -7.3166  -25.5658  -49.3095 C.2       16 UNK         0.5000 
     93 O          -8.1512  -25.0994  -48.5344 O.2       16 UNK        -0.5000 
     94 N          -7.1481  -25.1244  -50.5596 N.am      17 UNK        -0.5000 
     95 CA         -7.9181  -24.0681  -51.2188 C.3       17 UNK         0.1400 
     96 CB         -7.9931  -24.3925  -52.7217 C.3       17 UNK        -0.1800 
     97 C          -7.3353  -22.6611  -50.9645 C.2       17 UNK         0.5000 
     98 O          -7.4755  -21.7808  -51.8149 O.2       17 UNK        -0.5000 
     99 N          -6.6405  -22.4767  -49.8311 N.am      18 UNK        -0.5000 
    100 CA        -5.9603  -21.2511  -49.3903 C.3       18 UNK         0.1400 
    101 CB        -6.9827  -20.1305  -49.1065 C.3       18 UNK        -0.1800 
    102 C         -4.8380  -20.7898  -50.3476 C.2       18 UNK         0.5000 
    103 O         -4.5213  -19.6008  -50.3909 O.2       18 UNK        -0.5000 
    104 N         -4.3012  -21.7247  -51.1475 N.am      19 UNK        -0.5000 
    105 CA        -3.4102  -21.4947  -52.2932 C.3       19 UNK         0.1400 
    106 CB        -2.0222  -21.0085  -51.8207 C.3       19 UNK        -0.1800 
    107 C         -4.0460  -20.5720  -53.3607 C.2       19 UNK         0.5000 
    108 O         -3.3448  -19.7619  -53.9677 O.2       19 UNK        -0.5000 
    109 N         -5.3747  -20.6835  -53.5305 N.am      20 UNK        -0.5000 
    110 CA        -6.2524  -19.8208  -54.3321 C.3       20 UNK         0.1400 
    111 CB        -5.8915  -19.8880  -55.8311 C.3       20 UNK        -0.1800 
    112 C         -6.3211  -18.3794  -53.7804 C.2       20 UNK         0.5000 
    113 O         -6.3961  -17.4247  -54.5549 O.2       20 UNK        -0.5000 
    114 N         -6.2743  -18.2622  -52.4428 N.am      21 UNK        -0.5000 
    115 CA        -6.1250  -17.0334  -51.6519 C.3       21 UNK         0.1400 
    116 CB        -7.3651  -16.1262  -51.7890 C.3       21 UNK        -0.1800 
    117 C         -4.7959  -16.3170  -51.9719 C.2       21 UNK         0.5000 
    118 O         -4.7727  -15.0986  -52.1510 O.2       21 UNK        -0.5000 
    119 N         -3.7235  -17.1161  -52.0685 N.am      22 UNK        -0.5000 
    120 CA        -2.4142  -16.7696  -52.6391 C.3       22 UNK         0.1400 
    121 C         -2.5477  -16.2939  -54.1193 C.2       22 UNK         0.5000 
    122 N         -2.7953  -17.2176  -55.0377 N.am      22 UNK        -0.7600 
    123 O         -2.4506  -15.1126  -54.4416 O.2       22 UNK        -0.5000 
    124 C124       -1.5722  -15.8578  -51.6979 C.3       23 UNK        -0.0398 
    125 S125        0.0362  -15.2880  -52.3560 S.3       23 UNK        -0.2404 
    126 C126        1.0001  -16.8314  -52.5179 C.3       23 UNK        -0.0205 
    127 H127        3.6917  -10.0589  -52.7342 H         1 UNK         0.0600 
    128 H128        5.2998   -9.4730  -52.2948 H         1 UNK         0.0600 
    129 H129        5.0265  -11.1994  -52.5458 H         1 UNK         0.0600 
    130 H130        4.9179  -12.3325  -50.6265 H         1 UNK         0.3000 
    131 H131        4.5301  -11.0755  -48.0880 H         1 UNK         0.0600 
    132 H132        4.7341  -13.4305  -47.1852 H         1 UNK         0.0800 
    133 H133        6.0603  -12.8673  -48.1390 H         1 UNK         0.0800 
    134 H134        2.9218  -15.0331  -48.0419 H         1 UNK         0.0800 
    135 H135        4.2123  -16.1063  -47.5535 H         1 UNK         0.0800 
    136 H136        2.2800  -15.2564  -50.6639 H         1 UNK         0.1150 
    137 H137        1.3711  -19.3495  -51.5580 H         1 UNK         0.1150 
    138 H138        3.8254  -18.3742  -48.1786 H         1 UNK         0.1150 
    139 H139        2.0011  -21.0842  -50.0888 H         1 UNK         0.0800 
    140 H140        3.7144  -20.8559  -49.7993 H         1 UNK         0.0800 
    141 H141        3.4380  -23.0133  -47.2831 H         1 UNK         0.0800 
    142 H142        2.5235  -23.0813  -48.7581 H         1 UNK         0.0800 
    143 H143        1.5300  -24.4271  -46.9427 H         1 UNK         0.0600 
    144 H144        1.6501  -22.0124  -45.3525 H         1 UNK         0.3000 
    145 H145       -0.5224  -22.5048  -43.1451 H         1 UNK         0.0600 
    146 H146        0.5742  -23.4383  -41.0948 H         1 UNK         0.0600 
    147 H147       -0.1204  -24.6897  -42.1112 H         1 UNK         0.0600 
    148 H148        1.6167  -24.4343  -42.1115 H         1 UNK         0.0600 
    149 H149        0.9005  -20.8585  -42.9954 H         1 UNK         0.3000 
    150 H150        4.1631  -20.4241  -42.0664 H         1 UNK         0.0600 
    151 H151        4.7092  -20.6345  -44.5064 H         1 UNK         0.0600 
    152 H152        4.5256  -18.9513  -44.0370 H         1 UNK         0.0600 
    153 H153        3.2346  -19.7658  -44.9163 H         1 UNK         0.0600 
    154 H154        2.1746  -18.6012  -43.0635 H         1 UNK         0.3000 
    155 H155        0.2624  -18.3826  -40.0402 H         1 UNK         0.0600 
    156 H156        2.0923  -16.4272  -41.5272 H         1 UNK         0.0600 
    157 H157        2.1029  -16.7532  -39.8012 H         1 UNK         0.0600 
    158 H158        0.7091  -15.9715  -40.5332 H         1 UNK         0.0600 
    159 H159       -0.0980  -17.1784  -42.5958 H         1 UNK         0.3000 
    160 H160       -2.1955  -19.7446  -43.9772 H         1 UNK         0.0600 
    161 H161       -3.6999  -17.7919  -44.1904 H         1 UNK         0.0600 
    162 H162       -2.7534  -16.8914  -43.0090 H         1 UNK         0.0600 
    163 H163       -3.6435  -18.3283  -42.5175 H         1 UNK         0.0600 
    164 H164       -1.3015  -17.2093  -44.9755 H         1 UNK         0.3000 
    165 H165        1.6589  -18.3832  -46.5829 H         1 UNK         0.0600 
    166 H166        0.3905  -17.1046  -48.4353 H         1 UNK         0.0600 
    167 H167        0.0039  -18.8104  -48.2873 H         1 UNK         0.0600 
    168 H168       -1.1015  -17.6054  -47.6471 H         1 UNK         0.0600 
    169 H169        0.5402  -15.7953  -46.4560 H         1 UNK         0.3000 
    170 H170        1.8954  -14.8321  -43.2894 H         1 UNK         0.0600 
    171 H171        3.8491  -14.6234  -44.8393 H         1 UNK         0.0600 
    172 H172        2.7688  -14.0030  -46.0825 H         1 UNK         0.0600 
    173 H173        3.0209  -13.0884  -44.6016 H         1 UNK         0.0600 
    174 H174        0.4724  -13.5349  -45.4773 H         1 UNK         0.3000 
    175 H175       -2.7539  -13.9854  -43.9697 H         1 UNK         0.0600 
    176 H176       -2.7498  -11.5358  -44.3295 H         1 UNK         0.0600 
    177 H177       -1.7169  -11.9397  -42.9677 H         1 UNK         0.0600 
    178 H178       -0.9966  -11.5316  -44.5205 H         1 UNK         0.0600 
    179 H179       -1.9541  -12.7969  -46.4360 H         1 UNK         0.3000 
    180 H180       -2.0151  -15.6938  -48.4640 H         1 UNK         0.0600 
    181 H181       -4.2283  -13.6011  -48.1705 H         1 UNK         0.0600 
    182 H182       -4.4512  -15.3467  -48.1263 H         1 UNK         0.0600 
    183 H183       -3.9090  -14.5725  -49.6052 H         1 UNK         0.0600 
    184 H184       -2.0217  -13.0570  -49.3104 H         1 UNK         0.3000 
    185 H185        0.2054  -12.7805  -50.5265 H         1 UNK         0.0600 
    186 H186       -0.0925  -10.8157  -48.1935 H         1 UNK         0.0600 
    187 H187        0.3142  -10.3458  -49.8417 H         1 UNK         0.0600 
    188 H188       -1.2359  -11.0861  -49.4997 H         1 UNK         0.0600 
    189 H189        2.3787  -12.6743  -50.2983 H         1 UNK         0.3000 
    190 H190       -0.4396  -21.5103  -46.6122 H         1 UNK         0.3000 
    191 H191       -2.2214  -22.0061  -48.8129 H         1 UNK         0.0600 
    192 H192       -2.1146  -19.8007  -47.7560 H         1 UNK         0.0600 
    193 H193       -2.5813  -20.4647  -46.1900 H         1 UNK         0.0600 
    194 H194       -3.7274  -20.4258  -47.5136 H         1 UNK         0.0600 
    195 H195       -2.1510  -23.1011  -45.4270 H         1 UNK         0.3000 
    196 H196       -4.7113  -24.4277  -45.4669 H         1 UNK         0.0600 
    197 H197       -3.9702  -25.3548  -43.2928 H         1 UNK         0.0600 
    198 H198       -3.6673  -23.6259  -43.3543 H         1 UNK         0.0600 
    199 H199       -2.3372  -24.7648  -43.5554 H         1 UNK         0.0600 
    200 H200       -1.3095  -25.5135  -45.8918 H         1 UNK         0.3000 
    201 H201       -1.8252  -28.2558  -46.3303 H         1 UNK         0.0600 
    202 H202        0.4294  -27.2953  -45.8503 H         1 UNK         0.0600 
    203 H203        0.4441  -26.5152  -47.4316 H         1 UNK         0.0600 
    204 H204        0.4544  -28.2692  -47.3132 H         1 UNK         0.0600 
    205 H205       -1.8778  -25.5067  -48.5998 H         1 UNK         0.3000 
    206 H206       -2.3791  -27.0547  -50.9769 H         1 UNK         0.0600 
    207 H207       -1.3728  -24.7934  -51.0473 H         1 UNK         0.0600 
    208 H208       -2.8783  -24.8046  -51.9496 H         1 UNK         0.0600 
    209 H209       -2.8236  -24.0909  -50.3402 H         1 UNK         0.0600 
    210 H210       -4.3797  -26.3404  -48.3321 H         1 UNK         0.3000 
    211 H211       -6.4367  -26.6931  -47.7406 H         1 UNK         0.0600 
    212 H212       -6.8716  -28.1505  -50.3978 H         1 UNK         0.0600 
    213 H213       -7.8954  -28.2549  -48.9744 H         1 UNK         0.0600 
    214 H214       -6.2509  -28.8702  -48.9127 H         1 UNK         0.0600 
    215 H215       -6.4167  -25.5711  -51.1081 H         1 UNK         0.3000 
    216 H216       -8.9361  -24.0666  -50.8246 H         1 UNK         0.0600 
    217 H217       -8.6263  -23.6787  -53.2503 H         1 UNK         0.0600 
    218 H218       -8.4176  -25.3825  -52.8896 H         1 UNK         0.0600 
    219 H219       -7.0070  -24.3679  -53.1873 H         1 UNK         0.0600 
    220 H220       -6.5600  -23.2646  -49.2025 H         1 UNK         0.3000 
    221 H221       -5.4861  -21.4955  -48.4428 H         1 UNK         0.0600 
    222 H222       -7.4703  -19.7804  -50.0166 H         1 UNK         0.0600 
    223 H223       -7.7593  -20.4718  -48.4221 H         1 UNK         0.0600 
    224 H224       -6.5016  -19.2688  -48.6420 H         1 UNK         0.0600 
    225 H225       -4.6299  -22.6718  -51.0288 H         1 UNK         0.3000 
    226 H226       -3.2722  -22.4607  -52.7799 H         1 UNK         0.0600 
    227 H227       -1.5778  -21.7124  -51.1176 H         1 UNK         0.0600 
    228 H228       -1.3316  -20.9180  -52.6599 H         1 UNK         0.0600 
    229 H229       -2.0718  -20.0343  -51.3340 H         1 UNK         0.0600 
    230 H230       -5.8762  -21.3466  -52.9487 H         1 UNK         0.3000 
    231 H231       -7.2574  -20.2307  -54.2220 H         1 UNK         0.0600 
    232 H232       -5.8406  -20.9197  -56.1786 H         1 UNK         0.0600 
    233 H233       -4.9331  -19.4138  -56.0428 H         1 UNK         0.0600 
    234 H234       -6.6442  -19.3799  -56.4348 H         1 UNK         0.0600 
    235 H235       -6.1818  -19.1167  -51.9116 H         1 UNK         0.3000 
    236 H236       -6.0616  -17.3421  -50.6075 H         1 UNK         0.0600 
    237 H237       -7.3041  -15.2797  -51.1041 H         1 UNK         0.0600 
    238 H238       -7.4663  -15.7225  -52.7967 H         1 UNK         0.0600 
    239 H239       -8.2790  -16.6705  -51.5516 H         1 UNK         0.0600 
    240 H240       -3.8621  -18.0977  -51.8619 H         1 UNK         0.3000 
    241 H241       -1.8851  -17.7212  -52.6871 H         1 UNK         0.0600 
    242 H242       -2.9021  -16.9476  -56.0019 H         1 UNK         0.3800 
    243 H243       -2.9428  -18.1876  -54.7607 H         1 UNK         0.3800 
    244 H244       -2.1433  -14.9637  -51.4470 H         1 UNK         0.0800 
    245 H245       -1.3897  -16.3732  -50.7543 H         1 UNK         0.0800 
    246 H246        0.3626  -17.6354  -52.8842 H         1 UNK         0.0800 
    247 H247        1.7516  -16.6733  -53.2923 H         1 UNK         0.0800 
@<TRIPOS>BOND
     1    1    2 1    
     2    1  127 1    
     3    1  128 1    
     4    1  129 1    
     5    2    3 2    
     6    2    4 am   BACKBONE|DICT|INTERRES
     7    4    5 1    
     8    4  130 1    
     9    5    6 1    
    10    5   65 1    
    11    5  131 1    
    12    6    7 1    
    13    6  132 1    
    14    6  133 1    
    15    7    8 1    
    16    8    9 1    
    17    8  134 1    
    18    8  135 1    
    19    9   10 ar   
    20    9   14 ar   
    21   10   11 ar   
    22   10  136 1    
    23   11   12 ar   
    24   11  126 1    
    25   12   13 ar   
    26   12  137 1    
    27   13   14 ar   
    28   13   15 1    
    29   14  138 1    
    30   15   16 1    
    31   15  139 1    
    32   15  140 1    
    33   16   17 1    
    34   17   18 1    
    35   17  141 1    
    36   17  142 1    
    37   18   19 1    
    38   18   67 1    
    39   18  143 1    
    40   19   20 am   BACKBONE|DICT|INTERRES
    41   19  144 1    
    42   20   21 2    
    43   20   22 1    
    44   22   23 1    
    45   22   24 1    
    46   22  145 1    
    47   23  146 1    
    48   23  147 1    
    49   23  148 1    
    50   24   25 am   BACKBONE|DICT|INTERRES
    51   24  149 1    
    52   25   26 2    
    53   25   27 1    
    54   27   28 1    
    55   27   29 1    
    56   27  150 1    
    57   28  151 1    
    58   28  152 1    
    59   28  153 1    
    60   29   30 am   BACKBONE|DICT|INTERRES
    61   29  154 1    
    62   30   31 2    
    63   30   32 1    
    64   32   33 1    
    65   32   34 1    
    66   32  155 1    
    67   33  156 1    
    68   33  157 1    
    69   33  158 1    
    70   34   35 am   BACKBONE|DICT|INTERRES
    71   34  159 1    
    72   35   36 2    
    73   35   37 1    
    74   37   38 1    
    75   37   39 1    
    76   37  160 1    
    77   38  161 1    
    78   38  162 1    
    79   38  163 1    
    80   39   40 am   BACKBONE|DICT|INTERRES
    81   39  164 1    
    82   40   41 2    
    83   40   42 1    
    84   42   43 1    
    85   42   44 1    
    86   42  165 1    
    87   43  166 1    
    88   43  167 1    
    89   43  168 1    
    90   44   45 am   BACKBONE|DICT|INTERRES
    91   44  169 1    
    92   45   46 2    
    93   45   47 1    
    94   47   48 1    
    95   47   49 1    
    96   47  170 1    
    97   48  171 1    
    98   48  172 1    
    99   48  173 1    
   100   49   50 am   BACKBONE|DICT|INTERRES
   101   49  174 1    
   102   50   51 2    
   103   50   52 1    
   104   52   53 1    
   105   52   54 1    
   106   52  175 1    
   107   53  176 1    
   108   53  177 1    
   109   53  178 1    
   110   54   55 am   BACKBONE|DICT|INTERRES
   111   54  179 1    
   112   55   56 2    
   113   55   57 1    
   114   57   58 1    
   115   57   59 1    
   116   57  180 1    
   117   58  181 1    
   118   58  182 1    
   119   58  183 1    
   120   59   60 am   BACKBONE|DICT|INTERRES
   121   59  184 1    
   122   60   61 2    
   123   60   62 1    
   124   62   63 1    
   125   62   64 1    
   126   62  185 1    
   127   63  186 1    
   128   63  187 1    
   129   63  188 1    
   130   64   65 am   BACKBONE|DICT|INTERRES
   131   64  189 1    
   132   65   66 2    
   133   67   68 2    
   134   67   69 am   BACKBONE|DICT|INTERRES
   135   69   70 1    
   136   69  190 1    
   137   70   71 1    
   138   70   72 1    
   139   70  191 1    
   140   71  192 1    
   141   71  193 1    
   142   71  194 1    
   143   72   73 2    
   144   72   74 am   BACKBONE|DICT|INTERRES
   145   74   75 1    
   146   74  195 1    
   147   75   76 1    
   148   75   77 1    
   149   75  196 1    
   150   76  197 1    
   151   76  198 1    
   152   76  199 1    
   153   77   78 2    
   154   77   79 am   BACKBONE|DICT|INTERRES
   155   79   80 1    
   156   79  200 1    
   157   80   81 1    
   158   80   82 1    
   159   80  201 1    
   160   81  202 1    
   161   81  203 1    
   162   81  204 1    
   163   82   83 2    
   164   82   84 am   BACKBONE|DICT|INTERRES
   165   84   85 1    
   166   84  205 1    
   167   85   86 1    
   168   85   87 1    
   169   85  206 1    
   170   86  207 1    
   171   86  208 1    
   172   86  209 1    
   173   87   88 2    
   174   87   89 am   BACKBONE|DICT|INTERRES
   175   89   90 1    
   176   89  210 1    
   177   90   91 1    
   178   90   92 1    
   179   90  211 1    
   180   91  212 1    
   181   91  213 1    
   182   91  214 1    
   183   92   93 2    
   184   92   94 am   BACKBONE|DICT|INTERRES
   185   94   95 1    
   186   94  215 1    
   187   95   96 1    
   188   95   97 1    
   189   95  216 1    
   190   96  217 1    
   191   96  218 1    
   192   96  219 1    
   193   97   98 2    
   194   97   99 am   BACKBONE|DICT|INTERRES
   195   99  100 1    
   196   99  220 1    
   197  100  101 1    
   198  100  102 1    
   199  100  221 1    
   200  101  222 1    
   201  101  223 1    
   202  101  224 1    
   203  102  103 2    
   204  102  104 am   BACKBONE|DICT|INTERRES
   205  104  105 1    
   206  104  225 1    
   207  105  106 1    
   208  105  107 1    
   209  105  226 1    
   210  106  227 1    
   211  106  228 1    
   212  106  229 1    
   213  107  108 2    
   214  107  109 am   BACKBONE|DICT|INTERRES
   215  109  110 1    
   216  109  230 1    
   217  110  111 1    
   218  110  112 1    
   219  110  231 1    
   220  111  232 1    
   221  111  233 1    
   222  111  234 1    
   223  112  113 2    
   224  112  114 am   BACKBONE|DICT|INTERRES
   225  114  115 1    
   226  114  235 1    
   227  115  116 1    
   228  115  117 1    
   229  115  236 1    
   230  116  237 1    
   231  116  238 1    
   232  116  239 1    
   233  117  118 2    
   234  117  119 am   BACKBONE|DICT|INTERRES
   235  119  120 1    
   236  119  240 1    
   237  120  121 1    
   238  120  124 1    
   239  120  241 1    
   240  121  122 am   BACKBONE|DICT|INTERRES
   241  121  123 2    
   242  122  242 1    
   243  122  243 1    
   244  124  125 1    
   245  124  244 1    
   246  124  245 1    
   247  125  126 1    
   248  126  246 1    
   249  126  247 1    
@<TRIPOS>SUBSTRUCTURE
     1 UNK         1 GROUP             0       ****    0 ROOT    
