@<TRIPOS>MOLECULE
3R540
247   249    1
SMALL
USER_CHARGES


@<TRIPOS>ATOM
      1 CA          4.9890   -9.2487  -48.5437 C.3       0 UNK        -0.1800 
      2 C           4.3603  -10.4842  -47.9145 C.2       0 UNK         0.5000 
      3 O           3.6434  -10.3645  -46.9210 O.2       0 UNK        -0.5000 
      4 N           4.6267  -11.6653  -48.4921 N.am      1 UNK        -0.5000 
      5 CA          4.1412  -12.9768  -48.0399 C.3       1 UNK         0.1400 
      6 C6          2.5922  -13.1041  -48.1246 C.3       23 UNK        -0.0398 
      7 S7          2.0008  -14.8305  -48.2440 S.3       23 UNK        -0.2404 
      8 C8          1.2992  -14.8804  -49.9224 C.3       23 UNK        -0.0205 
      9 C9          0.3721  -16.0748  -50.0881 C.ar      23 UNK        -0.0193 
     10 C10        -1.0039  -15.9238  -49.8937 C.ar      23 UNK        -0.1150 
     11 C11        -1.8640  -17.0167  -50.0288 C.ar      23 UNK        -0.0193 
     12 C12        -1.3387  -18.2713  -50.3458 C.ar      23 UNK        -0.1150 
     13 C13         0.0335  -18.4350  -50.5550 C.ar      23 UNK        -0.0193 
     14 C14         0.8834  -17.3295  -50.4335 C.ar      23 UNK        -0.1150 
     15 C15         0.5854  -19.8125  -50.9028 C.3       23 UNK        -0.0205 
     16 S16         1.9093  -20.3697  -49.7767 S.3       23 UNK        -0.2404 
     17 C17         1.1567  -20.1371  -48.1296 C.3       23 UNK        -0.0398 
     18 CA          0.5899  -21.4329  -47.5098 C.3       11 UNK         0.1400 
     19 N           0.4146  -21.2899  -46.0660 N.am      11 UNK        -0.5000 
     20 C           0.0961  -22.2732  -45.2160 C.2       10 UNK         0.5000 
     21 O          -0.0449  -23.4496  -45.5497 O.2       10 UNK        -0.5000 
     22 CA         -0.1537  -21.8547  -43.7555 C.3       10 UNK         0.1400 
     23 CB          1.1699  -21.6759  -42.9971 C.3       10 UNK        -0.1800 
     24 N          -0.9425  -20.6243  -43.6625 N.am      10 UNK        -0.5000 
     25 C          -2.2241  -20.5246  -44.0430 C.2       9 UNK         0.5000 
     26 O          -2.8840  -21.4731  -44.4691 O.2       9 UNK        -0.5000 
     27 CA         -2.8648  -19.1261  -43.9677 C.3       9 UNK         0.1400 
     28 CB         -3.2939  -18.8039  -42.5287 C.3       9 UNK        -0.1800 
     29 N          -1.9850  -18.0671  -44.4658 N.am      9 UNK        -0.5000 
     30 C          -1.5553  -17.9713  -45.7331 C.2       8 UNK         0.5000 
     31 O          -1.8858  -18.7475  -46.6257 O.2       8 UNK        -0.5000 
     32 CA         -0.5426  -16.8583  -46.0494 C.3       8 UNK         0.1400 
     33 CB         -1.2623  -15.5183  -46.2571 C.3       8 UNK        -0.1800 
     34 N           0.4811  -16.7186  -45.0138 N.am      8 UNK        -0.5000 
     35 C           1.3313  -17.6844  -44.6394 C.2       7 UNK         0.5000 
     36 O           1.3581  -18.8049  -45.1442 O.2       7 UNK        -0.5000 
     37 CA          2.2766  -17.3728  -43.4708 C.3       7 UNK         0.1400 
     38 CB          3.5244  -16.6212  -43.9489 C.3       7 UNK        -0.1800 
     39 N           1.6072  -16.6058  -42.4232 N.am      7 UNK        -0.5000 
     40 C           0.7491  -17.1336  -41.5412 C.2       6 UNK         0.5000 
     41 O           0.4598  -18.3302  -41.4973 O.2       6 UNK        -0.5000 
     42 CA          0.0851  -16.1484  -40.5618 C.3       6 UNK         0.1400 
     43 CB          1.0329  -15.8216  -39.3975 C.3       6 UNK        -0.1800 
     44 N          -0.3343  -14.9021  -41.2053 N.am      6 UNK        -0.5000 
     45 C          -1.2976  -14.8168  -42.1332 C.2       5 UNK         0.5000 
     46 O          -1.9382  -15.7837  -42.5457 O.2       5 UNK        -0.5000 
     47 CA         -1.5681  -13.4215  -42.7298 C.3       5 UNK         0.1400 
     48 CB         -2.5575  -12.6450  -41.8480 C.3       5 UNK        -0.1800 
     49 N          -0.3721  -12.6003  -42.9494 N.am      5 UNK        -0.5000 
     50 C           0.7149  -12.9682  -43.6422 C.2       4 UNK         0.5000 
     51 O           0.8770  -14.0980  -44.1015 O.2       4 UNK        -0.5000 
     52 CA          1.8141  -11.9178  -43.8750 C.3       4 UNK         0.1400 
     53 CB          1.5045  -10.5090  -43.3183 C.3       4 UNK        -0.1800 
     54 N           3.1038  -12.4186  -43.4033 N.am      4 UNK        -0.5000 
     55 C           3.4836  -12.6505  -42.1392 C.2       3 UNK         0.5000 
     56 O           2.7626  -12.4359  -41.1632 O.2       3 UNK        -0.5000 
     57 CA          4.8950  -13.2392  -41.9129 C.3       3 UNK         0.1400 
     58 CB          4.8391  -14.4592  -40.9763 C.3       3 UNK        -0.1800 
     59 N           5.5823  -13.6241  -43.1499 N.am      3 UNK        -0.5000 
     60 C           6.2284  -12.7943  -43.9814 C.2       2 UNK         0.5000 
     61 O           6.3491  -11.5852  -43.7822 O.2       2 UNK        -0.5000 
     62 CA          6.8251  -13.4111  -45.2670 C.3       2 UNK         0.1400 
     63 CB          7.0665  -14.9348  -45.1691 C.3       2 UNK        -0.1800 
     64 N           6.0318  -13.1025  -46.4644 N.am      2 UNK        -0.5000 
     65 C           4.7256  -13.3508  -46.6560 C.2       1 UNK         0.5000 
     66 O           3.9999  -13.8346  -45.7909 O.2       1 UNK        -0.5000 
     67 C          -0.7134  -21.8879  -48.1974 C.2       11 UNK         0.5000 
     68 O          -0.6735  -22.8235  -48.9928 O.2       11 UNK        -0.5000 
     69 N          -1.8486  -21.2678  -47.8430 N.am      12 UNK        -0.5000 
     70 CA         -3.1882  -21.6345  -48.3055 C.3       12 UNK         0.1400 
     71 CB         -4.2201  -20.6486  -47.7409 C.3       12 UNK        -0.1800 
     72 C          -3.5798  -23.0748  -47.9375 C.2       12 UNK         0.5000 
     73 O          -4.1398  -23.7788  -48.7783 O.2       12 UNK        -0.5000 
     74 N          -3.2540  -23.4910  -46.7051 N.am      13 UNK        -0.5000 
     75 CA         -3.4567  -24.8523  -46.2116 C.3       13 UNK         0.1400 
     76 CB         -3.2031  -24.9017  -44.6975 C.3       13 UNK        -0.1800 
     77 C          -2.5874  -25.8813  -46.9563 C.2       13 UNK         0.5000 
     78 O          -3.1026  -26.9238  -47.3601 O.2       13 UNK        -0.5000 
     79 N          -1.3045  -25.5546  -47.1721 N.am      14 UNK        -0.5000 
     80 CA         -0.3580  -26.3611  -47.9504 C.3       14 UNK         0.1400 
     81 CB          1.0535  -25.7719  -47.8084 C.3       14 UNK        -0.1800 
     82 C          -0.7545  -26.4828  -49.4355 C.2       14 UNK         0.5000 
     83 O          -0.6100  -27.5548  -50.0235 O.2       14 UNK        -0.5000 
     84 N          -1.2896  -25.3916  -49.9963 N.am      15 UNK        -0.5000 
     85 CA         -1.8570  -25.3014  -51.3413 C.3       15 UNK         0.1400 
     86 CB         -1.9522  -23.8148  -51.7225 C.3       15 UNK        -0.1800 
     87 C          -3.2407  -25.9677  -51.4835 C.2       15 UNK         0.5000 
     88 O          -3.7641  -26.0154  -52.5998 O.2       15 UNK        -0.5000 
     89 N          -3.8332  -26.4081  -50.3612 N.am      16 UNK        -0.5000 
     90 CA         -5.1638  -27.0117  -50.2102 C.3       16 UNK         0.1400 
     91 CB         -5.1899  -28.4047  -50.8715 C.3       16 UNK        -0.1800 
     92 C          -6.3148  -26.1057  -50.7021 C.2       16 UNK         0.5000 
     93 O          -7.3694  -26.6103  -51.0907 O.2       16 UNK        -0.5000 
     94 N          -6.0666  -24.7865  -50.7224 N.am      17 UNK        -0.5000 
     95 CA         -6.8643  -23.7288  -51.3538 C.3       17 UNK         0.1400 
     96 CB         -8.1686  -23.4927  -50.5671 C.3       17 UNK        -0.1800 
     97 C          -7.1086  -23.9417  -52.8696 C.2       17 UNK         0.5000 
     98 O          -8.0600  -23.3822  -53.4181 O.2       17 UNK        -0.5000 
     99 N          -6.2588  -24.7523  -53.5167 N.am      18 UNK        -0.5000 
    100 CA        -6.3741  -25.1564  -54.9151 C.3       18 UNK         0.1400 
    101 CB        -6.3836  -26.6917  -54.9961 C.3       18 UNK        -0.1800 
    102 C         -5.2226  -24.5733  -55.7432 C.2       18 UNK         0.5000 
    103 O         -5.4741  -23.9843  -56.7950 O.2       18 UNK        -0.5000 
    104 N         -3.9827  -24.7189  -55.2508 N.am      19 UNK        -0.5000 
    105 CA        -2.7811  -24.1768  -55.8975 C.3       19 UNK         0.1400 
    106 CB        -1.5456  -24.9588  -55.4243 C.3       19 UNK        -0.1800 
    107 C         -2.6098  -22.6588  -55.6755 C.2       19 UNK         0.5000 
    108 O         -1.8593  -22.0181  -56.4122 O.2       19 UNK        -0.5000 
    109 N         -3.3238  -22.1124  -54.6860 N.am      20 UNK        -0.5000 
    110 CA        -3.4649  -20.6930  -54.4016 C.3       20 UNK         0.1400 
    111 CB        -2.5329  -20.2933  -53.2445 C.3       20 UNK        -0.1800 
    112 C         -4.9368  -20.4890  -54.0329 C.2       20 UNK         0.5000 
    113 O         -5.4039  -21.1156  -53.0797 O.2       20 UNK        -0.5000 
    114 N         -5.6489  -19.6491  -54.7950 N.am      21 UNK        -0.5000 
    115 CA        -7.0979  -19.4343  -54.6784 C.3       21 UNK         0.1400 
    116 CB        -7.5631  -18.5291  -55.8294 C.3       21 UNK        -0.1800 
    117 C         -7.5517  -18.8588  -53.3218 C.2       21 UNK         0.5000 
    118 O         -8.6897  -19.0904  -52.9121 O.2       21 UNK        -0.5000 
    119 N         -6.6482  -18.1398  -52.6472 N.am      22 UNK        -0.5000 
    120 CA        -6.7943  -17.6742  -51.2613 C.3       22 UNK         0.1400 
    121 C         -6.6054  -18.7808  -50.1806 C.2       22 UNK         0.5000 
    122 N         -6.2072  -20.0012  -50.5224 N.am      22 UNK        -0.7600 
    123 O         -6.8446  -18.5298  -49.0031 O.2       22 UNK        -0.5000 
    124 C124       -5.9159  -16.4253  -50.9840 C.3       23 UNK        -0.0398 
    125 S125       -4.1649  -16.6210  -51.4698 S.3       23 UNK        -0.2404 
    126 C126       -3.3623  -16.8414  -49.8542 C.3       23 UNK        -0.0205 
    127 H127        5.6247   -8.7412  -47.8180 H         1 UNK         0.0600 
    128 H128        5.5981   -9.5000  -49.4124 H         1 UNK         0.0600 
    129 H129        4.2120   -8.5538  -48.8624 H         1 UNK         0.0600 
    130 H130        5.2221  -11.6843  -49.3090 H         1 UNK         0.3000 
    131 H131        4.5663  -13.6946  -48.7433 H         1 UNK         0.0600 
    132 H132        2.1124  -12.6323  -47.2659 H         1 UNK         0.0800 
    133 H133        2.2302  -12.5546  -48.9939 H         1 UNK         0.0800 
    134 H134        0.7475  -13.9603  -50.1217 H         1 UNK         0.0800 
    135 H135        2.1073  -14.9235  -50.6542 H         1 UNK         0.0800 
    136 H136       -1.4065  -14.9534  -49.6395 H         1 UNK         0.1150 
    137 H137       -2.0053  -19.1172  -50.4397 H         1 UNK         0.1150 
    138 H138        1.9466  -17.4509  -50.5864 H         1 UNK         0.1150 
    139 H139       -0.2098  -20.5599  -50.9011 H         1 UNK         0.0800 
    140 H140        0.9764  -19.7873  -51.9206 H         1 UNK         0.0800 
    141 H141        0.4066  -19.3466  -48.1361 H         1 UNK         0.0800 
    142 H142        1.9618  -19.7598  -47.4985 H         1 UNK         0.0800 
    143 H143        1.3275  -22.2253  -47.6538 H         1 UNK         0.0600 
    144 H144        0.5614  -20.3554  -45.6896 H         1 UNK         0.3000 
    145 H145       -0.7170  -22.6553  -43.2714 H         1 UNK         0.0600 
    146 H146        0.9933  -21.4317  -41.9493 H         1 UNK         0.0600 
    147 H147        1.7606  -22.5924  -43.0236 H         1 UNK         0.0600 
    148 H148        1.7793  -20.8801  -43.4260 H         1 UNK         0.0600 
    149 H149       -0.4663  -19.7981  -43.3263 H         1 UNK         0.3000 
    150 H150       -3.7593  -19.1379  -44.5937 H         1 UNK         0.0600 
    151 H151       -3.9442  -19.5833  -42.1294 H         1 UNK         0.0600 
    152 H152       -3.8470  -17.8656  -42.4846 H         1 UNK         0.0600 
    153 H153       -2.4348  -18.7164  -41.8622 H         1 UNK         0.0600 
    154 H154       -1.7048  -17.3566  -43.7969 H         1 UNK         0.3000 
    155 H155       -0.0358  -17.1196  -46.9808 H         1 UNK         0.0600 
    156 H156       -0.5605  -14.7289  -46.5263 H         1 UNK         0.0600 
    157 H157       -1.7921  -15.2055  -45.3584 H         1 UNK         0.0600 
    158 H158       -1.9954  -15.5913  -47.0607 H         1 UNK         0.0600 
    159 H159        0.5683  -15.7993  -44.5835 H         1 UNK         0.3000 
    160 H160        2.6044  -18.3281  -43.0549 H         1 UNK         0.0600 
    161 H161        3.2954  -15.5768  -44.1505 H         1 UNK         0.0600 
    162 H162        3.9270  -17.0561  -44.8647 H         1 UNK         0.0600 
    163 H163        4.3149  -16.6578  -43.2009 H         1 UNK         0.0600 
    164 H164        1.7115  -15.6016  -42.4571 H         1 UNK         0.3000 
    165 H165       -0.8037  -16.6347  -40.1538 H         1 UNK         0.0600 
    166 H166        1.9241  -15.2928  -39.7384 H         1 UNK         0.0600 
    167 H167        0.5394  -15.1989  -38.6511 H         1 UNK         0.0600 
    168 H168        1.3623  -16.7315  -38.8942 H         1 UNK         0.0600 
    169 H169        0.1584  -14.0600  -40.9432 H         1 UNK         0.3000 
    170 H170       -2.0360  -13.5703  -43.7040 H         1 UNK         0.0600 
    171 H171       -3.4686  -13.2214  -41.6814 H         1 UNK         0.0600 
    172 H172       -2.1309  -12.4152  -40.8708 H         1 UNK         0.0600 
    173 H173       -2.8512  -11.7053  -42.3162 H         1 UNK         0.0600 
    174 H174       -0.4054  -11.6587  -42.5872 H         1 UNK         0.3000 
    175 H175        1.9114  -11.8224  -44.9570 H         1 UNK         0.0600 
    176 H176        2.3207   -9.8204  -43.5378 H         1 UNK         0.0600 
    177 H177        0.6076  -10.0946  -43.7802 H         1 UNK         0.0600 
    178 H178        1.3533  -10.5071  -42.2387 H         1 UNK         0.0600 
    179 H179        3.7139  -12.7520  -44.1432 H         1 UNK         0.3000 
    180 H180        5.4856  -12.4656  -41.4182 H         1 UNK         0.0600 
    181 H181        4.1742  -15.2333  -41.3581 H         1 UNK         0.0600 
    182 H182        4.4713  -14.1765  -39.9891 H         1 UNK         0.0600 
    183 H183        5.8267  -14.8992  -40.8364 H         1 UNK         0.0600 
    184 H184        5.4977  -14.5913  -43.4252 H         1 UNK         0.3000 
    185 H185        7.7971  -12.9358  -45.4073 H         1 UNK         0.0600 
    186 H186        7.6150  -15.2953  -46.0393 H         1 UNK         0.0600 
    187 H187        7.6630  -15.1841  -44.2904 H         1 UNK         0.0600 
    188 H188        6.1364  -15.5010  -45.1136 H         1 UNK         0.0600 
    189 H189        6.5356  -12.6469  -47.2120 H         1 UNK         0.3000 
    190 H190       -1.7982  -20.4603  -47.2244 H         1 UNK         0.3000 
    191 H191       -3.1988  -21.5526  -49.3940 H         1 UNK         0.0600 
    192 H192       -4.0538  -19.6430  -48.1232 H         1 UNK         0.0600 
    193 H193       -5.2352  -20.9379  -48.0122 H         1 UNK         0.0600 
    194 H194       -4.1798  -20.6004  -46.6533 H         1 UNK         0.0600 
    195 H195       -2.8398  -22.8273  -46.0594 H         1 UNK         0.3000 
    196 H196       -4.5023  -25.1154  -46.3854 H         1 UNK         0.0600 
    197 H197       -3.3793  -25.9040  -44.3053 H         1 UNK         0.0600 
    198 H198       -3.8686  -24.2219  -44.1652 H         1 UNK         0.0600 
    199 H199       -2.1784  -24.6272  -44.4478 H         1 UNK         0.0600 
    200 H200       -0.9459  -24.6918  -46.7724 H         1 UNK         0.3000 
    201 H201       -0.3506  -27.3671  -47.5262 H         1 UNK         0.0600 
    202 H202        1.3658  -25.7446  -46.7643 H         1 UNK         0.0600 
    203 H203        1.1073  -24.7555  -48.1991 H         1 UNK         0.0600 
    204 H204        1.7840  -26.3722  -48.3519 H         1 UNK         0.0600 
    205 H205       -1.2830  -24.5260  -49.4610 H         1 UNK         0.3000 
    206 H206       -1.1820  -25.7994  -52.0396 H         1 UNK         0.0600 
    207 H207       -0.9670  -23.3493  -51.7542 H         1 UNK         0.0600 
    208 H208       -2.4057  -23.6815  -52.7013 H         1 UNK         0.0600 
    209 H209       -2.5631  -23.2575  -51.0131 H         1 UNK         0.0600 
    210 H210       -3.3285  -26.2818  -49.4929 H         1 UNK         0.3000 
    211 H211       -5.3191  -27.1457  -49.1390 H         1 UNK         0.0600 
    212 H212       -5.1065  -28.3377  -51.9568 H         1 UNK         0.0600 
    213 H213       -6.1186  -28.9300  -50.6462 H         1 UNK         0.0600 
    214 H214       -4.3714  -29.0271  -50.5098 H         1 UNK         0.0600 
    215 H215       -5.2022  -24.4765  -50.2865 H         1 UNK         0.3000 
    216 H216       -6.2644  -22.8232  -51.2708 H         1 UNK         0.0600 
    217 H217       -7.9657  -23.3314  -49.5084 H         1 UNK         0.0600 
    218 H218       -8.8513  -24.3382  -50.6544 H         1 UNK         0.0600 
    219 H219       -8.6915  -22.6083  -50.9333 H         1 UNK         0.0600 
    220 H220       -5.4952  -25.1702  -52.9950 H         1 UNK         0.3000 
    221 H221       -7.3095  -24.7929  -55.3455 H         1 UNK         0.0600 
    222 H222       -5.4764  -27.1278  -54.5760 H         1 UNK         0.0600 
    223 H223       -7.2324  -27.1059  -54.4514 H         1 UNK         0.0600 
    224 H224       -6.4637  -27.0286  -56.0303 H         1 UNK         0.0600 
    225 H225       -3.8497  -25.2297  -54.3826 H         1 UNK         0.3000 
    226 H226       -2.8708  -24.3315  -56.9749 H         1 UNK         0.0600 
    227 H227       -1.6449  -26.0213  -55.6470 H         1 UNK         0.0600 
    228 H228       -0.6452  -24.6056  -55.9284 H         1 UNK         0.0600 
    229 H229       -1.3789  -24.8580  -54.3541 H         1 UNK         0.0600 
    230 H230       -3.9501  -22.7080  -54.1620 H         1 UNK         0.3000 
    231 H231       -3.2232  -20.0986  -55.2852 H         1 UNK         0.0600 
    232 H232       -2.6362  -19.2329  -53.0107 H         1 UNK         0.0600 
    233 H233       -1.4885  -20.4708  -53.5011 H         1 UNK         0.0600 
    234 H234       -2.7514  -20.8534  -52.3342 H         1 UNK         0.0600 
    235 H235       -5.1895  -19.1719  -55.5573 H         1 UNK         0.3000 
    236 H236       -7.5827  -20.4066  -54.7913 H         1 UNK         0.0600 
    237 H237       -8.6415  -18.3697  -55.7905 H         1 UNK         0.0600 
    238 H238       -7.0848  -17.5497  -55.7885 H         1 UNK         0.0600 
    239 H239       -7.3375  -18.9745  -56.7985 H         1 UNK         0.0600 
    240 H240       -5.7364  -18.0023  -53.0577 H         1 UNK         0.3000 
    241 H241       -7.8301  -17.3508  -51.1428 H         1 UNK         0.0600 
    242 H242       -6.0007  -20.2461  -51.4861 H         1 UNK         0.3800 
    243 H243       -6.1200  -20.6959  -49.8024 H         1 UNK         0.3800 
    244 H244       -6.3118  -15.5847  -51.5551 H         1 UNK         0.0800 
    245 H245       -5.9848  -16.1174  -49.9391 H         1 UNK         0.0800 
    246 H246       -3.5727  -15.9803  -49.2181 H         1 UNK         0.0800 
    247 H247       -3.7831  -17.7115  -49.3508 H         1 UNK         0.0800 
@<TRIPOS>BOND
     1    1    2 1    
     2    1  127 1    
     3    1  128 1    
     4    1  129 1    
     5    2    3 2    
     6    2    4 am   BACKBONE|DICT|INTERRES
     7    4    5 1    
     8    4  130 1    
     9    5    6 1    
    10    5   65 1    
    11    5  131 1    
    12    6    7 1    
    13    6  132 1    
    14    6  133 1    
    15    7    8 1    
    16    8    9 1    
    17    8  134 1    
    18    8  135 1    
    19    9   10 ar   
    20    9   14 ar   
    21   10   11 ar   
    22   10  136 1    
    23   11   12 ar   
    24   11  126 1    
    25   12   13 ar   
    26   12  137 1    
    27   13   14 ar   
    28   13   15 1    
    29   14  138 1    
    30   15   16 1    
    31   15  139 1    
    32   15  140 1    
    33   16   17 1    
    34   17   18 1    
    35   17  141 1    
    36   17  142 1    
    37   18   19 1    
    38   18   67 1    
    39   18  143 1    
    40   19   20 am   BACKBONE|DICT|INTERRES
    41   19  144 1    
    42   20   21 2    
    43   20   22 1    
    44   22   23 1    
    45   22   24 1    
    46   22  145 1    
    47   23  146 1    
    48   23  147 1    
    49   23  148 1    
    50   24   25 am   BACKBONE|DICT|INTERRES
    51   24  149 1    
    52   25   26 2    
    53   25   27 1    
    54   27   28 1    
    55   27   29 1    
    56   27  150 1    
    57   28  151 1    
    58   28  152 1    
    59   28  153 1    
    60   29   30 am   BACKBONE|DICT|INTERRES
    61   29  154 1    
    62   30   31 2    
    63   30   32 1    
    64   32   33 1    
    65   32   34 1    
    66   32  155 1    
    67   33  156 1    
    68   33  157 1    
    69   33  158 1    
    70   34   35 am   BACKBONE|DICT|INTERRES
    71   34  159 1    
    72   35   36 2    
    73   35   37 1    
    74   37   38 1    
    75   37   39 1    
    76   37  160 1    
    77   38  161 1    
    78   38  162 1    
    79   38  163 1    
    80   39   40 am   BACKBONE|DICT|INTERRES
    81   39  164 1    
    82   40   41 2    
    83   40   42 1    
    84   42   43 1    
    85   42   44 1    
    86   42  165 1    
    87   43  166 1    
    88   43  167 1    
    89   43  168 1    
    90   44   45 am   BACKBONE|DICT|INTERRES
    91   44  169 1    
    92   45   46 2    
    93   45   47 1    
    94   47   48 1    
    95   47   49 1    
    96   47  170 1    
    97   48  171 1    
    98   48  172 1    
    99   48  173 1    
   100   49   50 am   BACKBONE|DICT|INTERRES
   101   49  174 1    
   102   50   51 2    
   103   50   52 1    
   104   52   53 1    
   105   52   54 1    
   106   52  175 1    
   107   53  176 1    
   108   53  177 1    
   109   53  178 1    
   110   54   55 am   BACKBONE|DICT|INTERRES
   111   54  179 1    
   112   55   56 2    
   113   55   57 1    
   114   57   58 1    
   115   57   59 1    
   116   57  180 1    
   117   58  181 1    
   118   58  182 1    
   119   58  183 1    
   120   59   60 am   BACKBONE|DICT|INTERRES
   121   59  184 1    
   122   60   61 2    
   123   60   62 1    
   124   62   63 1    
   125   62   64 1    
   126   62  185 1    
   127   63  186 1    
   128   63  187 1    
   129   63  188 1    
   130   64   65 am   BACKBONE|DICT|INTERRES
   131   64  189 1    
   132   65   66 2    
   133   67   68 2    
   134   67   69 am   BACKBONE|DICT|INTERRES
   135   69   70 1    
   136   69  190 1    
   137   70   71 1    
   138   70   72 1    
   139   70  191 1    
   140   71  192 1    
   141   71  193 1    
   142   71  194 1    
   143   72   73 2    
   144   72   74 am   BACKBONE|DICT|INTERRES
   145   74   75 1    
   146   74  195 1    
   147   75   76 1    
   148   75   77 1    
   149   75  196 1    
   150   76  197 1    
   151   76  198 1    
   152   76  199 1    
   153   77   78 2    
   154   77   79 am   BACKBONE|DICT|INTERRES
   155   79   80 1    
   156   79  200 1    
   157   80   81 1    
   158   80   82 1    
   159   80  201 1    
   160   81  202 1    
   161   81  203 1    
   162   81  204 1    
   163   82   83 2    
   164   82   84 am   BACKBONE|DICT|INTERRES
   165   84   85 1    
   166   84  205 1    
   167   85   86 1    
   168   85   87 1    
   169   85  206 1    
   170   86  207 1    
   171   86  208 1    
   172   86  209 1    
   173   87   88 2    
   174   87   89 am   BACKBONE|DICT|INTERRES
   175   89   90 1    
   176   89  210 1    
   177   90   91 1    
   178   90   92 1    
   179   90  211 1    
   180   91  212 1    
   181   91  213 1    
   182   91  214 1    
   183   92   93 2    
   184   92   94 am   BACKBONE|DICT|INTERRES
   185   94   95 1    
   186   94  215 1    
   187   95   96 1    
   188   95   97 1    
   189   95  216 1    
   190   96  217 1    
   191   96  218 1    
   192   96  219 1    
   193   97   98 2    
   194   97   99 am   BACKBONE|DICT|INTERRES
   195   99  100 1    
   196   99  220 1    
   197  100  101 1    
   198  100  102 1    
   199  100  221 1    
   200  101  222 1    
   201  101  223 1    
   202  101  224 1    
   203  102  103 2    
   204  102  104 am   BACKBONE|DICT|INTERRES
   205  104  105 1    
   206  104  225 1    
   207  105  106 1    
   208  105  107 1    
   209  105  226 1    
   210  106  227 1    
   211  106  228 1    
   212  106  229 1    
   213  107  108 2    
   214  107  109 am   BACKBONE|DICT|INTERRES
   215  109  110 1    
   216  109  230 1    
   217  110  111 1    
   218  110  112 1    
   219  110  231 1    
   220  111  232 1    
   221  111  233 1    
   222  111  234 1    
   223  112  113 2    
   224  112  114 am   BACKBONE|DICT|INTERRES
   225  114  115 1    
   226  114  235 1    
   227  115  116 1    
   228  115  117 1    
   229  115  236 1    
   230  116  237 1    
   231  116  238 1    
   232  116  239 1    
   233  117  118 2    
   234  117  119 am   BACKBONE|DICT|INTERRES
   235  119  120 1    
   236  119  240 1    
   237  120  121 1    
   238  120  124 1    
   239  120  241 1    
   240  121  122 am   BACKBONE|DICT|INTERRES
   241  121  123 2    
   242  122  242 1    
   243  122  243 1    
   244  124  125 1    
   245  124  244 1    
   246  124  245 1    
   247  125  126 1    
   248  126  246 1    
   249  126  247 1    
@<TRIPOS>SUBSTRUCTURE
     1 UNK         1 GROUP             0       ****    0 ROOT    
