@<TRIPOS>MOLECULE
3R540
247   249    1
SMALL
USER_CHARGES


@<TRIPOS>ATOM
      1 CA         -6.5278  -13.9674  -48.3732 C.3       0 UNK        -0.1800 
      2 C          -5.2811  -13.4311  -47.6845 C.2       0 UNK         0.5000 
      3 O          -5.3848  -12.6258  -46.7599 O.2       0 UNK        -0.5000 
      4 N          -4.1015  -13.8881  -48.1205 N.am      1 UNK        -0.5000 
      5 CA         -2.7858  -13.5105  -47.5857 C.3       1 UNK         0.1400 
      6 C6         -1.6633  -13.7458  -48.6282 C.3       23 UNK        -0.0398 
      7 S7         -1.5236  -15.4865  -49.1571 S.3       23 UNK        -0.2404 
      8 C8          0.1157  -15.4848  -49.9400 C.3       23 UNK        -0.0205 
      9 C9          0.4367  -16.8648  -50.4867 C.ar      23 UNK        -0.0193 
     10 C10        -0.2807  -17.3565  -51.5785 C.ar      23 UNK        -0.1150 
     11 C11        -0.0472  -18.6448  -52.0613 C.ar      23 UNK        -0.0193 
     12 C12         0.9459  -19.4305  -51.4729 C.ar      23 UNK        -0.1150 
     13 C13         1.6681  -18.9529  -50.3727 C.ar      23 UNK        -0.0193 
     14 C14         1.4108  -17.6668  -49.8857 C.ar      23 UNK        -0.1150 
     15 C15         2.6857  -19.8440  -49.6694 C.3       23 UNK        -0.0205 
     16 S16         1.9791  -21.4418  -49.1379 S.3       23 UNK        -0.2404 
     17 C17         0.4050  -20.9066  -48.3873 C.3       23 UNK        -0.0398 
     18 CA         -0.2316  -21.9898  -47.4964 C.3       11 UNK         0.1400 
     19 N           0.6457  -22.3806  -46.3837 N.am      11 UNK        -0.5000 
     20 C           0.3843  -23.3053  -45.4500 C.2       10 UNK         0.5000 
     21 O          -0.7087  -23.8558  -45.3121 O.2       10 UNK        -0.5000 
     22 CA          1.5475  -23.6966  -44.5342 C.3       10 UNK         0.1400 
     23 CB          2.6032  -24.4901  -45.3324 C.3       10 UNK        -0.1800 
     24 N           2.1374  -22.5262  -43.8804 N.am      10 UNK        -0.5000 
     25 C           2.9833  -22.6009  -42.8408 C.2       9 UNK         0.5000 
     26 O           3.3584  -23.6641  -42.3440 O.2       9 UNK        -0.5000 
     27 CA          3.5076  -21.2830  -42.2349 C.3       9 UNK         0.1400 
     28 CB          4.8366  -20.8873  -42.8968 C.3       9 UNK        -0.1800 
     29 N           2.5790  -20.1591  -42.3306 N.am      9 UNK        -0.5000 
     30 C           1.3554  -20.1009  -41.7875 C.2       8 UNK         0.5000 
     31 O           0.8715  -20.9917  -41.0885 O.2       8 UNK        -0.5000 
     32 CA          0.5221  -18.8391  -42.0888 C.3       8 UNK         0.1400 
     33 CB          0.6138  -17.8518  -40.9165 C.3       8 UNK        -0.1800 
     34 N           0.9004  -18.1486  -43.3260 N.am      8 UNK        -0.5000 
     35 C           0.8818  -18.6823  -44.5556 C.2       7 UNK         0.5000 
     36 O           0.5625  -19.8477  -44.7885 O.2       7 UNK        -0.5000 
     37 CA          1.3405  -17.7785  -45.7084 C.3       7 UNK         0.1400 
     38 CB          0.2385  -16.7879  -46.1011 C.3       7 UNK        -0.1800 
     39 N           2.5527  -17.0514  -45.3453 N.am      7 UNK        -0.5000 
     40 C           3.7895  -17.5524  -45.4682 C.2       6 UNK         0.5000 
     41 O           4.0356  -18.6503  -45.9677 O.2       6 UNK        -0.5000 
     42 CA          4.9491  -16.6894  -44.9355 C.3       6 UNK         0.1400 
     43 CB          5.5161  -15.8052  -46.0564 C.3       6 UNK        -0.1800 
     44 N           4.5668  -15.8413  -43.8051 N.am      6 UNK        -0.5000 
     45 C           4.2350  -16.2955  -42.5885 C.2       5 UNK         0.5000 
     46 O           4.2360  -17.4861  -42.2773 O.2       5 UNK        -0.5000 
     47 CA          3.7839  -15.2399  -41.5606 C.3       5 UNK         0.1400 
     48 CB          4.9952  -14.6758  -40.8032 C.3       5 UNK        -0.1800 
     49 N           3.0172  -14.1322  -42.1422 N.am      5 UNK        -0.5000 
     50 C           1.8628  -14.2657  -42.8084 C.2       4 UNK         0.5000 
     51 O           1.3503  -15.3541  -43.0772 O.2       4 UNK        -0.5000 
     52 CA          1.2027  -12.9727  -43.3108 C.3       4 UNK         0.1400 
     53 CB          1.5628  -12.7366  -44.7860 C.3       4 UNK        -0.1800 
     54 N          -0.2507  -13.0458  -43.1731 N.am      4 UNK        -0.5000 
     55 C          -0.9091  -12.9099  -42.0125 C.2       3 UNK         0.5000 
     56 O          -0.3531  -12.6361  -40.9476 O.2       3 UNK        -0.5000 
     57 CA         -2.4426  -13.0905  -42.0290 C.3       3 UNK         0.1400 
     58 CB         -3.1423  -11.7242  -42.0946 C.3       3 UNK        -0.1800 
     59 N          -2.9239  -13.9181  -43.1345 N.am      3 UNK        -0.5000 
     60 C          -2.7317  -15.2390  -43.2411 C.2       2 UNK         0.5000 
     61 O          -2.2229  -15.9244  -42.3548 O.2       2 UNK        -0.5000 
     62 CA         -3.1807  -15.9211  -44.5511 C.3       2 UNK         0.1400 
     63 CB         -4.5052  -16.6684  -44.3266 C.3       2 UNK        -0.1800 
     64 N          -3.3329  -15.0559  -45.7289 N.am      2 UNK        -0.5000 
     65 C          -2.4474  -14.1817  -46.2334 C.2       1 UNK         0.5000 
     66 O          -1.3877  -13.8932  -45.6807 O.2       1 UNK        -0.5000 
     67 C          -1.6487  -21.5477  -47.0837 C.2       11 UNK         0.5000 
     68 O          -2.5902  -21.7895  -47.8387 O.2       11 UNK        -0.5000 
     69 N          -1.7897  -20.9582  -45.8906 N.am      12 UNK        -0.5000 
     70 CA         -3.0646  -20.5848  -45.2747 C.3       12 UNK         0.1400 
     71 CB         -2.7837  -19.9011  -43.9295 C.3       12 UNK        -0.1800 
     72 C          -4.0381  -21.7655  -45.0801 C.2       12 UNK         0.5000 
     73 O          -5.2495  -21.5477  -45.0862 O.2       12 UNK        -0.5000 
     74 N          -3.4975  -22.9824  -44.9339 N.am      13 UNK        -0.5000 
     75 CA         -4.2521  -24.2299  -44.8549 C.3       13 UNK         0.1400 
     76 CB         -3.7920  -25.0191  -43.6190 C.3       13 UNK        -0.1800 
     77 C          -4.0631  -25.0670  -46.1304 C.2       13 UNK         0.5000 
     78 O          -5.0462  -25.5715  -46.6718 O.2       13 UNK        -0.5000 
     79 N          -2.8103  -25.2025  -46.5896 N.am      14 UNK        -0.5000 
     80 CA         -2.4126  -26.0900  -47.6857 C.3       14 UNK         0.1400 
     81 CB         -0.8827  -26.2363  -47.6875 C.3       14 UNK        -0.1800 
     82 C          -2.9133  -25.6417  -49.0703 C.2       14 UNK         0.5000 
     83 O          -3.2694  -26.4922  -49.8864 O.2       14 UNK        -0.5000 
     84 N          -2.9376  -24.3244  -49.3036 N.am      15 UNK        -0.5000 
     85 CA         -3.4260  -23.6974  -50.5341 C.3       15 UNK         0.1400 
     86 CB         -2.3199  -22.7792  -51.0888 C.3       15 UNK        -0.1800 
     87 C          -4.7155  -22.8946  -50.2822 C.2       15 UNK         0.5000 
     88 O          -5.2336  -22.2836  -51.2150 O.2       15 UNK        -0.5000 
     89 N          -5.1768  -22.8450  -49.0213 N.am      16 UNK        -0.5000 
     90 CA         -6.2671  -22.0074  -48.5018 C.3       16 UNK         0.1400 
     91 CB         -7.6234  -22.4930  -49.0529 C.3       16 UNK        -0.1800 
     92 C          -6.0425  -20.4935  -48.7361 C.2       16 UNK         0.5000 
     93 O          -7.0102  -19.7331  -48.7899 O.2       16 UNK        -0.5000 
     94 N          -4.7710  -20.0977  -48.9180 N.am      17 UNK        -0.5000 
     95 CA         -4.2919  -18.7897  -49.3793 C.3       17 UNK         0.1400 
     96 CB         -4.5228  -17.7187  -48.2927 C.3       17 UNK        -0.1800 
     97 C          -4.8315  -18.3624  -50.7691 C.2       17 UNK         0.5000 
     98 O          -4.8128  -17.1706  -51.0824 O.2       17 UNK        -0.5000 
     99 N          -5.3041  -19.3193  -51.5836 N.am      18 UNK        -0.5000 
    100 CA        -5.8616  -19.0732  -52.9121 C.3       18 UNK         0.1400 
    101 CB        -6.8585  -20.1882  -53.2646 C.3       18 UNK        -0.1800 
    102 C         -4.7393  -19.0018  -53.9572 C.2       18 UNK         0.5000 
    103 O         -3.9295  -19.9267  -54.0443 O.2       18 UNK        -0.5000 
    104 N         -4.7316  -17.9249  -54.7540 N.am      19 UNK        -0.5000 
    105 CA        -3.6977  -17.5938  -55.7434 C.3       19 UNK         0.1400 
    106 CB        -4.0190  -16.2200  -56.3512 C.3       19 UNK        -0.1800 
    107 C         -3.4938  -18.6382  -56.8613 C.2       19 UNK         0.5000 
    108 O         -2.4221  -18.6805  -57.4654 O.2       19 UNK        -0.5000 
    109 N         -4.5158  -19.4621  -57.1191 N.am      20 UNK        -0.5000 
    110 CA        -4.4721  -20.5587  -58.0856 C.3       20 UNK         0.1400 
    111 CB        -5.9104  -20.8701  -58.5297 C.3       20 UNK        -0.1800 
    112 C         -3.7947  -21.8324  -57.5377 C.2       20 UNK         0.5000 
    113 O         -3.4788  -22.7221  -58.3289 O.2       20 UNK        -0.5000 
    114 N         -3.6147  -21.9244  -56.2126 N.am      21 UNK        -0.5000 
    115 CA        -3.2020  -23.1409  -55.5098 C.3       21 UNK         0.1400 
    116 CB        -4.2469  -23.4370  -54.4201 C.3       21 UNK        -0.1800 
    117 C         -1.7825  -23.0577  -54.9156 C.2       21 UNK         0.5000 
    118 O         -1.3915  -23.9744  -54.1913 O.2       21 UNK        -0.5000 
    119 N         -1.0363  -21.9821  -55.2049 N.am      22 UNK        -0.5000 
    120 CA         0.3376  -21.7620  -54.7165 C.3       22 UNK         0.1400 
    121 C          1.3424  -22.8545  -55.1843 C.2       22 UNK         0.5000 
    122 N          2.2777  -23.2559  -54.3337 N.am      22 UNK        -0.7600 
    123 O          1.3115  -23.3044  -56.3279 O.2       22 UNK        -0.5000 
    124 C124        0.8891  -20.3584  -55.0910 C.3       23 UNK        -0.0398 
    125 S125       -0.2198  -18.9318  -54.8197 S.3       23 UNK        -0.2404 
    126 C126       -0.9275  -19.1974  -53.1663 C.3       23 UNK        -0.0205 
    127 H127       -7.1807  -14.4493  -47.6456 H         1 UNK         0.0600 
    128 H128       -6.2819  -14.6984  -49.1444 H         1 UNK         0.0600 
    129 H129       -7.0789  -13.1514  -48.8405 H         1 UNK         0.0600 
    130 H130       -4.0755  -14.5496  -48.8846 H         1 UNK         0.3000 
    131 H131       -2.8098  -12.4376  -47.3841 H         1 UNK         0.0600 
    132 H132       -0.7009  -13.4098  -48.2372 H         1 UNK         0.0800 
    133 H133       -1.8514  -13.1362  -49.5129 H         1 UNK         0.0800 
    134 H134        0.1332  -14.7570  -50.7526 H         1 UNK         0.0800 
    135 H135        0.8682  -15.1687  -49.2161 H         1 UNK         0.0800 
    136 H136       -1.0532  -16.7460  -52.0256 H         1 UNK         0.1150 
    137 H137        1.1244  -20.4321  -51.8356 H         1 UNK         0.1150 
    138 H138        1.9532  -17.2969  -49.0268 H         1 UNK         0.1150 
    139 H139        3.5236  -20.0304  -50.3421 H         1 UNK         0.0800 
    140 H140        3.0986  -19.3414  -48.7929 H         1 UNK         0.0800 
    141 H141       -0.2732  -20.6396  -49.2001 H         1 UNK         0.0800 
    142 H142        0.5708  -19.9945  -47.8154 H         1 UNK         0.0800 
    143 H143       -0.3619  -22.8827  -48.1102 H         1 UNK         0.0600 
    144 H144        1.5727  -21.9820  -46.4128 H         1 UNK         0.3000 
    145 H145        1.1365  -24.3490  -43.7607 H         1 UNK         0.0600 
    146 H146        3.3487  -24.9413  -44.6782 H         1 UNK         0.0600 
    147 H147        2.1402  -25.3038  -45.8928 H         1 UNK         0.0600 
    148 H148        3.1287  -23.8565  -46.0478 H         1 UNK         0.0600 
    149 H149        1.8098  -21.6174  -44.1885 H         1 UNK         0.3000 
    150 H150        3.6946  -21.4631  -41.1745 H         1 UNK         0.0600 
    151 H151        5.5601  -21.7019  -42.8432 H         1 UNK         0.0600 
    152 H152        5.2839  -20.0258  -42.4009 H         1 UNK         0.0600 
    153 H153        4.7013  -20.6357  -43.9496 H         1 UNK         0.0600 
    154 H154        2.9106  -19.3440  -42.8291 H         1 UNK         0.3000 
    155 H155       -0.5184  -19.1490  -42.1908 H         1 UNK         0.0600 
    156 H156        0.0089  -16.9630  -41.0970 H         1 UNK         0.0600 
    157 H157        0.2557  -18.3073  -39.9926 H         1 UNK         0.0600 
    158 H158        1.6411  -17.5307  -40.7475 H         1 UNK         0.0600 
    159 H159        1.1418  -17.1642  -43.2289 H         1 UNK         0.3000 
    160 H160        1.5505  -18.4058  -46.5751 H         1 UNK         0.0600 
    161 H161       -0.0497  -16.1558  -45.2614 H         1 UNK         0.0600 
    162 H162       -0.6542  -17.3112  -46.4460 H         1 UNK         0.0600 
    163 H163        0.5648  -16.1345  -46.9093 H         1 UNK         0.0600 
    164 H164        2.4255  -16.1722  -44.8623 H         1 UNK         0.3000 
    165 H165        5.7373  -17.3669  -44.6001 H         1 UNK         0.0600 
    166 H166        6.3870  -15.2453  -45.7152 H         1 UNK         0.0600 
    167 H167        5.8330  -16.4094  -46.9077 H         1 UNK         0.0600 
    168 H168        4.7764  -15.0901  -46.4188 H         1 UNK         0.0600 
    169 H169        4.5359  -14.8462  -43.9705 H         1 UNK         0.3000 
    170 H170        3.1383  -15.7401  -40.8372 H         1 UNK         0.0600 
    171 H171        5.5742  -15.4766  -40.3409 H         1 UNK         0.0600 
    172 H172        5.6653  -14.1265  -41.4657 H         1 UNK         0.0600 
    173 H173        4.6831  -14.0013  -40.0056 H         1 UNK         0.0600 
    174 H174        3.3811  -13.2044  -41.9787 H         1 UNK         0.3000 
    175 H175        1.5685  -12.1273  -42.7243 H         1 UNK         0.0600 
    176 H176        2.6378  -12.5998  -44.9090 H         1 UNK         0.0600 
    177 H177        1.2667  -13.5781  -45.4139 H         1 UNK         0.0600 
    178 H178        1.0740  -11.8428  -45.1739 H         1 UNK         0.0600 
    179 H179       -0.7620  -13.3329  -44.0043 H         1 UNK         0.3000 
    180 H180       -2.7259  -13.5744  -41.0919 H         1 UNK         0.0600 
    181 H181       -2.9097  -11.1978  -43.0212 H         1 UNK         0.0600 
    182 H182       -2.8312  -11.0853  -41.2669 H         1 UNK         0.0600 
    183 H183       -4.2253  -11.8315  -42.0312 H         1 UNK         0.0600 
    184 H184       -3.3446  -13.4359  -43.9150 H         1 UNK         0.3000 
    185 H185       -2.4149  -16.6578  -44.7952 H         1 UNK         0.0600 
    186 H186       -4.4541  -17.3073  -43.4443 H         1 UNK         0.0600 
    187 H187       -5.3340  -15.9753  -44.1774 H         1 UNK         0.0600 
    188 H188       -4.7510  -17.3090  -45.1728 H         1 UNK         0.0600 
    189 H189       -4.1803  -15.1891  -46.2596 H         1 UNK         0.3000 
    190 H190       -0.9465  -20.7525  -45.3591 H         1 UNK         0.3000 
    191 H191       -3.5539  -19.8657  -45.9336 H         1 UNK         0.0600 
    192 H192       -2.2314  -20.5587  -43.2571 H         1 UNK         0.0600 
    193 H193       -3.7112  -19.6242  -43.4275 H         1 UNK         0.0600 
    194 H194       -2.2012  -18.9902  -44.0635 H         1 UNK         0.0600 
    195 H195       -2.4868  -23.0704  -44.9624 H         1 UNK         0.3000 
    196 H196       -5.3200  -24.0291  -44.7460 H         1 UNK         0.0600 
    197 H197       -4.3276  -25.9658  -43.5374 H         1 UNK         0.0600 
    198 H198       -3.9819  -24.4582  -42.7038 H         1 UNK         0.0600 
    199 H199       -2.7255  -25.2454  -43.6556 H         1 UNK         0.0600 
    200 H200       -2.0512  -24.7527  -46.0820 H         1 UNK         0.3000 
    201 H201       -2.8423  -27.0741  -47.4863 H         1 UNK         0.0600 
    202 H202       -0.5213  -26.6164  -46.7317 H         1 UNK         0.0600 
    203 H203       -0.3851  -25.2856  -47.8782 H         1 UNK         0.0600 
    204 H204       -0.5583  -26.9359  -48.4588 H         1 UNK         0.0600 
    205 H205       -2.6500  -23.6848  -48.5725 H         1 UNK         0.3000 
    206 H206       -3.6585  -24.4484  -51.2913 H         1 UNK         0.0600 
    207 H207       -1.4108  -23.3421  -51.3008 H         1 UNK         0.0600 
    208 H208       -2.6292  -22.3060  -52.0208 H         1 UNK         0.0600 
    209 H209       -2.0642  -21.9794  -50.3951 H         1 UNK         0.0600 
    210 H210       -4.6749  -23.3803  -48.3286 H         1 UNK         0.3000 
    211 H211       -6.2797  -22.1543  -47.4224 H         1 UNK         0.0600 
    212 H212       -7.7579  -23.5611  -48.8827 H         1 UNK         0.0600 
    213 H213       -8.4520  -21.9811  -48.5623 H         1 UNK         0.0600 
    214 H214       -7.7142  -22.3093  -50.1240 H         1 UNK         0.0600 
    215 H215       -4.0499  -20.8010  -48.7902 H         1 UNK         0.3000 
    216 H216       -3.2133  -18.8943  -49.5072 H         1 UNK         0.0600 
    217 H217       -5.5822  -17.5688  -48.0846 H         1 UNK         0.0600 
    218 H218       -4.1135  -16.7563  -48.5941 H         1 UNK         0.0600 
    219 H219       -4.0294  -17.9951  -47.3623 H         1 UNK         0.0600 
    220 H220       -5.2499  -20.2931  -51.3008 H         1 UNK         0.3000 
    221 H221       -6.4083  -18.1279  -52.8994 H         1 UNK         0.0600 
    222 H222       -7.6385  -20.2736  -52.5077 H         1 UNK         0.0600 
    223 H223       -6.3689  -21.1589  -53.3494 H         1 UNK         0.0600 
    224 H224       -7.3481  -19.9860  -54.2178 H         1 UNK         0.0600 
    225 H225       -5.4483  -17.2259  -54.6212 H         1 UNK         0.3000 
    226 H226       -2.7528  -17.5082  -55.2062 H         1 UNK         0.0600 
    227 H227       -4.0596  -15.4474  -55.5831 H         1 UNK         0.0600 
    228 H228       -3.2540  -15.9205  -57.0690 H         1 UNK         0.0600 
    229 H229       -4.9759  -16.2262  -56.8746 H         1 UNK         0.0600 
    230 H230       -5.3640  -19.3586  -56.5823 H         1 UNK         0.3000 
    231 H231       -3.9081  -20.2385  -58.9643 H         1 UNK         0.0600 
    232 H232       -6.5272  -21.2009  -57.6930 H         1 UNK         0.0600 
    233 H233       -5.9264  -21.6603  -59.2816 H         1 UNK         0.0600 
    234 H234       -6.3852  -19.9942  -58.9723 H         1 UNK         0.0600 
    235 H235       -3.8443  -21.1329  -55.6182 H         1 UNK         0.3000 
    236 H236       -3.1943  -23.9919  -56.1935 H         1 UNK         0.0600 
    237 H237       -5.2385  -23.5720  -54.8521 H         1 UNK         0.0600 
    238 H238       -4.0072  -24.3485  -53.8718 H         1 UNK         0.0600 
    239 H239       -4.3085  -22.6234  -53.6984 H         1 UNK         0.0600 
    240 H240       -1.4213  -21.2697  -55.8074 H         1 UNK         0.3000 
    241 H241        0.2893  -21.8268  -53.6289 H         1 UNK         0.0600 
    242 H242        2.9430  -23.9514  -54.6345 H         1 UNK         0.3800 
    243 H243        2.3303  -22.9007  -53.3920 H         1 UNK         0.3800 
    244 H244        1.1618  -20.3358  -56.1478 H         1 UNK         0.0800 
    245 H245        1.8126  -20.1656  -54.5423 H         1 UNK         0.0800 
    246 H246       -1.8838  -18.6769  -53.1321 H         1 UNK         0.0800 
    247 H247       -1.1687  -20.2439  -52.9867 H         1 UNK         0.0800 
@<TRIPOS>BOND
     1    1    2 1    
     2    1  127 1    
     3    1  128 1    
     4    1  129 1    
     5    2    3 2    
     6    2    4 am   BACKBONE|DICT|INTERRES
     7    4    5 1    
     8    4  130 1    
     9    5    6 1    
    10    5   65 1    
    11    5  131 1    
    12    6    7 1    
    13    6  132 1    
    14    6  133 1    
    15    7    8 1    
    16    8    9 1    
    17    8  134 1    
    18    8  135 1    
    19    9   10 ar   
    20    9   14 ar   
    21   10   11 ar   
    22   10  136 1    
    23   11   12 ar   
    24   11  126 1    
    25   12   13 ar   
    26   12  137 1    
    27   13   14 ar   
    28   13   15 1    
    29   14  138 1    
    30   15   16 1    
    31   15  139 1    
    32   15  140 1    
    33   16   17 1    
    34   17   18 1    
    35   17  141 1    
    36   17  142 1    
    37   18   19 1    
    38   18   67 1    
    39   18  143 1    
    40   19   20 am   BACKBONE|DICT|INTERRES
    41   19  144 1    
    42   20   21 2    
    43   20   22 1    
    44   22   23 1    
    45   22   24 1    
    46   22  145 1    
    47   23  146 1    
    48   23  147 1    
    49   23  148 1    
    50   24   25 am   BACKBONE|DICT|INTERRES
    51   24  149 1    
    52   25   26 2    
    53   25   27 1    
    54   27   28 1    
    55   27   29 1    
    56   27  150 1    
    57   28  151 1    
    58   28  152 1    
    59   28  153 1    
    60   29   30 am   BACKBONE|DICT|INTERRES
    61   29  154 1    
    62   30   31 2    
    63   30   32 1    
    64   32   33 1    
    65   32   34 1    
    66   32  155 1    
    67   33  156 1    
    68   33  157 1    
    69   33  158 1    
    70   34   35 am   BACKBONE|DICT|INTERRES
    71   34  159 1    
    72   35   36 2    
    73   35   37 1    
    74   37   38 1    
    75   37   39 1    
    76   37  160 1    
    77   38  161 1    
    78   38  162 1    
    79   38  163 1    
    80   39   40 am   BACKBONE|DICT|INTERRES
    81   39  164 1    
    82   40   41 2    
    83   40   42 1    
    84   42   43 1    
    85   42   44 1    
    86   42  165 1    
    87   43  166 1    
    88   43  167 1    
    89   43  168 1    
    90   44   45 am   BACKBONE|DICT|INTERRES
    91   44  169 1    
    92   45   46 2    
    93   45   47 1    
    94   47   48 1    
    95   47   49 1    
    96   47  170 1    
    97   48  171 1    
    98   48  172 1    
    99   48  173 1    
   100   49   50 am   BACKBONE|DICT|INTERRES
   101   49  174 1    
   102   50   51 2    
   103   50   52 1    
   104   52   53 1    
   105   52   54 1    
   106   52  175 1    
   107   53  176 1    
   108   53  177 1    
   109   53  178 1    
   110   54   55 am   BACKBONE|DICT|INTERRES
   111   54  179 1    
   112   55   56 2    
   113   55   57 1    
   114   57   58 1    
   115   57   59 1    
   116   57  180 1    
   117   58  181 1    
   118   58  182 1    
   119   58  183 1    
   120   59   60 am   BACKBONE|DICT|INTERRES
   121   59  184 1    
   122   60   61 2    
   123   60   62 1    
   124   62   63 1    
   125   62   64 1    
   126   62  185 1    
   127   63  186 1    
   128   63  187 1    
   129   63  188 1    
   130   64   65 am   BACKBONE|DICT|INTERRES
   131   64  189 1    
   132   65   66 2    
   133   67   68 2    
   134   67   69 am   BACKBONE|DICT|INTERRES
   135   69   70 1    
   136   69  190 1    
   137   70   71 1    
   138   70   72 1    
   139   70  191 1    
   140   71  192 1    
   141   71  193 1    
   142   71  194 1    
   143   72   73 2    
   144   72   74 am   BACKBONE|DICT|INTERRES
   145   74   75 1    
   146   74  195 1    
   147   75   76 1    
   148   75   77 1    
   149   75  196 1    
   150   76  197 1    
   151   76  198 1    
   152   76  199 1    
   153   77   78 2    
   154   77   79 am   BACKBONE|DICT|INTERRES
   155   79   80 1    
   156   79  200 1    
   157   80   81 1    
   158   80   82 1    
   159   80  201 1    
   160   81  202 1    
   161   81  203 1    
   162   81  204 1    
   163   82   83 2    
   164   82   84 am   BACKBONE|DICT|INTERRES
   165   84   85 1    
   166   84  205 1    
   167   85   86 1    
   168   85   87 1    
   169   85  206 1    
   170   86  207 1    
   171   86  208 1    
   172   86  209 1    
   173   87   88 2    
   174   87   89 am   BACKBONE|DICT|INTERRES
   175   89   90 1    
   176   89  210 1    
   177   90   91 1    
   178   90   92 1    
   179   90  211 1    
   180   91  212 1    
   181   91  213 1    
   182   91  214 1    
   183   92   93 2    
   184   92   94 am   BACKBONE|DICT|INTERRES
   185   94   95 1    
   186   94  215 1    
   187   95   96 1    
   188   95   97 1    
   189   95  216 1    
   190   96  217 1    
   191   96  218 1    
   192   96  219 1    
   193   97   98 2    
   194   97   99 am   BACKBONE|DICT|INTERRES
   195   99  100 1    
   196   99  220 1    
   197  100  101 1    
   198  100  102 1    
   199  100  221 1    
   200  101  222 1    
   201  101  223 1    
   202  101  224 1    
   203  102  103 2    
   204  102  104 am   BACKBONE|DICT|INTERRES
   205  104  105 1    
   206  104  225 1    
   207  105  106 1    
   208  105  107 1    
   209  105  226 1    
   210  106  227 1    
   211  106  228 1    
   212  106  229 1    
   213  107  108 2    
   214  107  109 am   BACKBONE|DICT|INTERRES
   215  109  110 1    
   216  109  230 1    
   217  110  111 1    
   218  110  112 1    
   219  110  231 1    
   220  111  232 1    
   221  111  233 1    
   222  111  234 1    
   223  112  113 2    
   224  112  114 am   BACKBONE|DICT|INTERRES
   225  114  115 1    
   226  114  235 1    
   227  115  116 1    
   228  115  117 1    
   229  115  236 1    
   230  116  237 1    
   231  116  238 1    
   232  116  239 1    
   233  117  118 2    
   234  117  119 am   BACKBONE|DICT|INTERRES
   235  119  120 1    
   236  119  240 1    
   237  120  121 1    
   238  120  124 1    
   239  120  241 1    
   240  121  122 am   BACKBONE|DICT|INTERRES
   241  121  123 2    
   242  122  242 1    
   243  122  243 1    
   244  124  125 1    
   245  124  244 1    
   246  124  245 1    
   247  125  126 1    
   248  126  246 1    
   249  126  247 1    
@<TRIPOS>SUBSTRUCTURE
     1 UNK         1 GROUP             0       ****    0 ROOT    
