@<TRIPOS>MOLECULE
3R540
247   249    1
SMALL
USER_CHARGES


@<TRIPOS>ATOM
      1 CA          3.3139  -15.6107  -51.5662 C.3       0 UNK        -0.1800 
      2 C           2.7835  -14.9519  -50.3014 C.2       0 UNK         0.5000 
      3 O           3.0101  -15.4600  -49.2030 O.2       0 UNK        -0.5000 
      4 N           2.0846  -13.8195  -50.4449 N.am      1 UNK        -0.5000 
      5 CA          1.4600  -13.0647  -49.3527 C.3       1 UNK         0.1400 
      6 C6          0.2120  -12.2706  -49.8158 C.3       23 UNK        -0.0398 
      7 S7         -1.0922  -13.3499  -50.4941 S.3       23 UNK        -0.2404 
      8 C8         -1.8190  -14.0306  -48.9685 C.3       23 UNK        -0.0205 
      9 C9         -1.8667  -15.5482  -49.0258 C.ar      23 UNK        -0.0193 
     10 C10        -3.0316  -16.1966  -49.4469 C.ar      23 UNK        -0.1150 
     11 C11        -3.0840  -17.5920  -49.5104 C.ar      23 UNK        -0.0193 
     12 C12        -1.9530  -18.3356  -49.1660 C.ar      23 UNK        -0.1150 
     13 C13        -0.7782  -17.6998  -48.7612 C.ar      23 UNK        -0.0193 
     14 C14        -0.7433  -16.3060  -48.6769 C.ar      23 UNK        -0.1150 
     15 C15         0.4558  -18.5290  -48.4543 C.3       23 UNK        -0.0205 
     16 S16         0.4274  -19.1455  -46.7461 S.3       23 UNK        -0.2404 
     17 C17         1.5059  -20.6150  -46.8924 C.3       23 UNK        -0.0398 
     18 CA          0.7595  -21.9540  -46.6735 C.3       11 UNK         0.1400 
     19 N           0.1290  -22.0040  -45.3535 N.am      11 UNK        -0.5000 
     20 C          -0.5091  -23.0543  -44.8230 C.2       10 UNK         0.5000 
     21 O          -0.5391  -24.1661  -45.3504 O.2       10 UNK        -0.5000 
     22 CA         -1.2929  -22.8099  -43.5181 C.3       10 UNK         0.1400 
     23 CB         -0.5307  -23.3955  -42.3206 C.3       10 UNK        -0.1800 
     24 N          -1.5943  -21.4006  -43.2412 N.am      10 UNK        -0.5000 
     25 C          -2.2962  -20.5574  -44.0115 C.2       9 UNK         0.5000 
     26 O          -2.7711  -20.8835  -45.0996 O.2       9 UNK        -0.5000 
     27 CA         -2.4615  -19.1000  -43.5263 C.3       9 UNK         0.1400 
     28 CB         -3.8818  -18.8541  -42.9853 C.3       9 UNK        -0.1800 
     29 N          -1.4448  -18.6268  -42.5739 N.am      9 UNK        -0.5000 
     30 C          -1.2034  -19.0286  -41.3172 C.2       8 UNK         0.5000 
     31 O          -1.8136  -19.9384  -40.7560 O.2       8 UNK        -0.5000 
     32 CA         -0.0593  -18.3195  -40.5731 C.3       8 UNK         0.1400 
     33 CB          1.2970  -18.9051  -40.9961 C.3       8 UNK        -0.1800 
     34 N          -0.0568  -16.8707  -40.7775 N.am      8 UNK        -0.5000 
     35 C          -0.9791  -16.0343  -40.2794 C.2       7 UNK         0.5000 
     36 O          -1.9204  -16.3964  -39.5722 O.2       7 UNK        -0.5000 
     37 CA         -0.8273  -14.5411  -40.6240 C.3       7 UNK         0.1400 
     38 CB          0.2018  -13.8727  -39.6999 C.3       7 UNK        -0.1800 
     39 N          -0.4530  -14.3202  -42.0207 N.am      7 UNK        -0.5000 
     40 C          -1.2652  -14.5444  -43.0645 C.2       6 UNK         0.5000 
     41 O          -2.4425  -14.8882  -42.9544 O.2       6 UNK        -0.5000 
     42 CA         -0.6554  -14.3838  -44.4704 C.3       6 UNK         0.1400 
     43 CB         -0.7168  -12.9191  -44.9298 C.3       6 UNK        -0.1800 
     44 N           0.7267  -14.8529  -44.5500 N.am      6 UNK        -0.5000 
     45 C           1.1231  -16.1147  -44.3380 C.2       5 UNK         0.5000 
     46 O           0.3598  -17.0355  -44.0509 O.2       5 UNK        -0.5000 
     47 CA          2.6375  -16.3714  -44.3888 C.3       5 UNK         0.1400 
     48 CB          3.1496  -16.3941  -45.8373 C.3       5 UNK        -0.1800 
     49 N           3.3828  -15.3753  -43.6184 N.am      5 UNK        -0.5000 
     50 C           3.3340  -15.2545  -42.2843 C.2       4 UNK         0.5000 
     51 O           2.6579  -15.9799  -41.5561 O.2       4 UNK        -0.5000 
     52 CA          4.1557  -14.1116  -41.6618 C.3       4 UNK         0.1400 
     53 CB          5.6207  -14.5349  -41.4783 C.3       4 UNK        -0.1800 
     54 N           4.1008  -12.8825  -42.4537 N.am      4 UNK        -0.5000 
     55 C           3.0017  -12.1300  -42.6009 C.2       3 UNK         0.5000 
     56 O           1.9201  -12.3836  -42.0708 O.2       3 UNK        -0.5000 
     57 CA          3.1215  -10.9194  -43.5461 C.3       3 UNK         0.1400 
     58 CB          3.7770   -9.7307  -42.8269 C.3       3 UNK        -0.1800 
     59 N           3.8532  -11.2065  -44.7861 N.am      3 UNK        -0.5000 
     60 C           3.5003  -12.1519  -45.6661 C.2       2 UNK         0.5000 
     61 O           2.5721  -12.9417  -45.4783 O.2       2 UNK        -0.5000 
     62 CA          4.3272  -12.2587  -46.9608 C.3       2 UNK         0.1400 
     63 CB          5.5481  -13.1655  -46.7452 C.3       2 UNK        -0.1800 
     64 N           3.4995  -12.8244  -48.0247 N.am      2 UNK        -0.5000 
     65 C           2.4817  -12.1807  -48.6081 C.2       1 UNK         0.5000 
     66 O           2.3254  -10.9594  -48.5456 O.2       1 UNK        -0.5000 
     67 C          -0.2247  -22.2730  -47.8265 C.2       11 UNK         0.5000 
     68 O           0.1911  -22.8550  -48.8279 O.2       11 UNK        -0.5000 
     69 N          -1.5140  -21.9401  -47.6483 N.am      12 UNK        -0.5000 
     70 CA         -2.5991  -22.2684  -48.5738 C.3       12 UNK         0.1400 
     71 CB         -3.8771  -21.5421  -48.1236 C.3       12 UNK        -0.1800 
     72 C          -2.8494  -23.7845  -48.6630 C.2       12 UNK         0.5000 
     73 O          -3.0490  -24.3100  -49.7598 O.2       12 UNK        -0.5000 
     74 N          -2.8098  -24.4565  -47.5044 N.am      13 UNK        -0.5000 
     75 CA         -2.9508  -25.9053  -47.3808 C.3       13 UNK         0.1400 
     76 CB         -3.2845  -26.2717  -45.9267 C.3       13 UNK        -0.1800 
     77 C          -1.6903  -26.6413  -47.8619 C.2       13 UNK         0.5000 
     78 O          -1.8117  -27.6597  -48.5413 O.2       13 UNK        -0.5000 
     79 N          -0.5079  -26.0906  -47.5477 N.am      14 UNK        -0.5000 
     80 CA          0.7958  -26.6009  -47.9837 C.3       14 UNK         0.1400 
     81 CB          1.9143  -25.8137  -47.2867 C.3       14 UNK        -0.1800 
     82 C           0.9818  -26.5635  -49.5136 C.2       14 UNK         0.5000 
     83 O           1.6200  -27.4585  -50.0686 O.2       14 UNK        -0.5000 
     84 N           0.3902  -25.5542  -50.1695 N.am      15 UNK        -0.5000 
     85 CA          0.3205  -25.4267  -51.6270 C.3       15 UNK         0.1400 
     86 CB         -0.1309  -24.0008  -51.9819 C.3       15 UNK        -0.1800 
     87 C          -0.6046  -26.4670  -52.2948 C.2       15 UNK         0.5000 
     88 O          -0.4864  -26.6832  -53.5008 O.2       15 UNK        -0.5000 
     89 N          -1.5076  -27.0780  -51.5103 N.am      16 UNK        -0.5000 
     90 CA         -2.4502  -28.1458  -51.8726 C.3       16 UNK         0.1400 
     91 CB         -1.6902  -29.4252  -52.2794 C.3       16 UNK        -0.1800 
     92 C          -3.5200  -27.7399  -52.9102 C.2       16 UNK         0.5000 
     93 O          -4.1605  -28.6122  -53.4997 O.2       16 UNK        -0.5000 
     94 N          -3.7109  -26.4304  -53.1052 N.am      17 UNK        -0.5000 
     95 CA         -4.6378  -25.8462  -54.0760 C.3       17 UNK         0.1400 
     96 CB         -3.9743  -25.8070  -55.4674 C.3       17 UNK        -0.1800 
     97 C          -5.1224  -24.4583  -53.6194 C.2       17 UNK         0.5000 
     98 O          -5.4623  -23.6242  -54.4603 O.2       17 UNK        -0.5000 
     99 N          -5.0997  -24.2057  -52.2991 N.am      18 UNK        -0.5000 
    100 CA        -5.4680  -22.9429  -51.6394 C.3       18 UNK         0.1400 
    101 CB        -6.9840  -22.6964  -51.7702 C.3       18 UNK        -0.1800 
    102 C         -4.6274  -21.7386  -52.1241 C.2       18 UNK         0.5000 
    103 O         -5.1299  -20.6139  -52.1888 O.2       18 UNK        -0.5000 
    104 N         -3.3832  -22.0222  -52.5426 N.am      19 UNK        -0.5000 
    105 CA        -2.4352  -21.1399  -53.2402 C.3       19 UNK         0.1400 
    106 CB        -1.8577  -20.0984  -52.2637 C.3       19 UNK        -0.1800 
    107 C         -2.9965  -20.4845  -54.5265 C.2       19 UNK         0.5000 
    108 O         -2.4482  -19.4810  -54.9838 O.2       19 UNK        -0.5000 
    109 N         -4.0898  -21.0463  -55.0695 N.am      20 UNK        -0.5000 
    110 CA        -4.9222  -20.5242  -56.1562 C.3       20 UNK         0.1400 
    111 CB        -4.1609  -20.5831  -57.4969 C.3       20 UNK        -0.1800 
    112 C         -5.5219  -19.1278  -55.8624 C.2       20 UNK         0.5000 
    113 O         -5.7764  -18.3712  -56.8021 O.2       20 UNK        -0.5000 
    114 N         -5.7327  -18.8004  -54.5771 N.am      21 UNK        -0.5000 
    115 CA        -6.1693  -17.4724  -54.1356 C.3       21 UNK         0.1400 
    116 CB        -4.9372  -16.5976  -53.8447 C.3       21 UNK        -0.1800 
    117 C         -7.1259  -17.5031  -52.9317 C.2       21 UNK         0.5000 
    118 O         -7.9960  -16.6351  -52.8475 O.2       21 UNK        -0.5000 
    119 N         -6.9729  -18.4807  -52.0293 N.am      22 UNK        -0.5000 
    120 CA        -7.8107  -18.6377  -50.8252 C.3       22 UNK         0.1400 
    121 C         -9.0958  -19.4861  -51.0645 C.2       22 UNK         0.5000 
    122 N         -9.3334  -20.0216  -52.2560 N.am      22 UNK        -0.7600 
    123 O         -9.9042  -19.6501  -50.1548 O.2       22 UNK        -0.5000 
    124 C124       -6.9878  -19.1737  -49.6218 C.3       23 UNK        -0.0398 
    125 S125       -5.7909  -17.9609  -48.9657 S.3       23 UNK        -0.2404 
    126 C126       -4.3364  -18.2993  -50.0028 C.3       23 UNK        -0.0205 
    127 H127        4.4010  -15.6776  -51.5264 H         1 UNK         0.0600 
    128 H128        2.9116  -16.6196  -51.6583 H         1 UNK         0.0600 
    129 H129        3.0388  -15.0514  -52.4607 H         1 UNK         0.0600 
    130 H130        1.9443  -13.4398  -51.3702 H         1 UNK         0.3000 
    131 H131        1.1138  -13.7782  -48.6038 H         1 UNK         0.0600 
    132 H132        0.4863  -11.5426  -50.5810 H         1 UNK         0.0800 
    133 H133       -0.2153  -11.6966  -48.9912 H         1 UNK         0.0800 
    134 H134       -2.8225  -13.6221  -48.8406 H         1 UNK         0.0800 
    135 H135       -1.2533  -13.7191  -48.0900 H         1 UNK         0.0800 
    136 H136       -3.8988  -15.6169  -49.7306 H         1 UNK         0.1150 
    137 H137       -1.9740  -19.4132  -49.2309 H         1 UNK         0.1150 
    138 H138        0.1656  -15.8164  -48.3598 H         1 UNK         0.1150 
    139 H139        0.5019  -19.3654  -49.1537 H         1 UNK         0.0800 
    140 H140        1.3625  -17.9425  -48.6130 H         1 UNK         0.0800 
    141 H141        2.2951  -20.5165  -46.1459 H         1 UNK         0.0800 
    142 H142        2.0211  -20.6170  -47.8545 H         1 UNK         0.0800 
    143 H143        1.5125  -22.7427  -46.6814 H         1 UNK         0.0600 
    144 H144        0.0781  -21.1249  -44.8597 H         1 UNK         0.3000 
    145 H145       -2.2445  -23.3363  -43.6127 H         1 UNK         0.0600 
    146 H146       -1.1143  -23.3139  -41.4034 H         1 UNK         0.0600 
    147 H147       -0.3135  -24.4536  -42.4732 H         1 UNK         0.0600 
    148 H148        0.4193  -22.8838  -42.1608 H         1 UNK         0.0600 
    149 H149       -1.3175  -21.0520  -42.3308 H         1 UNK         0.3000 
    150 H150       -2.3356  -18.4743  -44.4117 H         1 UNK         0.0600 
    151 H151       -4.6319  -19.0943  -43.7398 H         1 UNK         0.0600 
    152 H152       -4.0207  -17.8083  -42.7099 H         1 UNK         0.0600 
    153 H153       -4.0955  -19.4648  -42.1078 H         1 UNK         0.0600 
    154 H154       -0.8154  -17.9257  -42.9632 H         1 UNK         0.3000 
    155 H155       -0.1898  -18.5101  -39.5058 H         1 UNK         0.0600 
    156 H156        1.5127  -18.7064  -42.0465 H         1 UNK         0.0600 
    157 H157        1.3194  -19.9864  -40.8539 H         1 UNK         0.0600 
    158 H158        2.1089  -18.4834  -40.4034 H         1 UNK         0.0600 
    159 H159        0.7212  -16.4893  -41.3059 H         1 UNK         0.3000 
    160 H160       -1.7932  -14.0612  -40.4524 H         1 UNK         0.0600 
    161 H161        0.2441  -12.7970  -39.8715 H         1 UNK         0.0600 
    162 H162        1.2035  -14.2753  -39.8530 H         1 UNK         0.0600 
    163 H163       -0.0572  -14.0240  -38.6513 H         1 UNK         0.0600 
    164 H164        0.4864  -13.9813  -42.1931 H         1 UNK         0.3000 
    165 H165       -1.2486  -14.9858  -45.1622 H         1 UNK         0.0600 
    166 H166       -0.3352  -12.8069  -45.9447 H         1 UNK         0.0600 
    167 H167       -1.7427  -12.5491  -44.9227 H         1 UNK         0.0600 
    168 H168       -0.1266  -12.2712  -44.2803 H         1 UNK         0.0600 
    169 H169        1.4291  -14.1555  -44.7916 H         1 UNK         0.3000 
    170 H170        2.8258  -17.3525  -43.9477 H         1 UNK         0.0600 
    171 H171        2.6435  -17.1646  -46.4184 H         1 UNK         0.0600 
    172 H172        2.9795  -15.4449  -46.3451 H         1 UNK         0.0600 
    173 H173        4.2173  -16.6094  -45.8768 H         1 UNK         0.0600 
    174 H174        3.9111  -14.6966  -44.1450 H         1 UNK         0.3000 
    175 H175        3.7366  -13.9004  -40.6756 H         1 UNK         0.0600 
    176 H176        6.1932  -13.7613  -40.9663 H         1 UNK         0.0600 
    177 H177        5.6916  -15.4420  -40.8765 H         1 UNK         0.0600 
    178 H178        6.1066  -14.7359  -42.4339 H         1 UNK         0.0600 
    179 H179        4.9444  -12.6050  -42.9330 H         1 UNK         0.3000 
    180 H180        2.1074  -10.6271  -43.8267 H         1 UNK         0.0600 
    181 H181        4.8130   -9.9417  -42.5592 H         1 UNK         0.0600 
    182 H182        3.2428   -9.4882  -41.9072 H         1 UNK         0.0600 
    183 H183        3.7666   -8.8373  -43.4516 H         1 UNK         0.0600 
    184 H184        4.6341  -10.6026  -44.9990 H         1 UNK         0.3000 
    185 H185        4.6646  -11.2634  -47.2571 H         1 UNK         0.0600 
    186 H186        5.2565  -14.1722  -46.4437 H         1 UNK         0.0600 
    187 H187        6.1407  -13.2493  -47.6564 H         1 UNK         0.0600 
    188 H188        6.2019  -12.7659  -45.9691 H         1 UNK         0.0600 
    189 H189        3.5351  -13.8317  -48.1437 H         1 UNK         0.3000 
    190 H190       -1.7848  -21.4746  -46.7872 H         1 UNK         0.3000 
    191 H191       -2.3218  -21.9092  -49.5661 H         1 UNK         0.0600 
    192 H192       -3.6977  -20.4804  -47.9576 H         1 UNK         0.0600 
    193 H193       -4.2661  -21.9511  -47.1903 H         1 UNK         0.0600 
    194 H194       -4.6660  -21.6261  -48.8692 H         1 UNK         0.0600 
    195 H195       -2.5895  -23.9496  -46.6595 H         1 UNK         0.3000 
    196 H196       -3.7852  -26.2245  -48.0093 H         1 UNK         0.0600 
    197 H197       -3.4354  -27.3469  -45.8225 H         1 UNK         0.0600 
    198 H198       -4.2011  -25.7820  -45.5976 H         1 UNK         0.0600 
    199 H199       -2.4871  -25.9864  -45.2403 H         1 UNK         0.0600 
    200 H200       -0.5006  -25.2849  -46.9288 H         1 UNK         0.3000 
    201 H201        0.8631  -27.6432  -47.6655 H         1 UNK         0.0600 
    202 H202        1.7819  -25.8047  -46.2045 H         1 UNK         0.0600 
    203 H203        1.9498  -24.7816  -47.6328 H         1 UNK         0.0600 
    204 H204        2.8881  -26.2591  -47.4933 H         1 UNK         0.0600 
    205 H205       -0.0410  -24.8124  -49.6296 H         1 UNK         0.3000 
    206 H206        1.3237  -25.5771  -52.0308 H         1 UNK         0.0600 
    207 H207        0.5743  -23.2600  -51.6048 H         1 UNK         0.0600 
    208 H208       -0.1945  -23.8659  -53.0623 H         1 UNK         0.0600 
    209 H209       -1.1091  -23.7716  -51.5603 H         1 UNK         0.0600 
    210 H210       -1.5087  -26.8372  -50.5266 H         1 UNK         0.3000 
    211 H211       -3.0019  -28.3739  -50.9598 H         1 UNK         0.0600 
    212 H212       -1.1670  -29.3015  -53.2280 H         1 UNK         0.0600 
    213 H213       -2.3717  -30.2693  -52.3903 H         1 UNK         0.0600 
    214 H214       -0.9550  -29.7021  -51.5236 H         1 UNK         0.0600 
    215 H215       -3.1297  -25.7882  -52.5866 H         1 UNK         0.3000 
    216 H216       -5.5318  -26.4701  -54.1366 H         1 UNK         0.0600 
    217 H217       -4.6582  -25.4178  -56.2226 H         1 UNK         0.0600 
    218 H218       -3.6739  -26.8033  -55.7919 H         1 UNK         0.0600 
    219 H219       -3.0860  -25.1742  -55.4674 H         1 UNK         0.0600 
    220 H220       -4.8075  -24.9457  -51.6751 H         1 UNK         0.3000 
    221 H221       -5.2500  -23.0730  -50.5809 H         1 UNK         0.0600 
    222 H222       -7.2687  -22.4396  -52.7911 H         1 UNK         0.0600 
    223 H223       -7.5545  -23.5769  -51.4752 H         1 UNK         0.0600 
    224 H224       -7.3042  -21.8798  -51.1262 H         1 UNK         0.0600 
    225 H225       -3.0880  -22.9825  -52.4509 H         1 UNK         0.3000 
    226 H226       -1.6122  -21.7762  -53.5672 H         1 UNK         0.0600 
    227 H227       -1.4594  -20.5725  -51.3676 H         1 UNK         0.0600 
    228 H228       -1.0393  -19.5413  -52.7206 H         1 UNK         0.0600 
    229 H229       -2.6129  -19.3741  -51.9633 H         1 UNK         0.0600 
    230 H230       -4.4563  -21.8878  -54.6356 H         1 UNK         0.3000 
    231 H231       -5.7726  -21.2032  -56.2322 H         1 UNK         0.0600 
    232 H232       -3.7603  -21.5804  -57.6783 H         1 UNK         0.0600 
    233 H233       -3.3300  -19.8776  -57.5219 H         1 UNK         0.0600 
    234 H234       -4.8188  -20.3432  -58.3329 H         1 UNK         0.0600 
    235 H235       -5.5003  -19.4754  -53.8573 H         1 UNK         0.3000 
    236 H236       -6.7340  -16.9936  -54.9385 H         1 UNK         0.0600 
    237 H237       -5.2258  -15.6287  -53.4350 H         1 UNK         0.0600 
    238 H238       -4.2637  -17.0725  -53.1318 H         1 UNK         0.0600 
    239 H239       -4.3697  -16.4081  -54.7559 H         1 UNK         0.0600 
    240 H240       -6.2491  -19.1844  -52.1481 H         1 UNK         0.3000 
    241 H241       -8.1831  -17.6537  -50.5339 H         1 UNK         0.0600 
    242 H242      -10.1729  -20.5602  -52.3997 H         1 UNK         0.3800 
    243 H243       -8.6888  -19.8819  -53.0165 H         1 UNK         0.3800 
    244 H244       -7.6462  -19.4269  -48.7892 H         1 UNK         0.0800 
    245 H245       -6.4708  -20.0972  -49.8794 H         1 UNK         0.0800 
    246 H246       -4.5357  -17.9765  -51.0223 H         1 UNK         0.0800 
    247 H247       -4.1711  -19.3749  -50.0458 H         1 UNK         0.0800 
@<TRIPOS>BOND
     1    1    2 1    
     2    1  127 1    
     3    1  128 1    
     4    1  129 1    
     5    2    3 2    
     6    2    4 am   BACKBONE|DICT|INTERRES
     7    4    5 1    
     8    4  130 1    
     9    5    6 1    
    10    5   65 1    
    11    5  131 1    
    12    6    7 1    
    13    6  132 1    
    14    6  133 1    
    15    7    8 1    
    16    8    9 1    
    17    8  134 1    
    18    8  135 1    
    19    9   10 ar   
    20    9   14 ar   
    21   10   11 ar   
    22   10  136 1    
    23   11   12 ar   
    24   11  126 1    
    25   12   13 ar   
    26   12  137 1    
    27   13   14 ar   
    28   13   15 1    
    29   14  138 1    
    30   15   16 1    
    31   15  139 1    
    32   15  140 1    
    33   16   17 1    
    34   17   18 1    
    35   17  141 1    
    36   17  142 1    
    37   18   19 1    
    38   18   67 1    
    39   18  143 1    
    40   19   20 am   BACKBONE|DICT|INTERRES
    41   19  144 1    
    42   20   21 2    
    43   20   22 1    
    44   22   23 1    
    45   22   24 1    
    46   22  145 1    
    47   23  146 1    
    48   23  147 1    
    49   23  148 1    
    50   24   25 am   BACKBONE|DICT|INTERRES
    51   24  149 1    
    52   25   26 2    
    53   25   27 1    
    54   27   28 1    
    55   27   29 1    
    56   27  150 1    
    57   28  151 1    
    58   28  152 1    
    59   28  153 1    
    60   29   30 am   BACKBONE|DICT|INTERRES
    61   29  154 1    
    62   30   31 2    
    63   30   32 1    
    64   32   33 1    
    65   32   34 1    
    66   32  155 1    
    67   33  156 1    
    68   33  157 1    
    69   33  158 1    
    70   34   35 am   BACKBONE|DICT|INTERRES
    71   34  159 1    
    72   35   36 2    
    73   35   37 1    
    74   37   38 1    
    75   37   39 1    
    76   37  160 1    
    77   38  161 1    
    78   38  162 1    
    79   38  163 1    
    80   39   40 am   BACKBONE|DICT|INTERRES
    81   39  164 1    
    82   40   41 2    
    83   40   42 1    
    84   42   43 1    
    85   42   44 1    
    86   42  165 1    
    87   43  166 1    
    88   43  167 1    
    89   43  168 1    
    90   44   45 am   BACKBONE|DICT|INTERRES
    91   44  169 1    
    92   45   46 2    
    93   45   47 1    
    94   47   48 1    
    95   47   49 1    
    96   47  170 1    
    97   48  171 1    
    98   48  172 1    
    99   48  173 1    
   100   49   50 am   BACKBONE|DICT|INTERRES
   101   49  174 1    
   102   50   51 2    
   103   50   52 1    
   104   52   53 1    
   105   52   54 1    
   106   52  175 1    
   107   53  176 1    
   108   53  177 1    
   109   53  178 1    
   110   54   55 am   BACKBONE|DICT|INTERRES
   111   54  179 1    
   112   55   56 2    
   113   55   57 1    
   114   57   58 1    
   115   57   59 1    
   116   57  180 1    
   117   58  181 1    
   118   58  182 1    
   119   58  183 1    
   120   59   60 am   BACKBONE|DICT|INTERRES
   121   59  184 1    
   122   60   61 2    
   123   60   62 1    
   124   62   63 1    
   125   62   64 1    
   126   62  185 1    
   127   63  186 1    
   128   63  187 1    
   129   63  188 1    
   130   64   65 am   BACKBONE|DICT|INTERRES
   131   64  189 1    
   132   65   66 2    
   133   67   68 2    
   134   67   69 am   BACKBONE|DICT|INTERRES
   135   69   70 1    
   136   69  190 1    
   137   70   71 1    
   138   70   72 1    
   139   70  191 1    
   140   71  192 1    
   141   71  193 1    
   142   71  194 1    
   143   72   73 2    
   144   72   74 am   BACKBONE|DICT|INTERRES
   145   74   75 1    
   146   74  195 1    
   147   75   76 1    
   148   75   77 1    
   149   75  196 1    
   150   76  197 1    
   151   76  198 1    
   152   76  199 1    
   153   77   78 2    
   154   77   79 am   BACKBONE|DICT|INTERRES
   155   79   80 1    
   156   79  200 1    
   157   80   81 1    
   158   80   82 1    
   159   80  201 1    
   160   81  202 1    
   161   81  203 1    
   162   81  204 1    
   163   82   83 2    
   164   82   84 am   BACKBONE|DICT|INTERRES
   165   84   85 1    
   166   84  205 1    
   167   85   86 1    
   168   85   87 1    
   169   85  206 1    
   170   86  207 1    
   171   86  208 1    
   172   86  209 1    
   173   87   88 2    
   174   87   89 am   BACKBONE|DICT|INTERRES
   175   89   90 1    
   176   89  210 1    
   177   90   91 1    
   178   90   92 1    
   179   90  211 1    
   180   91  212 1    
   181   91  213 1    
   182   91  214 1    
   183   92   93 2    
   184   92   94 am   BACKBONE|DICT|INTERRES
   185   94   95 1    
   186   94  215 1    
   187   95   96 1    
   188   95   97 1    
   189   95  216 1    
   190   96  217 1    
   191   96  218 1    
   192   96  219 1    
   193   97   98 2    
   194   97   99 am   BACKBONE|DICT|INTERRES
   195   99  100 1    
   196   99  220 1    
   197  100  101 1    
   198  100  102 1    
   199  100  221 1    
   200  101  222 1    
   201  101  223 1    
   202  101  224 1    
   203  102  103 2    
   204  102  104 am   BACKBONE|DICT|INTERRES
   205  104  105 1    
   206  104  225 1    
   207  105  106 1    
   208  105  107 1    
   209  105  226 1    
   210  106  227 1    
   211  106  228 1    
   212  106  229 1    
   213  107  108 2    
   214  107  109 am   BACKBONE|DICT|INTERRES
   215  109  110 1    
   216  109  230 1    
   217  110  111 1    
   218  110  112 1    
   219  110  231 1    
   220  111  232 1    
   221  111  233 1    
   222  111  234 1    
   223  112  113 2    
   224  112  114 am   BACKBONE|DICT|INTERRES
   225  114  115 1    
   226  114  235 1    
   227  115  116 1    
   228  115  117 1    
   229  115  236 1    
   230  116  237 1    
   231  116  238 1    
   232  116  239 1    
   233  117  118 2    
   234  117  119 am   BACKBONE|DICT|INTERRES
   235  119  120 1    
   236  119  240 1    
   237  120  121 1    
   238  120  124 1    
   239  120  241 1    
   240  121  122 am   BACKBONE|DICT|INTERRES
   241  121  123 2    
   242  122  242 1    
   243  122  243 1    
   244  124  125 1    
   245  124  244 1    
   246  124  245 1    
   247  125  126 1    
   248  126  246 1    
   249  126  247 1    
@<TRIPOS>SUBSTRUCTURE
     1 UNK         1 GROUP             0       ****    0 ROOT    
