@<TRIPOS>MOLECULE
3R540
247   249    1
SMALL
USER_CHARGES


@<TRIPOS>ATOM
      1 CA          0.4728  -15.3266  -48.6403 C.3       0 UNK        -0.1800 
      2 C          -0.8724  -15.8321  -49.1608 C.2       0 UNK         0.5000 
      3 O          -0.9246  -16.4042  -50.2467 O.2       0 UNK        -0.5000 
      4 N          -1.9816  -15.6795  -48.4278 N.am      1 UNK        -0.5000 
      5 CA         -2.0975  -15.0596  -47.1053 C.3       1 UNK         0.1400 
      6 C6         -3.4318  -15.4418  -46.4207 C.3       23 UNK        -0.0398 
      7 S7         -3.4970  -17.2280  -46.0558 S.3       23 UNK        -0.2404 
      8 C8         -4.9756  -17.7805  -46.9586 C.3       23 UNK        -0.0205 
      9 C9         -5.2233  -19.2671  -46.7370 C.ar      23 UNK        -0.0193 
     10 C10        -5.2540  -20.1566  -47.8159 C.ar      23 UNK        -0.1150 
     11 C11        -5.4755  -21.5214  -47.6023 C.ar      23 UNK        -0.0193 
     12 C12        -5.6670  -21.9951  -46.3014 C.ar      23 UNK        -0.1150 
     13 C13        -5.6138  -21.1197  -45.2137 C.ar      23 UNK        -0.0193 
     14 C14        -5.4121  -19.7566  -45.4408 C.ar      23 UNK        -0.1150 
     15 C15        -5.7421  -21.6433  -43.7899 C.3       23 UNK        -0.0205 
     16 S16        -4.3822  -22.7707  -43.3301 S.3       23 UNK        -0.2404 
     17 C17        -2.8863  -21.7913  -43.7197 C.3       23 UNK        -0.0398 
     18 CA         -2.2206  -22.2112  -45.0553 C.3       11 UNK         0.1400 
     19 N          -1.2413  -21.2286  -45.5207 N.am      11 UNK        -0.5000 
     20 C          -0.7371  -21.1959  -46.7617 C.2       10 UNK         0.5000 
     21 O          -1.0964  -21.9450  -47.6680 O.2       10 UNK        -0.5000 
     22 CA          0.3845  -20.1883  -47.0474 C.3       10 UNK         0.1400 
     23 CB         -0.2020  -18.8316  -47.4521 C.3       10 UNK        -0.1800 
     24 N           1.3133  -20.0217  -45.9310 N.am      10 UNK        -0.5000 
     25 C           2.1204  -20.9838  -45.4640 C.2       9 UNK         0.5000 
     26 O           2.1577  -22.1247  -45.9243 O.2       9 UNK        -0.5000 
     27 CA          3.0085  -20.6245  -44.2589 C.3       9 UNK         0.1400 
     28 CB          4.2039  -19.7629  -44.6926 C.3       9 UNK        -0.1800 
     29 N           2.2709  -19.9404  -43.1974 N.am      9 UNK        -0.5000 
     30 C           1.2642  -20.4866  -42.4998 C.2       8 UNK         0.5000 
     31 O           0.8602  -21.6395  -42.6595 O.2       8 UNK        -0.5000 
     32 CA          0.5476  -19.5636  -41.4971 C.3       8 UNK         0.1400 
     33 CB          1.3895  -19.3646  -40.2279 C.3       8 UNK        -0.1800 
     34 N           0.2163  -18.2633  -42.0816 N.am      8 UNK        -0.5000 
     35 C          -0.5873  -18.1031  -43.1422 C.2       7 UNK         0.5000 
     36 O          -1.1748  -19.0290  -43.6979 O.2       7 UNK        -0.5000 
     37 CA         -0.7164  -16.6868  -43.7181 C.3       7 UNK         0.1400 
     38 CB         -1.7385  -15.8520  -42.9335 C.3       7 UNK        -0.1800 
     39 N           0.5574  -15.9791  -43.7865 N.am      7 UNK        -0.5000 
     40 C           1.5986  -16.3396  -44.5472 C.2       6 UNK         0.5000 
     41 O           1.5861  -17.2972  -45.3157 O.2       6 UNK        -0.5000 
     42 CA          2.8835  -15.5123  -44.3941 C.3       6 UNK         0.1400 
     43 CB          2.8092  -14.2257  -45.2318 C.3       6 UNK        -0.1800 
     44 N           3.1490  -15.1821  -42.9945 N.am      6 UNK        -0.5000 
     45 C           3.4849  -16.0791  -42.0563 C.2       5 UNK         0.5000 
     46 O           3.6493  -17.2793  -42.2816 O.2       5 UNK        -0.5000 
     47 CA          3.6196  -15.5450  -40.6185 C.3       5 UNK         0.1400 
     48 CB          5.0032  -14.9147  -40.4008 C.3       5 UNK        -0.1800 
     49 N           2.5811  -14.5675  -40.2832 N.am      5 UNK        -0.5000 
     50 C           1.2835  -14.8710  -40.1400 C.2       4 UNK         0.5000 
     51 O           0.8323  -16.0103  -40.2596 O.2       4 UNK        -0.5000 
     52 CA          0.3214  -13.6984  -39.8619 C.3       4 UNK         0.1400 
     53 CB          0.3204  -13.3447  -38.3671 C.3       4 UNK        -0.1800 
     54 N           0.5900  -12.4877  -40.6493 N.am      4 UNK        -0.5000 
     55 C           0.6334  -12.4419  -41.9872 C.2       3 UNK         0.5000 
     56 O           0.5573  -13.4432  -42.7000 O.2       3 UNK        -0.5000 
     57 CA          0.8269  -11.0597  -42.6422 C.3       3 UNK         0.1400 
     58 CB          2.2975  -10.6255  -42.5410 C.3       3 UNK        -0.1800 
     59 N           0.4450  -11.0797  -44.0575 N.am      3 UNK        -0.5000 
     60 C          -0.7999  -11.2682  -44.5164 C.2       2 UNK         0.5000 
     61 O          -1.7997  -11.2802  -43.7965 O.2       2 UNK        -0.5000 
     62 CA         -0.9605  -11.5477  -46.0191 C.3       2 UNK         0.1400 
     63 CB          0.2698  -11.1763  -46.8762 C.3       2 UNK        -0.1800 
     64 N          -1.2564  -12.9694  -46.1611 N.am      2 UNK        -0.5000 
     65 C          -1.9255  -13.5290  -47.1748 C.2       1 UNK         0.5000 
     66 O          -2.3927  -12.8986  -48.1257 O.2       1 UNK        -0.5000 
     67 C          -1.6074  -23.6255  -44.9886 C.2       11 UNK         0.5000 
     68 O          -2.2345  -24.5757  -45.4578 O.2       11 UNK        -0.5000 
     69 N          -0.3814  -23.7379  -44.4534 N.am      12 UNK        -0.5000 
     70 CA          0.3656  -24.9950  -44.3596 C.3       12 UNK         0.1400 
     71 CB          1.6262  -24.7841  -43.5074 C.3       12 UNK        -0.1800 
     72 C           0.7260  -25.5868  -45.7358 C.2       12 UNK         0.5000 
     73 O           0.5946  -26.7955  -45.9319 O.2       12 UNK        -0.5000 
     74 N           1.1497  -24.7231  -46.6676 N.am      13 UNK        -0.5000 
     75 CA          1.4598  -25.0813  -48.0528 C.3       13 UNK         0.1400 
     76 CB          2.3358  -23.9737  -48.6593 C.3       13 UNK        -0.1800 
     77 C           0.2077  -25.2975  -48.9264 C.2       13 UNK         0.5000 
     78 O           0.3096  -25.9462  -49.9680 O.2       13 UNK        -0.5000 
     79 N          -0.9278  -24.7197  -48.5067 N.am      14 UNK        -0.5000 
     80 CA         -2.1884  -24.5678  -49.2413 C.3       14 UNK         0.1400 
     81 CB         -2.8847  -25.9278  -49.4474 C.3       14 UNK        -0.1800 
     82 C          -1.9926  -23.7689  -50.5482 C.2       14 UNK         0.5000 
     83 O          -2.4701  -24.1742  -51.6078 O.2       14 UNK        -0.5000 
     84 N          -1.2338  -22.6703  -50.4432 N.am      15 UNK        -0.5000 
     85 CA         -0.7149  -21.8972  -51.5681 C.3       15 UNK         0.1400 
     86 CB          0.4658  -21.0358  -51.0875 C.3       15 UNK        -0.1800 
     87 C          -1.7853  -21.0355  -52.2548 C.2       15 UNK         0.5000 
     88 O          -1.9818  -21.1696  -53.4635 O.2       15 UNK        -0.5000 
     89 N          -2.4212  -20.1478  -51.4721 N.am      16 UNK        -0.5000 
     90 CA         -3.4066  -19.1372  -51.8834 C.3       16 UNK         0.1400 
     91 CB         -4.7496  -19.8126  -52.2061 C.3       16 UNK        -0.1800 
     92 C          -2.8846  -18.2618  -53.0444 C.2       16 UNK         0.5000 
     93 O          -3.2036  -18.5097  -54.2115 O.2       16 UNK        -0.5000 
     94 N          -1.9941  -17.3202  -52.6996 N.am      17 UNK        -0.5000 
     95 CA         -1.2124  -16.4518  -53.5933 C.3       17 UNK         0.1400 
     96 CB         -2.1350  -15.5566  -54.4471 C.3       17 UNK        -0.1800 
     97 C          -0.1824  -17.2174  -54.4529 C.2       17 UNK         0.5000 
     98 O           0.3756  -16.6430  -55.3886 O.2       17 UNK        -0.5000 
     99 N           0.0334  -18.5020  -54.1252 N.am      18 UNK        -0.5000 
    100 CA         0.7997  -19.5067  -54.8692 C.3       18 UNK         0.1400 
    101 CB         2.3078  -19.1873  -54.8223 C.3       18 UNK        -0.1800 
    102 C          0.2626  -19.7127  -56.3021 C.2       18 UNK         0.5000 
    103 O          1.0442  -19.9647  -57.2214 O.2       18 UNK        -0.5000 
    104 N         -1.0603  -19.5746  -56.4681 N.am      19 UNK        -0.5000 
    105 CA        -1.7268  -19.5686  -57.7668 C.3       19 UNK         0.1400 
    106 CB        -1.8544  -18.1218  -58.2738 C.3       19 UNK        -0.1800 
    107 C         -3.0961  -20.2546  -57.7142 C.2       19 UNK         0.5000 
    108 O         -3.3955  -21.0534  -58.6030 O.2       19 UNK        -0.5000 
    109 N         -3.9117  -19.9396  -56.6970 N.am      20 UNK        -0.5000 
    110 CA        -5.2749  -20.4635  -56.5834 C.3       20 UNK         0.1400 
    111 CB        -6.1391  -19.4770  -55.7841 C.3       20 UNK        -0.1800 
    112 C         -5.3356  -21.8782  -55.9797 C.2       20 UNK         0.5000 
    113 O         -6.3475  -22.5572  -56.1609 O.2       20 UNK        -0.5000 
    114 N         -4.2783  -22.2956  -55.2625 N.am      21 UNK        -0.5000 
    115 CA        -4.1007  -23.6153  -54.6350 C.3       21 UNK         0.1400 
    116 CB        -3.8928  -24.6951  -55.7164 C.3       21 UNK        -0.1800 
    117 C         -5.2212  -23.9844  -53.6345 C.2       21 UNK         0.5000 
    118 O         -5.5436  -25.1611  -53.4618 O.2       21 UNK        -0.5000 
    119 N         -5.8146  -22.9532  -53.0207 N.am      22 UNK        -0.5000 
    120 CA        -7.0032  -23.0020  -52.1579 C.3       22 UNK         0.1400 
    121 C         -8.3353  -23.3628  -52.8884 C.2       22 UNK         0.5000 
    122 N         -8.3990  -23.3412  -54.2152 N.am      22 UNK        -0.7600 
    123 O         -9.3448  -23.6363  -52.2448 O.2       22 UNK        -0.5000 
    124 C124       -6.7673  -23.8195  -50.8517 C.3       23 UNK        -0.0398 
    125 S125       -7.1528  -22.8391  -49.3623 S.3       23 UNK        -0.2404 
    126 C126       -5.4721  -22.4934  -48.7688 C.3       23 UNK        -0.0205 
    127 H127        0.5090  -14.2376  -48.6566 H         1 UNK         0.0600 
    128 H128        1.2830  -15.6954  -49.2694 H         1 UNK         0.0600 
    129 H129        0.6668  -15.6719  -47.6255 H         1 UNK         0.0600 
    130 H130       -2.8533  -16.0050  -48.8157 H         1 UNK         0.3000 
    131 H131       -1.2859  -15.4478  -46.4908 H         1 UNK         0.0600 
    132 H132       -3.5464  -14.9138  -45.4724 H         1 UNK         0.0800 
    133 H133       -4.2840  -15.1509  -47.0374 H         1 UNK         0.0800 
    134 H134       -4.8527  -17.5602  -48.0199 H         1 UNK         0.0800 
    135 H135       -5.8447  -17.2181  -46.6149 H         1 UNK         0.0800 
    136 H136       -5.1015  -19.7898  -48.8210 H         1 UNK         0.1150 
    137 H137       -5.8229  -23.0513  -46.1308 H         1 UNK         0.1150 
    138 H138       -5.3722  -19.0727  -44.6045 H         1 UNK         0.1150 
    139 H139       -5.7722  -20.8198  -43.0748 H         1 UNK         0.0800 
    140 H140       -6.6907  -22.1721  -43.6884 H         1 UNK         0.0800 
    141 H141       -2.1797  -21.8749  -42.8921 H         1 UNK         0.0800 
    142 H142       -3.1686  -20.7389  -43.7603 H         1 UNK         0.0800 
    143 H143       -2.9999  -22.2435  -45.8173 H         1 UNK         0.0600 
    144 H144       -0.9511  -20.5228  -44.8486 H         1 UNK         0.3000 
    145 H145        0.9572  -20.5718  -47.8941 H         1 UNK         0.0600 
    146 H146        0.5849  -18.1578  -47.7883 H         1 UNK         0.0600 
    147 H147       -0.9157  -18.9349  -48.2704 H         1 UNK         0.0600 
    148 H148       -0.7213  -18.3555  -46.6206 H         1 UNK         0.0600 
    149 H149        1.3692  -19.0883  -45.5279 H         1 UNK         0.3000 
    150 H150        3.3967  -21.5575  -43.8452 H         1 UNK         0.0600 
    151 H151        4.7827  -20.2615  -45.4710 H         1 UNK         0.0600 
    152 H152        4.8768  -19.5745  -43.8558 H         1 UNK         0.0600 
    153 H153        3.8853  -18.7975  -45.0866 H         1 UNK         0.0600 
    154 H154        2.5429  -18.9846  -42.9964 H         1 UNK         0.3000 
    155 H155       -0.3883  -20.0479  -41.2111 H         1 UNK         0.0600 
    156 H156        2.3243  -18.8449  -40.4392 H         1 UNK         0.0600 
    157 H157        1.6411  -20.3229  -39.7718 H         1 UNK         0.0600 
    158 H158        0.8461  -18.7825  -39.4835 H         1 UNK         0.0600 
    159 H159        0.6238  -17.4439  -41.6422 H         1 UNK         0.3000 
    160 H160       -1.0724  -16.7985  -44.7385 H         1 UNK         0.0600 
    161 H161       -1.4253  -15.7012  -41.9005 H         1 UNK         0.0600 
    162 H162       -2.7111  -16.3453  -42.9150 H         1 UNK         0.0600 
    163 H163       -1.8793  -14.8705  -43.3861 H         1 UNK         0.0600 
    164 H164        0.6414  -15.1373  -43.2185 H         1 UNK         0.3000 
    165 H165        3.7156  -16.1139  -44.7660 H         1 UNK         0.0600 
    166 H166        3.7334  -13.6527  -45.1570 H         1 UNK         0.0600 
    167 H167        2.6556  -14.4574  -46.2865 H         1 UNK         0.0600 
    168 H168        1.9891  -13.5809  -44.9176 H         1 UNK         0.0600 
    169 H169        2.9715  -14.2303  -42.7111 H         1 UNK         0.3000 
    170 H170        3.5219  -16.3943  -39.9386 H         1 UNK         0.0600 
    171 H171        5.7966  -15.6276  -40.6296 H         1 UNK         0.0600 
    172 H172        5.1542  -14.0404  -41.0353 H         1 UNK         0.0600 
    173 H173        5.1359  -14.6043  -39.3642 H         1 UNK         0.0600 
    174 H174        2.8687  -13.6061  -40.1750 H         1 UNK         0.3000 
    175 H175       -0.6821  -14.0373  -40.1269 H         1 UNK         0.0600 
    176 H176        1.2845  -12.9489  -38.0455 H         1 UNK         0.0600 
    177 H177       -0.4421  -12.6000  -38.1382 H         1 UNK         0.0600 
    178 H178        0.1063  -14.2238  -37.7575 H         1 UNK         0.0600 
    179 H179        0.6804  -11.6270  -40.1288 H         1 UNK         0.3000 
    180 H180        0.1994  -10.3344  -42.1205 H         1 UNK         0.0600 
    181 H181        2.9611  -11.3291  -43.0457 H         1 UNK         0.0600 
    182 H182        2.6194  -10.5589  -41.5011 H         1 UNK         0.0600 
    183 H183        2.4494   -9.6427  -42.9879 H         1 UNK         0.0600 
    184 H184        1.2042  -11.1037  -44.7213 H         1 UNK         0.3000 
    185 H185       -1.8155  -10.9606  -46.3611 H         1 UNK         0.0600 
    186 H186        0.5524  -10.1330  -46.7299 H         1 UNK         0.0600 
    187 H187        1.1353  -11.7978  -46.6440 H         1 UNK         0.0600 
    188 H188        0.0556  -11.3012  -47.9378 H         1 UNK         0.0600 
    189 H189       -0.9486  -13.5410  -45.3858 H         1 UNK         0.3000 
    190 H190        0.0708  -22.9140  -44.0697 H         1 UNK         0.3000 
    191 H191       -0.2699  -25.7197  -43.8463 H         1 UNK         0.0600 
    192 H192        2.2887  -24.0364  -43.9442 H         1 UNK         0.0600 
    193 H193        2.1934  -25.7107  -43.4116 H         1 UNK         0.0600 
    194 H194        1.3696  -24.4544  -42.5005 H         1 UNK         0.0600 
    195 H195        1.3054  -23.7534  -46.4016 H         1 UNK         0.3000 
    196 H196        2.0320  -26.0114  -48.0556 H         1 UNK         0.0600 
    197 H197        2.6054  -24.2042  -49.6907 H         1 UNK         0.0600 
    198 H198        3.2632  -23.8537  -48.0990 H         1 UNK         0.0600 
    199 H199        1.8201  -23.0126  -48.6599 H         1 UNK         0.0600 
    200 H200       -0.8779  -24.1853  -47.6490 H         1 UNK         0.3000 
    201 H201       -2.8265  -23.9604  -48.6011 H         1 UNK         0.0600 
    202 H202       -3.0208  -26.4461  -48.4982 H         1 UNK         0.0600 
    203 H203       -2.3145  -26.5807  -50.1086 H         1 UNK         0.0600 
    204 H204       -3.8723  -25.7962  -49.8909 H         1 UNK         0.0600 
    205 H205       -0.9481  -22.3894  -49.5090 H         1 UNK         0.3000 
    206 H206       -0.3324  -22.5994  -52.3123 H         1 UNK         0.0600 
    207 H207        1.2710  -21.6587  -50.6983 H         1 UNK         0.0600 
    208 H208        0.8840  -20.4458  -51.9031 H         1 UNK         0.0600 
    209 H209        0.1719  -20.3420  -50.2995 H         1 UNK         0.0600 
    210 H210       -2.1715  -20.1330  -50.4940 H         1 UNK         0.3000 
    211 H211       -3.5658  -18.4806  -51.0263 H         1 UNK         0.0600 
    212 H212       -4.6622  -20.4705  -53.0680 H         1 UNK         0.0600 
    213 H213       -5.5149  -19.0686  -52.4286 H         1 UNK         0.0600 
    214 H214       -5.1067  -20.4036  -51.3634 H         1 UNK         0.0600 
    215 H215       -1.7586  -17.1979  -51.7160 H         1 UNK         0.3000 
    216 H216       -0.6309  -15.7972  -52.9428 H         1 UNK         0.0600 
    217 H217       -1.5600  -14.7952  -54.9750 H         1 UNK         0.0600 
    218 H218       -2.8650  -15.0372  -53.8265 H         1 UNK         0.0600 
    219 H219       -2.6785  -16.1295  -55.1988 H         1 UNK         0.0600 
    220 H220       -0.5011  -18.8546  -53.3458 H         1 UNK         0.3000 
    221 H221        0.6482  -20.4568  -54.3562 H         1 UNK         0.0600 
    222 H222        2.5470  -18.2784  -55.3751 H         1 UNK         0.0600 
    223 H223        2.6505  -19.0559  -53.7960 H         1 UNK         0.0600 
    224 H224        2.8934  -19.9980  -55.2572 H         1 UNK         0.0600 
    225 H225       -1.6365  -19.3986  -55.6543 H         1 UNK         0.3000 
    226 H226       -1.1292  -20.1294  -58.4889 H         1 UNK         0.0600 
    227 H227       -0.8738  -17.6650  -58.4096 H         1 UNK         0.0600 
    228 H228       -2.3665  -18.0864  -59.2361 H         1 UNK         0.0600 
    229 H229       -2.4167  -17.4997  -57.5762 H         1 UNK         0.0600 
    230 H230       -3.6167  -19.2906  -55.9732 H         1 UNK         0.3000 
    231 H231       -5.7112  -20.5312  -57.5826 H         1 UNK         0.0600 
    232 H232       -6.2059  -18.5157  -56.2935 H         1 UNK         0.0600 
    233 H233       -5.7363  -19.2952  -54.7909 H         1 UNK         0.0600 
    234 H234       -7.1566  -19.8515  -55.6639 H         1 UNK         0.0600 
    235 H235       -3.5110  -21.6494  -55.1213 H         1 UNK         0.3000 
    236 H236       -3.1804  -23.5534  -54.0549 H         1 UNK         0.0600 
    237 H237       -4.7964  -24.8565  -56.3051 H         1 UNK         0.0600 
    238 H238       -3.0914  -24.4173  -56.4009 H         1 UNK         0.0600 
    239 H239       -3.6180  -25.6506  -55.2682 H         1 UNK         0.0600 
    240 H240       -5.4796  -22.0297  -53.2477 H         1 UNK         0.3000 
    241 H241       -7.1487  -21.9565  -51.8848 H         1 UNK         0.0600 
    242 H242       -9.2710  -23.5666  -54.6666 H         1 UNK         0.3800 
    243 H243       -7.5911  -23.1096  -54.7858 H         1 UNK         0.3800 
    244 H244       -5.7336  -24.1612  -50.7845 H         1 UNK         0.0800 
    245 H245       -7.3614  -24.7346  -50.8316 H         1 UNK         0.0800 
    246 H246       -4.8615  -22.1031  -49.5847 H         1 UNK         0.0800 
    247 H247       -5.0177  -23.4338  -48.4578 H         1 UNK         0.0800 
@<TRIPOS>BOND
     1    1    2 1    
     2    1  127 1    
     3    1  128 1    
     4    1  129 1    
     5    2    3 2    
     6    2    4 am   BACKBONE|DICT|INTERRES
     7    4    5 1    
     8    4  130 1    
     9    5    6 1    
    10    5   65 1    
    11    5  131 1    
    12    6    7 1    
    13    6  132 1    
    14    6  133 1    
    15    7    8 1    
    16    8    9 1    
    17    8  134 1    
    18    8  135 1    
    19    9   10 ar   
    20    9   14 ar   
    21   10   11 ar   
    22   10  136 1    
    23   11   12 ar   
    24   11  126 1    
    25   12   13 ar   
    26   12  137 1    
    27   13   14 ar   
    28   13   15 1    
    29   14  138 1    
    30   15   16 1    
    31   15  139 1    
    32   15  140 1    
    33   16   17 1    
    34   17   18 1    
    35   17  141 1    
    36   17  142 1    
    37   18   19 1    
    38   18   67 1    
    39   18  143 1    
    40   19   20 am   BACKBONE|DICT|INTERRES
    41   19  144 1    
    42   20   21 2    
    43   20   22 1    
    44   22   23 1    
    45   22   24 1    
    46   22  145 1    
    47   23  146 1    
    48   23  147 1    
    49   23  148 1    
    50   24   25 am   BACKBONE|DICT|INTERRES
    51   24  149 1    
    52   25   26 2    
    53   25   27 1    
    54   27   28 1    
    55   27   29 1    
    56   27  150 1    
    57   28  151 1    
    58   28  152 1    
    59   28  153 1    
    60   29   30 am   BACKBONE|DICT|INTERRES
    61   29  154 1    
    62   30   31 2    
    63   30   32 1    
    64   32   33 1    
    65   32   34 1    
    66   32  155 1    
    67   33  156 1    
    68   33  157 1    
    69   33  158 1    
    70   34   35 am   BACKBONE|DICT|INTERRES
    71   34  159 1    
    72   35   36 2    
    73   35   37 1    
    74   37   38 1    
    75   37   39 1    
    76   37  160 1    
    77   38  161 1    
    78   38  162 1    
    79   38  163 1    
    80   39   40 am   BACKBONE|DICT|INTERRES
    81   39  164 1    
    82   40   41 2    
    83   40   42 1    
    84   42   43 1    
    85   42   44 1    
    86   42  165 1    
    87   43  166 1    
    88   43  167 1    
    89   43  168 1    
    90   44   45 am   BACKBONE|DICT|INTERRES
    91   44  169 1    
    92   45   46 2    
    93   45   47 1    
    94   47   48 1    
    95   47   49 1    
    96   47  170 1    
    97   48  171 1    
    98   48  172 1    
    99   48  173 1    
   100   49   50 am   BACKBONE|DICT|INTERRES
   101   49  174 1    
   102   50   51 2    
   103   50   52 1    
   104   52   53 1    
   105   52   54 1    
   106   52  175 1    
   107   53  176 1    
   108   53  177 1    
   109   53  178 1    
   110   54   55 am   BACKBONE|DICT|INTERRES
   111   54  179 1    
   112   55   56 2    
   113   55   57 1    
   114   57   58 1    
   115   57   59 1    
   116   57  180 1    
   117   58  181 1    
   118   58  182 1    
   119   58  183 1    
   120   59   60 am   BACKBONE|DICT|INTERRES
   121   59  184 1    
   122   60   61 2    
   123   60   62 1    
   124   62   63 1    
   125   62   64 1    
   126   62  185 1    
   127   63  186 1    
   128   63  187 1    
   129   63  188 1    
   130   64   65 am   BACKBONE|DICT|INTERRES
   131   64  189 1    
   132   65   66 2    
   133   67   68 2    
   134   67   69 am   BACKBONE|DICT|INTERRES
   135   69   70 1    
   136   69  190 1    
   137   70   71 1    
   138   70   72 1    
   139   70  191 1    
   140   71  192 1    
   141   71  193 1    
   142   71  194 1    
   143   72   73 2    
   144   72   74 am   BACKBONE|DICT|INTERRES
   145   74   75 1    
   146   74  195 1    
   147   75   76 1    
   148   75   77 1    
   149   75  196 1    
   150   76  197 1    
   151   76  198 1    
   152   76  199 1    
   153   77   78 2    
   154   77   79 am   BACKBONE|DICT|INTERRES
   155   79   80 1    
   156   79  200 1    
   157   80   81 1    
   158   80   82 1    
   159   80  201 1    
   160   81  202 1    
   161   81  203 1    
   162   81  204 1    
   163   82   83 2    
   164   82   84 am   BACKBONE|DICT|INTERRES
   165   84   85 1    
   166   84  205 1    
   167   85   86 1    
   168   85   87 1    
   169   85  206 1    
   170   86  207 1    
   171   86  208 1    
   172   86  209 1    
   173   87   88 2    
   174   87   89 am   BACKBONE|DICT|INTERRES
   175   89   90 1    
   176   89  210 1    
   177   90   91 1    
   178   90   92 1    
   179   90  211 1    
   180   91  212 1    
   181   91  213 1    
   182   91  214 1    
   183   92   93 2    
   184   92   94 am   BACKBONE|DICT|INTERRES
   185   94   95 1    
   186   94  215 1    
   187   95   96 1    
   188   95   97 1    
   189   95  216 1    
   190   96  217 1    
   191   96  218 1    
   192   96  219 1    
   193   97   98 2    
   194   97   99 am   BACKBONE|DICT|INTERRES
   195   99  100 1    
   196   99  220 1    
   197  100  101 1    
   198  100  102 1    
   199  100  221 1    
   200  101  222 1    
   201  101  223 1    
   202  101  224 1    
   203  102  103 2    
   204  102  104 am   BACKBONE|DICT|INTERRES
   205  104  105 1    
   206  104  225 1    
   207  105  106 1    
   208  105  107 1    
   209  105  226 1    
   210  106  227 1    
   211  106  228 1    
   212  106  229 1    
   213  107  108 2    
   214  107  109 am   BACKBONE|DICT|INTERRES
   215  109  110 1    
   216  109  230 1    
   217  110  111 1    
   218  110  112 1    
   219  110  231 1    
   220  111  232 1    
   221  111  233 1    
   222  111  234 1    
   223  112  113 2    
   224  112  114 am   BACKBONE|DICT|INTERRES
   225  114  115 1    
   226  114  235 1    
   227  115  116 1    
   228  115  117 1    
   229  115  236 1    
   230  116  237 1    
   231  116  238 1    
   232  116  239 1    
   233  117  118 2    
   234  117  119 am   BACKBONE|DICT|INTERRES
   235  119  120 1    
   236  119  240 1    
   237  120  121 1    
   238  120  124 1    
   239  120  241 1    
   240  121  122 am   BACKBONE|DICT|INTERRES
   241  121  123 2    
   242  122  242 1    
   243  122  243 1    
   244  124  125 1    
   245  124  244 1    
   246  124  245 1    
   247  125  126 1    
   248  126  246 1    
   249  126  247 1    
@<TRIPOS>SUBSTRUCTURE
     1 UNK         1 GROUP             0       ****    0 ROOT    
