@<TRIPOS>MOLECULE
3R540
247   249    1
SMALL
USER_CHARGES


@<TRIPOS>ATOM
      1 CA         -0.7879   -9.3510  -49.1478 C.3       0 UNK        -0.1800 
      2 C          -0.5560  -10.2560  -47.9477 C.2       0 UNK         0.5000 
      3 O           0.5385  -10.2586  -47.3855 O.2       0 UNK        -0.5000 
      4 N          -1.5846  -11.0092  -47.5371 N.am      1 UNK        -0.5000 
      5 CA         -1.5583  -12.0006  -46.4490 C.3       1 UNK         0.1400 
      6 C6         -2.8748  -12.8082  -46.3826 C.3       23 UNK        -0.0398 
      7 S7         -3.1632  -13.7889  -47.8943 S.3       23 UNK        -0.2404 
      8 C8         -2.3492  -15.3385  -47.4104 C.3       23 UNK        -0.0205 
      9 C9         -2.6616  -16.4717  -48.3705 C.ar      23 UNK        -0.0193 
     10 C10        -1.8154  -16.7458  -49.4484 C.ar      23 UNK        -0.1150 
     11 C11        -2.0749  -17.8279  -50.2965 C.ar      23 UNK        -0.0193 
     12 C12        -3.1923  -18.6300  -50.0553 C.ar      23 UNK        -0.1150 
     13 C13        -4.0572  -18.3556  -48.9936 C.ar      23 UNK        -0.0193 
     14 C14        -3.7846  -17.2741  -48.1532 C.ar      23 UNK        -0.1150 
     15 C15        -5.2755  -19.2340  -48.7401 C.3       23 UNK        -0.0205 
     16 S16        -4.8446  -20.9772  -48.4293 S.3       23 UNK        -0.2404 
     17 C17        -3.6688  -20.8298  -47.0399 C.3       23 UNK        -0.0398 
     18 CA         -2.9958  -22.1843  -46.7013 C.3       11 UNK         0.1400 
     19 N          -1.5800  -22.0178  -46.3509 N.am      11 UNK        -0.5000 
     20 C          -0.6813  -23.0093  -46.2809 C.2       10 UNK         0.5000 
     21 O          -0.9400  -24.1829  -46.5292 O.2       10 UNK        -0.5000 
     22 CA          0.7341  -22.6483  -45.7974 C.3       10 UNK         0.1400 
     23 CB          1.6125  -22.2020  -46.9749 C.3       10 UNK        -0.1800 
     24 N           0.7308  -21.6319  -44.7433 N.am      10 UNK        -0.5000 
     25 C           0.1411  -21.7906  -43.5487 C.2       9 UNK         0.5000 
     26 O          -0.4124  -22.8340  -43.2007 O.2       9 UNK        -0.5000 
     27 CA          0.1036  -20.5680  -42.6142 C.3       9 UNK         0.1400 
     28 CB          1.4284  -20.4174  -41.8526 C.3       9 UNK        -0.1800 
     29 N          -0.2011  -19.3263  -43.3260 N.am      9 UNK        -0.5000 
     30 C          -1.3546  -19.0706  -43.9613 C.2       8 UNK         0.5000 
     31 O          -2.3190  -19.8361  -43.9680 O.2       8 UNK        -0.5000 
     32 CA         -1.4148  -17.7645  -44.7766 C.3       8 UNK         0.1400 
     33 CB         -1.6499  -16.5520  -43.8599 C.3       8 UNK        -0.1800 
     34 N          -0.2036  -17.5589  -45.5746 N.am      8 UNK        -0.5000 
     35 C           0.2027  -18.3810  -46.5545 C.2       7 UNK         0.5000 
     36 O          -0.4433  -19.3543  -46.9390 O.2       7 UNK        -0.5000 
     37 CA          1.5939  -18.1149  -47.1554 C.3       7 UNK         0.1400 
     38 CB          1.5245  -17.0993  -48.3035 C.3       7 UNK        -0.1800 
     39 N           2.5395  -17.6537  -46.1391 N.am      7 UNK        -0.5000 
     40 C           3.0754  -18.4486  -45.2013 C.2       6 UNK         0.5000 
     41 O           2.8580  -19.6571  -45.1296 O.2       6 UNK        -0.5000 
     42 CA          3.9680  -17.7766  -44.1412 C.3       6 UNK         0.1400 
     43 CB          5.4153  -17.6680  -44.6427 C.3       6 UNK        -0.1800 
     44 N           3.4853  -16.4487  -43.7618 N.am      6 UNK        -0.5000 
     45 C           2.3297  -16.2150  -43.1233 C.2       5 UNK         0.5000 
     46 O           1.5862  -17.1075  -42.7181 O.2       5 UNK        -0.5000 
     47 CA          1.9104  -14.7410  -42.9617 C.3       5 UNK         0.1400 
     48 CB          2.3945  -14.1818  -41.6165 C.3       5 UNK        -0.1800 
     49 N           2.4019  -13.8855  -44.0438 N.am      5 UNK        -0.5000 
     50 C           2.0475  -13.9912  -45.3303 C.2       4 UNK         0.5000 
     51 O           1.2446  -14.8315  -45.7420 O.2       4 UNK        -0.5000 
     52 CA          2.7306  -13.0116  -46.3068 C.3       4 UNK         0.1400 
     53 CB          2.2730  -13.2035  -47.7638 C.3       4 UNK        -0.1800 
     54 N           2.5218  -11.6159  -45.9225 N.am      4 UNK        -0.5000 
     55 C           3.1887  -10.9547  -44.9662 C.2       3 UNK         0.5000 
     56 O           4.0613  -11.4701  -44.2658 O.2       3 UNK        -0.5000 
     57 CA          2.7883   -9.4898  -44.7320 C.3       3 UNK         0.1400 
     58 CB          3.3347   -8.5888  -45.8509 C.3       3 UNK        -0.1800 
     59 N           1.3336   -9.3661  -44.6763 N.am      3 UNK        -0.5000 
     60 C           0.6115   -9.3349  -43.5476 C.2       2 UNK         0.5000 
     61 O           1.1028   -9.3032  -42.4188 O.2       2 UNK        -0.5000 
     62 CA         -0.9236   -9.3585  -43.7020 C.3       2 UNK         0.1400 
     63 CB         -1.4816   -7.9286  -43.7642 C.3       2 UNK        -0.1800 
     64 N          -1.3643  -10.0961  -44.8875 N.am      2 UNK        -0.5000 
     65 C          -1.2154  -11.4175  -45.0597 C.2       1 UNK         0.5000 
     66 O          -0.8009  -12.1716  -44.1796 O.2       1 UNK        -0.5000 
     67 C          -3.8028  -22.9696  -45.6439 C.2       11 UNK         0.5000 
     68 O          -4.8180  -23.5775  -45.9853 O.2       11 UNK        -0.5000 
     69 N          -3.3476  -22.9548  -44.3836 N.am      12 UNK        -0.5000 
     70 CA         -3.8963  -23.7890  -43.3163 C.3       12 UNK         0.1400 
     71 CB         -3.6280  -23.1292  -41.9546 C.3       12 UNK        -0.1800 
     72 C          -3.3162  -25.2146  -43.3674 C.2       12 UNK         0.5000 
     73 O          -4.0489  -26.1759  -43.1310 O.2       12 UNK        -0.5000 
     74 N          -2.0148  -25.3253  -43.6686 N.am      13 UNK        -0.5000 
     75 CA         -1.2767  -26.5864  -43.7324 C.3       13 UNK         0.1400 
     76 CB          0.2306  -26.2902  -43.7040 C.3       13 UNK        -0.1800 
     77 C          -1.6339  -27.4523  -44.9558 C.2       13 UNK         0.5000 
     78 O          -1.7716  -28.6681  -44.8114 O.2       13 UNK        -0.5000 
     79 N          -1.7616  -26.8239  -46.1296 N.am      14 UNK        -0.5000 
     80 CA         -2.0433  -27.4633  -47.4111 C.3       14 UNK         0.1400 
     81 CB         -0.7968  -27.3571  -48.3057 C.3       14 UNK        -0.1800 
     82 C          -3.2344  -26.7710  -48.0841 C.2       14 UNK         0.5000 
     83 O          -3.3676  -25.5486  -47.9946 O.2       14 UNK        -0.5000 
     84 N          -4.0596  -27.5625  -48.7820 N.am      15 UNK        -0.5000 
     85 CA         -5.2288  -27.1059  -49.5343 C.3       15 UNK         0.1400 
     86 CB         -5.9365  -28.3184  -50.1584 C.3       15 UNK        -0.1800 
     87 C          -4.8458  -26.0792  -50.6148 C.2       15 UNK         0.5000 
     88 O          -3.9987  -26.3727  -51.4630 O.2       15 UNK        -0.5000 
     89 N          -5.4400  -24.8801  -50.5255 N.am      16 UNK        -0.5000 
     90 CA         -5.2043  -23.7169  -51.3914 C.3       16 UNK         0.1400 
     91 CB         -5.7269  -24.0155  -52.8127 C.3       16 UNK        -0.1800 
     92 C          -3.7332  -23.2364  -51.3872 C.2       16 UNK         0.5000 
     93 O          -3.2707  -22.6687  -52.3807 O.2       16 UNK        -0.5000 
     94 N          -3.0098  -23.5329  -50.2939 N.am      17 UNK        -0.5000 
     95 CA         -1.5738  -23.3227  -50.0671 C.3       17 UNK         0.1400 
     96 CB         -1.2445  -21.8150  -50.0295 C.3       17 UNK        -0.1800 
     97 C          -0.6600  -24.0832  -51.0513 C.2       17 UNK         0.5000 
     98 O           0.5340  -23.7878  -51.1126 O.2       17 UNK        -0.5000 
     99 N          -1.2384  -25.0125  -51.8317 N.am      18 UNK        -0.5000 
    100 CA        -0.6712  -25.6358  -53.0325 C.3       18 UNK         0.1400 
    101 CB         0.4702  -26.6031  -52.6570 C.3       18 UNK        -0.1800 
    102 C         -0.2601  -24.5987  -54.1078 C.2       18 UNK         0.5000 
    103 O          0.6640  -24.8511  -54.8832 O.2       18 UNK        -0.5000 
    104 N         -0.9401  -23.4423  -54.1219 N.am      19 UNK        -0.5000 
    105 CA        -0.5815  -22.2594  -54.9040 C.3       19 UNK         0.1400 
    106 CB         0.3182  -21.3442  -54.0507 C.3       19 UNK        -0.1800 
    107 C         -1.8361  -21.5356  -55.4230 C.2       19 UNK         0.5000 
    108 O         -1.8342  -20.3081  -55.5347 O.2       19 UNK        -0.5000 
    109 N         -2.8974  -22.3067  -55.7104 N.am      20 UNK        -0.5000 
    110 CA        -4.1863  -21.8695  -56.2681 C.3       20 UNK         0.1400 
    111 CB        -4.0145  -21.4714  -57.7485 C.3       20 UNK        -0.1800 
    112 C         -4.8818  -20.7687  -55.4364 C.2       20 UNK         0.5000 
    113 O         -5.5122  -19.8686  -55.9962 O.2       20 UNK        -0.5000 
    114 N         -4.7081  -20.8392  -54.1080 N.am      21 UNK        -0.5000 
    115 CA        -5.1962  -19.9012  -53.0936 C.3       21 UNK         0.1400 
    116 CB        -6.7350  -19.9491  -53.0000 C.3       21 UNK        -0.1800 
    117 C         -4.6490  -18.4676  -53.2720 C.2       21 UNK         0.5000 
    118 O         -5.2859  -17.5151  -52.8201 O.2       21 UNK        -0.5000 
    119 N         -3.4920  -18.3408  -53.9425 N.am      22 UNK        -0.5000 
    120 CA        -2.8678  -17.0760  -54.3631 C.3       22 UNK         0.1400 
    121 C         -3.7103  -16.2720  -55.4064 C.2       22 UNK         0.5000 
    122 N         -4.6643  -16.8820  -56.1033 N.am      22 UNK        -0.7600 
    123 O         -3.4759  -15.0864  -55.6248 O.2       22 UNK        -0.5000 
    124 C124       -2.3668  -16.2240  -53.1564 C.3       23 UNK        -0.0398 
    125 S125       -0.7366  -16.7656  -52.5332 S.3       23 UNK        -0.2404 
    126 C126       -1.1388  -18.1748  -51.4482 C.3       23 UNK        -0.0205 
    127 H127       -0.6207   -8.3105  -48.8699 H         1 UNK         0.0600 
    128 H128       -0.0935   -9.6072  -49.9478 H         1 UNK         0.0600 
    129 H129       -1.8030   -9.4425  -49.5349 H         1 UNK         0.0600 
    130 H130       -2.4557  -10.9607  -48.0468 H         1 UNK         0.3000 
    131 H131       -0.7536  -12.7011  -46.6774 H         1 UNK         0.0600 
    132 H132       -2.8816  -13.4793  -45.5214 H         1 UNK         0.0800 
    133 H133       -3.7243  -12.1377  -46.2421 H         1 UNK         0.0800 
    134 H134       -2.6898  -15.6200  -46.4153 H         1 UNK         0.0800 
    135 H135       -1.2712  -15.1835  -47.3385 H         1 UNK         0.0800 
    136 H136       -0.9489  -16.1238  -49.6203 H         1 UNK         0.1150 
    137 H137       -3.3781  -19.4879  -50.6813 H         1 UNK         0.1150 
    138 H138       -4.4394  -17.0613  -47.3200 H         1 UNK         0.1150 
    139 H139       -5.8532  -18.8607  -47.8932 H         1 UNK         0.0800 
    140 H140       -5.9341  -19.1823  -49.6080 H         1 UNK         0.0800 
    141 H141       -4.1673  -20.3877  -46.1750 H         1 UNK         0.0800 
    142 H142       -2.9092  -20.1079  -47.3377 H         1 UNK         0.0800 
    143 H143       -3.0042  -22.8046  -47.5972 H         1 UNK         0.0600 
    144 H144       -1.2617  -21.0677  -46.1895 H         1 UNK         0.3000 
    145 H145        1.1797  -23.5506  -45.3750 H         1 UNK         0.0600 
    146 H146        2.6284  -21.9780  -46.6499 H         1 UNK         0.0600 
    147 H147        1.6777  -22.9879  -47.7286 H         1 UNK         0.0600 
    148 H148        1.2121  -21.3171  -47.4668 H         1 UNK         0.0600 
    149 H149        1.2264  -20.7679  -44.9390 H         1 UNK         0.3000 
    150 H150       -0.6904  -20.7352  -41.8835 H         1 UNK         0.0600 
    151 H151        1.6578  -21.3212  -41.2868 H         1 UNK         0.0600 
    152 H152        1.3828  -19.5912  -41.1429 H         1 UNK         0.0600 
    153 H153        2.2639  -20.2315  -42.5273 H         1 UNK         0.0600 
    154 H154        0.5199  -18.6103  -43.3204 H         1 UNK         0.3000 
    155 H155       -2.2551  -17.8413  -45.4695 H         1 UNK         0.0600 
    156 H156       -0.9443  -16.5244  -43.0305 H         1 UNK         0.0600 
    157 H157       -2.6510  -16.5856  -43.4288 H         1 UNK         0.0600 
    158 H158       -1.5559  -15.6094  -44.3986 H         1 UNK         0.0600 
    159 H159        0.3718  -16.7566  -45.3481 H         1 UNK         0.3000 
    160 H160        1.9698  -19.0532  -47.5676 H         1 UNK         0.0600 
    161 H161        2.5184  -16.8479  -48.6736 H         1 UNK         0.0600 
    162 H162        1.0316  -16.1753  -48.0024 H         1 UNK         0.0600 
    163 H163        0.9650  -17.5121  -49.1421 H         1 UNK         0.0600 
    164 H164        2.7102  -16.6596  -46.0977 H         1 UNK         0.3000 
    165 H165        3.9607  -18.4081  -43.2503 H         1 UNK         0.0600 
    166 H166        6.0700  -17.2602  -43.8723 H         1 UNK         0.0600 
    167 H167        5.8077  -18.6487  -44.9152 H         1 UNK         0.0600 
    168 H168        5.4915  -17.0278  -45.5225 H         1 UNK         0.0600 
    169 H169        4.0426  -15.6583  -44.0499 H         1 UNK         0.3000 
    170 H170        0.8193  -14.7028  -42.9769 H         1 UNK         0.0600 
    171 H171        2.0238  -14.7852  -40.7867 H         1 UNK         0.0600 
    172 H172        3.4833  -14.1684  -41.5540 H         1 UNK         0.0600 
    173 H173        2.0365  -13.1635  -41.4629 H         1 UNK         0.0600 
    174 H174        3.0588  -13.1530  -43.7954 H         1 UNK         0.3000 
    175 H175        3.8013  -13.2233  -46.2729 H         1 UNK         0.0600 
    176 H176        1.1997  -13.0554  -47.8784 H         1 UNK         0.0600 
    177 H177        2.7776  -12.5036  -48.4300 H         1 UNK         0.0600 
    178 H178        2.5064  -14.2081  -48.1168 H         1 UNK         0.0600 
    179 H179        1.8077  -11.1160  -46.4483 H         1 UNK         0.3000 
    180 H180        3.2341   -9.1631  -43.7901 H         1 UNK         0.0600 
    181 H181        2.9260   -8.8566  -46.8261 H         1 UNK         0.0600 
    182 H182        4.4207   -8.6649  -45.9173 H         1 UNK         0.0600 
    183 H183        3.0928   -7.5424  -45.6643 H         1 UNK         0.0600 
    184 H184        0.8475   -9.4404  -45.5629 H         1 UNK         0.3000 
    185 H185       -1.3388   -9.8510  -42.8202 H         1 UNK         0.0600 
    186 H186       -1.1904   -7.3575  -42.8816 H         1 UNK         0.0600 
    187 H187       -1.1146   -7.3905  -44.6392 H         1 UNK         0.0600 
    188 H188       -2.5711   -7.9313  -43.8031 H         1 UNK         0.0600 
    189 H189       -1.7186   -9.5504  -45.6593 H         1 UNK         0.3000 
    190 H190       -2.5169  -22.4186  -44.1691 H         1 UNK         0.3000 
    191 H191       -4.9792  -23.8621  -43.4383 H         1 UNK         0.0600 
    192 H192       -2.5629  -23.0595  -41.7354 H         1 UNK         0.0600 
    193 H193       -4.0888  -23.7026  -41.1494 H         1 UNK         0.0600 
    194 H194       -4.0434  -22.1220  -41.9165 H         1 UNK         0.0600 
    195 H195       -1.4757  -24.4768  -43.8005 H         1 UNK         0.3000 
    196 H196       -1.5203  -27.1622  -42.8370 H         1 UNK         0.0600 
    197 H197        0.5451  -25.7252  -44.5814 H         1 UNK         0.0600 
    198 H198        0.8094  -27.2145  -43.6850 H         1 UNK         0.0600 
    199 H199        0.5046  -25.7153  -42.8191 H         1 UNK         0.0600 
    200 H200       -1.6415  -25.8122  -46.1750 H         1 UNK         0.3000 
    201 H201       -2.2882  -28.5179  -47.2698 H         1 UNK         0.0600 
    202 H202       -0.9729  -27.8115  -49.2816 H         1 UNK         0.0600 
    203 H203        0.0546  -27.8679  -47.8561 H         1 UNK         0.0600 
    204 H204       -0.5115  -26.3176  -48.4746 H         1 UNK         0.0600 
    205 H205       -3.8556  -28.5495  -48.8383 H         1 UNK         0.3000 
    206 H206       -5.9150  -26.6382  -48.8251 H         1 UNK         0.0600 
    207 H207       -6.2641  -29.0224  -49.3931 H         1 UNK         0.0600 
    208 H208       -6.8222  -28.0089  -50.7147 H         1 UNK         0.0600 
    209 H209       -5.2847  -28.8530  -50.8506 H         1 UNK         0.0600 
    210 H210       -6.0908  -24.7269  -49.7673 H         1 UNK         0.3000 
    211 H211       -5.7959  -22.8977  -50.9802 H         1 UNK         0.0600 
    212 H212       -5.0817  -24.7159  -53.3441 H         1 UNK         0.0600 
    213 H213       -5.7911  -23.1114  -53.4124 H         1 UNK         0.0600 
    214 H214       -6.7291  -24.4430  -52.7824 H         1 UNK         0.0600 
    215 H215       -3.4729  -24.0540  -49.5566 H         1 UNK         0.3000 
    216 H216       -1.3582  -23.7422  -49.0862 H         1 UNK         0.0600 
    217 H217       -1.3710  -21.3491  -51.0064 H         1 UNK         0.0600 
    218 H218       -0.2142  -21.6436  -49.7166 H         1 UNK         0.0600 
    219 H219       -1.8812  -21.2844  -49.3242 H         1 UNK         0.0600 
    220 H220       -2.2177  -25.2205  -51.6681 H         1 UNK         0.3000 
    221 H221       -1.4746  -26.2273  -53.4735 H         1 UNK         0.0600 
    222 H222        1.3423  -26.0726  -52.2741 H         1 UNK         0.0600 
    223 H223        0.1489  -27.3138  -51.8954 H         1 UNK         0.0600 
    224 H224        0.7939  -27.1812  -53.5230 H         1 UNK         0.0600 
    225 H225       -1.6973  -23.3100  -53.4572 H         1 UNK         0.3000 
    226 H226       -0.0218  -22.5599  -55.7917 H         1 UNK         0.0600 
    227 H227        1.2072  -21.8734  -53.7070 H         1 UNK         0.0600 
    228 H228        0.6576  -20.4785  -54.6207 H         1 UNK         0.0600 
    229 H229       -0.2098  -20.9745  -53.1713 H         1 UNK         0.0600 
    230 H230       -2.8015  -23.3007  -55.5576 H         1 UNK         0.3000 
    231 H231       -4.8478  -22.7362  -56.2322 H         1 UNK         0.0600 
    232 H232       -3.5443  -22.2716  -58.3200 H         1 UNK         0.0600 
    233 H233       -3.4003  -20.5766  -57.8565 H         1 UNK         0.0600 
    234 H234       -4.9786  -21.2656  -58.2151 H         1 UNK         0.0600 
    235 H235       -4.1252  -21.5879  -53.7437 H         1 UNK         0.3000 
    236 H236       -4.8090  -20.2659  -52.1437 H         1 UNK         0.0600 
    237 H237       -7.0932  -19.3704  -52.1479 H         1 UNK         0.0600 
    238 H238       -7.2080  -19.5410  -53.8937 H         1 UNK         0.0600 
    239 H239       -7.0915  -20.9704  -52.8674 H         1 UNK         0.0600 
    240 H240       -3.0542  -19.1742  -54.3204 H         1 UNK         0.3000 
    241 H241       -1.9900  -17.3733  -54.9379 H         1 UNK         0.0600 
    242 H242       -4.8726  -17.8638  -55.9604 H         1 UNK         0.3800 
    243 H243       -5.1906  -16.3565  -56.7830 H         1 UNK         0.3800 
    244 H244       -2.2307  -15.1803  -53.4410 H         1 UNK         0.0800 
    245 H245       -3.0911  -16.2026  -52.3424 H         1 UNK         0.0800 
    246 H246       -1.5566  -18.9745  -52.0605 H         1 UNK         0.0800 
    247 H247       -0.2118  -18.5706  -51.0323 H         1 UNK         0.0800 
@<TRIPOS>BOND
     1    1    2 1    
     2    1  127 1    
     3    1  128 1    
     4    1  129 1    
     5    2    3 2    
     6    2    4 am   BACKBONE|DICT|INTERRES
     7    4    5 1    
     8    4  130 1    
     9    5    6 1    
    10    5   65 1    
    11    5  131 1    
    12    6    7 1    
    13    6  132 1    
    14    6  133 1    
    15    7    8 1    
    16    8    9 1    
    17    8  134 1    
    18    8  135 1    
    19    9   10 ar   
    20    9   14 ar   
    21   10   11 ar   
    22   10  136 1    
    23   11   12 ar   
    24   11  126 1    
    25   12   13 ar   
    26   12  137 1    
    27   13   14 ar   
    28   13   15 1    
    29   14  138 1    
    30   15   16 1    
    31   15  139 1    
    32   15  140 1    
    33   16   17 1    
    34   17   18 1    
    35   17  141 1    
    36   17  142 1    
    37   18   19 1    
    38   18   67 1    
    39   18  143 1    
    40   19   20 am   BACKBONE|DICT|INTERRES
    41   19  144 1    
    42   20   21 2    
    43   20   22 1    
    44   22   23 1    
    45   22   24 1    
    46   22  145 1    
    47   23  146 1    
    48   23  147 1    
    49   23  148 1    
    50   24   25 am   BACKBONE|DICT|INTERRES
    51   24  149 1    
    52   25   26 2    
    53   25   27 1    
    54   27   28 1    
    55   27   29 1    
    56   27  150 1    
    57   28  151 1    
    58   28  152 1    
    59   28  153 1    
    60   29   30 am   BACKBONE|DICT|INTERRES
    61   29  154 1    
    62   30   31 2    
    63   30   32 1    
    64   32   33 1    
    65   32   34 1    
    66   32  155 1    
    67   33  156 1    
    68   33  157 1    
    69   33  158 1    
    70   34   35 am   BACKBONE|DICT|INTERRES
    71   34  159 1    
    72   35   36 2    
    73   35   37 1    
    74   37   38 1    
    75   37   39 1    
    76   37  160 1    
    77   38  161 1    
    78   38  162 1    
    79   38  163 1    
    80   39   40 am   BACKBONE|DICT|INTERRES
    81   39  164 1    
    82   40   41 2    
    83   40   42 1    
    84   42   43 1    
    85   42   44 1    
    86   42  165 1    
    87   43  166 1    
    88   43  167 1    
    89   43  168 1    
    90   44   45 am   BACKBONE|DICT|INTERRES
    91   44  169 1    
    92   45   46 2    
    93   45   47 1    
    94   47   48 1    
    95   47   49 1    
    96   47  170 1    
    97   48  171 1    
    98   48  172 1    
    99   48  173 1    
   100   49   50 am   BACKBONE|DICT|INTERRES
   101   49  174 1    
   102   50   51 2    
   103   50   52 1    
   104   52   53 1    
   105   52   54 1    
   106   52  175 1    
   107   53  176 1    
   108   53  177 1    
   109   53  178 1    
   110   54   55 am   BACKBONE|DICT|INTERRES
   111   54  179 1    
   112   55   56 2    
   113   55   57 1    
   114   57   58 1    
   115   57   59 1    
   116   57  180 1    
   117   58  181 1    
   118   58  182 1    
   119   58  183 1    
   120   59   60 am   BACKBONE|DICT|INTERRES
   121   59  184 1    
   122   60   61 2    
   123   60   62 1    
   124   62   63 1    
   125   62   64 1    
   126   62  185 1    
   127   63  186 1    
   128   63  187 1    
   129   63  188 1    
   130   64   65 am   BACKBONE|DICT|INTERRES
   131   64  189 1    
   132   65   66 2    
   133   67   68 2    
   134   67   69 am   BACKBONE|DICT|INTERRES
   135   69   70 1    
   136   69  190 1    
   137   70   71 1    
   138   70   72 1    
   139   70  191 1    
   140   71  192 1    
   141   71  193 1    
   142   71  194 1    
   143   72   73 2    
   144   72   74 am   BACKBONE|DICT|INTERRES
   145   74   75 1    
   146   74  195 1    
   147   75   76 1    
   148   75   77 1    
   149   75  196 1    
   150   76  197 1    
   151   76  198 1    
   152   76  199 1    
   153   77   78 2    
   154   77   79 am   BACKBONE|DICT|INTERRES
   155   79   80 1    
   156   79  200 1    
   157   80   81 1    
   158   80   82 1    
   159   80  201 1    
   160   81  202 1    
   161   81  203 1    
   162   81  204 1    
   163   82   83 2    
   164   82   84 am   BACKBONE|DICT|INTERRES
   165   84   85 1    
   166   84  205 1    
   167   85   86 1    
   168   85   87 1    
   169   85  206 1    
   170   86  207 1    
   171   86  208 1    
   172   86  209 1    
   173   87   88 2    
   174   87   89 am   BACKBONE|DICT|INTERRES
   175   89   90 1    
   176   89  210 1    
   177   90   91 1    
   178   90   92 1    
   179   90  211 1    
   180   91  212 1    
   181   91  213 1    
   182   91  214 1    
   183   92   93 2    
   184   92   94 am   BACKBONE|DICT|INTERRES
   185   94   95 1    
   186   94  215 1    
   187   95   96 1    
   188   95   97 1    
   189   95  216 1    
   190   96  217 1    
   191   96  218 1    
   192   96  219 1    
   193   97   98 2    
   194   97   99 am   BACKBONE|DICT|INTERRES
   195   99  100 1    
   196   99  220 1    
   197  100  101 1    
   198  100  102 1    
   199  100  221 1    
   200  101  222 1    
   201  101  223 1    
   202  101  224 1    
   203  102  103 2    
   204  102  104 am   BACKBONE|DICT|INTERRES
   205  104  105 1    
   206  104  225 1    
   207  105  106 1    
   208  105  107 1    
   209  105  226 1    
   210  106  227 1    
   211  106  228 1    
   212  106  229 1    
   213  107  108 2    
   214  107  109 am   BACKBONE|DICT|INTERRES
   215  109  110 1    
   216  109  230 1    
   217  110  111 1    
   218  110  112 1    
   219  110  231 1    
   220  111  232 1    
   221  111  233 1    
   222  111  234 1    
   223  112  113 2    
   224  112  114 am   BACKBONE|DICT|INTERRES
   225  114  115 1    
   226  114  235 1    
   227  115  116 1    
   228  115  117 1    
   229  115  236 1    
   230  116  237 1    
   231  116  238 1    
   232  116  239 1    
   233  117  118 2    
   234  117  119 am   BACKBONE|DICT|INTERRES
   235  119  120 1    
   236  119  240 1    
   237  120  121 1    
   238  120  124 1    
   239  120  241 1    
   240  121  122 am   BACKBONE|DICT|INTERRES
   241  121  123 2    
   242  122  242 1    
   243  122  243 1    
   244  124  125 1    
   245  124  244 1    
   246  124  245 1    
   247  125  126 1    
   248  126  246 1    
   249  126  247 1    
@<TRIPOS>SUBSTRUCTURE
     1 UNK         1 GROUP             0       ****    0 ROOT    
