@<TRIPOS>MOLECULE
3R540
247   249    1
SMALL
USER_CHARGES


@<TRIPOS>ATOM
      1 CA          2.8996  -14.9829  -53.6189 C.3       0 UNK        -0.1800 
      2 C           3.3024  -14.0562  -52.4814 C.2       0 UNK         0.5000 
      3 O           4.4711  -13.6834  -52.3777 O.2       0 UNK        -0.5000 
      4 N           2.3436  -13.6875  -51.6299 N.am      1 UNK        -0.5000 
      5 CA          2.5050  -12.8040  -50.4762 C.3       1 UNK         0.1400 
      6 C6          3.3391  -13.4311  -49.3185 C.3       23 UNK        -0.0398 
      7 S7          2.6113  -14.9249  -48.5566 S.3       23 UNK        -0.2404 
      8 C8          3.5290  -16.2614  -49.3871 C.3       23 UNK        -0.0205 
      9 C9          2.6334  -17.4468  -49.7179 C.ar      23 UNK        -0.0193 
     10 C10         1.5231  -17.2702  -50.5491 C.ar      23 UNK        -0.1150 
     11 C11         0.7120  -18.3525  -50.8984 C.ar      23 UNK        -0.0193 
     12 C12         1.0219  -19.6229  -50.4127 C.ar      23 UNK        -0.1150 
     13 C13         2.1336  -19.8190  -49.5898 C.ar      23 UNK        -0.0193 
     14 C14         2.9323  -18.7261  -49.2359 C.ar      23 UNK        -0.1150 
     15 C15         2.4727  -21.2234  -49.1195 C.3       23 UNK        -0.0205 
     16 S16         1.2742  -21.8095  -47.8886 S.3       23 UNK        -0.2404 
     17 C17         1.4495  -23.6178  -48.0785 C.3       23 UNK        -0.0398 
     18 CA          0.8833  -24.4250  -46.8854 C.3       11 UNK         0.1400 
     19 N           1.5381  -24.0585  -45.6270 N.am      11 UNK        -0.5000 
     20 C           1.3470  -24.6465  -44.4394 C.2       10 UNK         0.5000 
     21 O           0.6209  -25.6268  -44.2740 O.2       10 UNK        -0.5000 
     22 CA          2.0578  -24.0151  -43.2260 C.3       10 UNK         0.1400 
     23 CB          3.3055  -24.8306  -42.8541 C.3       10 UNK        -0.1800 
     24 N           2.4439  -22.6091  -43.4021 N.am      10 UNK        -0.5000 
     25 C           1.5956  -21.5920  -43.6085 C.2       9 UNK         0.5000 
     26 O           0.3838  -21.7394  -43.7821 O.2       9 UNK        -0.5000 
     27 CA          2.2234  -20.1848  -43.6529 C.3       9 UNK         0.1400 
     28 CB          2.5894  -19.7905  -45.0920 C.3       9 UNK        -0.1800 
     29 N           1.3365  -19.1682  -43.0921 N.am      9 UNK        -0.5000 
     30 C           0.9482  -19.1054  -41.8115 C.2       8 UNK         0.5000 
     31 O           1.3661  -19.8605  -40.9319 O.2       8 UNK        -0.5000 
     32 CA         -0.0727  -18.0131  -41.4428 C.3       8 UNK         0.1400 
     33 CB          0.6438  -16.7482  -40.9458 C.3       8 UNK        -0.1800 
     34 N          -0.9658  -17.6664  -42.5500 N.am      8 UNK        -0.5000 
     35 C          -1.9685  -18.4443  -42.9830 C.2       7 UNK         0.5000 
     36 O          -2.2729  -19.5171  -42.4616 O.2       7 UNK        -0.5000 
     37 CA         -2.7898  -17.9284  -44.1797 C.3       7 UNK         0.1400 
     38 CB         -3.9354  -17.0364  -43.6754 C.3       7 UNK        -0.1800 
     39 N          -1.9850  -17.1888  -45.1539 N.am      7 UNK        -0.5000 
     40 C          -1.0589  -17.7395  -45.9539 C.2       6 UNK         0.5000 
     41 O          -0.8439  -18.9474  -46.0101 O.2       6 UNK        -0.5000 
     42 CA         -0.1972  -16.7791  -46.7977 C.3       6 UNK         0.1400 
     43 CB         -0.8955  -16.4031  -48.1114 C.3       6 UNK        -0.1800 
     44 N           0.1449  -15.5564  -46.0753 N.am      6 UNK        -0.5000 
     45 C           0.9058  -15.5034  -44.9753 C.2       5 UNK         0.5000 
     46 O           1.4262  -16.4878  -44.4520 O.2       5 UNK        -0.5000 
     47 CA          1.0618  -14.1221  -44.3191 C.3       5 UNK         0.1400 
     48 CB          2.1486  -13.2927  -45.0214 C.3       5 UNK        -0.1800 
     49 N          -0.2017  -13.3841  -44.3182 N.am      5 UNK        -0.5000 
     50 C          -1.2397  -13.6680  -43.5193 C.2       4 UNK         0.5000 
     51 O          -1.2226  -14.5592  -42.6713 O.2       4 UNK        -0.5000 
     52 CA         -2.5221  -12.8378  -43.7199 C.3       4 UNK         0.1400 
     53 CB         -2.4359  -11.5138  -42.9462 C.3       4 UNK        -0.1800 
     54 N          -2.8053  -12.5576  -45.1282 N.am      4 UNK        -0.5000 
     55 C          -3.1436  -13.4906  -46.0289 C.2       3 UNK         0.5000 
     56 O          -3.2873  -14.6801  -45.7559 O.2       3 UNK        -0.5000 
     57 CA         -3.2946  -13.0285  -47.4900 C.3       3 UNK         0.1400 
     58 CB         -4.7318  -12.5648  -47.7669 C.3       3 UNK        -0.1800 
     59 N          -2.3519  -11.9798  -47.8949 N.am      3 UNK        -0.5000 
     60 C          -1.0188  -12.0903  -47.8266 C.2       2 UNK         0.5000 
     61 O          -0.4375  -13.0335  -47.2879 O.2       2 UNK        -0.5000 
     62 CA         -0.1917  -10.9438  -48.4368 C.3       2 UNK         0.1400 
     63 CB          0.1578   -9.9109  -47.3546 C.3       2 UNK        -0.1800 
     64 N           1.0485  -11.4298  -49.0479 N.am      2 UNK        -0.5000 
     65 C           1.1041  -12.3237  -50.0454 C.2       1 UNK         0.5000 
     66 O           0.1017  -12.7573  -50.6239 O.2       1 UNK        -0.5000 
     67 C          -0.6587  -24.3363  -46.8245 C.2       11 UNK         0.5000 
     68 O          -1.3291  -25.1215  -47.4934 O.2       11 UNK        -0.5000 
     69 N          -1.1932  -23.4255  -45.9950 N.am      12 UNK        -0.5000 
     70 CA         -2.6276  -23.1969  -45.8109 C.3       12 UNK         0.1400 
     71 CB         -2.8385  -21.8532  -45.0992 C.3       12 UNK        -0.1800 
     72 C          -3.3705  -24.3356  -45.0840 C.2       12 UNK         0.5000 
     73 O          -4.6017  -24.3244  -45.0560 O.2       12 UNK        -0.5000 
     74 N          -2.6329  -25.3124  -44.5351 N.am      13 UNK        -0.5000 
     75 CA         -3.1813  -26.5740  -44.0322 C.3       13 UNK         0.1400 
     76 CB         -2.1232  -27.2658  -43.1594 C.3       13 UNK        -0.1800 
     77 C          -3.6493  -27.5160  -45.1640 C.2       13 UNK         0.5000 
     78 O          -4.4020  -28.4529  -44.8938 O.2       13 UNK        -0.5000 
     79 N          -3.2000  -27.2566  -46.3981 N.am      14 UNK        -0.5000 
     80 CA         -3.5754  -27.9558  -47.6207 C.3       14 UNK         0.1400 
     81 CB         -2.3083  -28.6119  -48.2005 C.3       14 UNK        -0.1800 
     82 C          -4.1914  -26.9574  -48.6190 C.2       14 UNK         0.5000 
     83 O          -4.3011  -25.7641  -48.3302 O.2       14 UNK        -0.5000 
     84 N          -4.5635  -27.4632  -49.8010 N.am      15 UNK        -0.5000 
     85 CA         -5.0580  -26.6714  -50.9329 C.3       15 UNK         0.1400 
     86 CB         -5.9430  -27.5734  -51.8092 C.3       15 UNK        -0.1800 
     87 C          -3.9275  -26.0308  -51.7701 C.2       15 UNK         0.5000 
     88 O          -4.2193  -25.3827  -52.7771 O.2       15 UNK        -0.5000 
     89 N          -2.6659  -26.2398  -51.3625 N.am      16 UNK        -0.5000 
     90 CA         -1.4397  -25.7540  -51.9968 C.3       16 UNK         0.1400 
     91 CB         -0.2404  -26.1451  -51.1188 C.3       16 UNK        -0.1800 
     92 C          -1.4639  -24.2349  -52.2443 C.2       16 UNK         0.5000 
     93 O          -1.6267  -23.4666  -51.2945 O.2       16 UNK        -0.5000 
     94 N          -1.3558  -23.8475  -53.5242 N.am      17 UNK        -0.5000 
     95 CA         -1.4240  -22.4749  -54.0461 C.3       17 UNK         0.1400 
     96 CB         -0.1669  -21.6835  -53.6343 C.3       17 UNK        -0.1800 
     97 C          -2.7359  -21.7350  -53.6945 C.2       17 UNK         0.5000 
     98 O          -2.7417  -20.5076  -53.6044 O.2       17 UNK        -0.5000 
     99 N          -3.8212  -22.4992  -53.4904 N.am      18 UNK        -0.5000 
    100 CA        -5.1364  -22.0556  -53.0185 C.3       18 UNK         0.1400 
    101 CB        -5.8255  -21.1491  -54.0598 C.3       18 UNK        -0.1800 
    102 C         -5.0975  -21.4508  -51.5968 C.2       18 UNK         0.5000 
    103 O         -5.9076  -20.5790  -51.2746 O.2       18 UNK        -0.5000 
    104 N         -4.1657  -21.9439  -50.7651 N.am      19 UNK        -0.5000 
    105 CA        -3.9298  -21.5617  -49.3735 C.3       19 UNK         0.1400 
    106 CB        -5.1014  -22.0320  -48.4793 C.3       19 UNK        -0.1800 
    107 C         -3.5986  -20.0612  -49.2492 C.2       19 UNK         0.5000 
    108 O         -2.5573  -19.6314  -49.7416 O.2       19 UNK        -0.5000 
    109 N         -4.4824  -19.2911  -48.6038 N.am      20 UNK        -0.5000 
    110 CA        -4.3155  -17.8595  -48.3661 C.3       20 UNK         0.1400 
    111 CB        -5.2984  -17.4315  -47.2676 C.3       20 UNK        -0.1800 
    112 C         -4.5110  -16.9837  -49.6200 C.2       20 UNK         0.5000 
    113 O         -4.0370  -15.8473  -49.6375 O.2       20 UNK        -0.5000 
    114 N         -5.2364  -17.4980  -50.6245 N.am      21 UNK        -0.5000 
    115 CA        -5.7839  -16.7183  -51.7387 C.3       21 UNK         0.1400 
    116 CB        -6.7142  -17.6103  -52.5721 C.3       21 UNK        -0.1800 
    117 C         -4.7462  -16.0291  -52.6449 C.2       21 UNK         0.5000 
    118 O         -5.0600  -14.9813  -53.2122 O.2       21 UNK        -0.5000 
    119 N         -3.5470  -16.6124  -52.7731 N.am      22 UNK        -0.5000 
    120 CA        -2.4443  -16.0496  -53.5729 C.3       22 UNK         0.1400 
    121 C         -1.6388  -14.9125  -52.8703 C.2       22 UNK         0.5000 
    122 N         -1.8680  -14.6117  -51.5967 N.am      22 UNK        -0.7600 
    123 O         -0.7976  -14.2796  -53.5022 O.2       22 UNK        -0.5000 
    124 C124       -1.5796  -17.1696  -54.2316 C.3       23 UNK        -0.0398 
    125 S125        0.0150  -17.6200  -53.4587 S.3       23 UNK        -0.2404 
    126 C126       -0.4961  -18.1435  -51.7956 C.3       23 UNK        -0.0205 
    127 H127        3.3649  -15.9602  -53.4893 H         1 UNK         0.0600 
    128 H128        3.2221  -14.5713  -54.5752 H         1 UNK         0.0600 
    129 H129        1.8196  -15.1247  -53.6585 H         1 UNK         0.0600 
    130 H130        1.3800  -13.9630  -51.7866 H         1 UNK         0.3000 
    131 H131        3.0322  -11.9140  -50.8255 H         1 UNK         0.0600 
    132 H132        4.3465  -13.6607  -49.6665 H         1 UNK         0.0800 
    133 H133        3.4835  -12.6983  -48.5239 H         1 UNK         0.0800 
    134 H134        3.9708  -15.9013  -50.3157 H         1 UNK         0.0800 
    135 H135        4.3599  -16.5639  -48.7484 H         1 UNK         0.0800 
    136 H136        1.2874  -16.2857  -50.9277 H         1 UNK         0.1150 
    137 H137        0.3935  -20.4641  -50.6656 H         1 UNK         0.1150 
    138 H138        3.7946  -18.8750  -48.6015 H         1 UNK         0.1150 
    139 H139        2.4718  -21.8913  -49.9823 H         1 UNK         0.0800 
    140 H140        3.4764  -21.2637  -48.6939 H         1 UNK         0.0800 
    141 H141        0.9675  -23.9176  -49.0108 H         1 UNK         0.0800 
    142 H142        2.5075  -23.8536  -48.2014 H         1 UNK         0.0800 
    143 H143        1.1207  -25.4760  -47.0631 H         1 UNK         0.0600 
    144 H144        2.1277  -23.2402  -45.6600 H         1 UNK         0.3000 
    145 H145        1.3586  -24.0601  -42.3885 H         1 UNK         0.0600 
    146 H146        3.7627  -24.4582  -41.9371 H         1 UNK         0.0600 
    147 H147        3.0525  -25.8784  -42.6856 H         1 UNK         0.0600 
    148 H148        4.0573  -24.7974  -43.6436 H         1 UNK         0.0600 
    149 H149        3.4265  -22.4046  -43.2890 H         1 UNK         0.3000 
    150 H150        3.1372  -20.1923  -43.0553 H         1 UNK         0.0600 
    151 H151        3.2650  -20.5186  -45.5423 H         1 UNK         0.0600 
    152 H152        3.0876  -18.8213  -45.1220 H         1 UNK         0.0600 
    153 H153        1.7053  -19.7274  -45.7265 H         1 UNK         0.0600 
    154 H154        0.9716  -18.4793  -43.7386 H         1 UNK         0.3000 
    155 H155       -0.6809  -18.3971  -40.6211 H         1 UNK         0.0600 
    156 H156        1.3015  -16.9762  -40.1062 H         1 UNK         0.0600 
    157 H157       -0.0704  -15.9993  -40.6035 H         1 UNK         0.0600 
    158 H158        1.2548  -16.2971  -41.7276 H         1 UNK         0.0600 
    159 H159       -0.8111  -16.7715  -42.9966 H         1 UNK         0.3000 
    160 H160       -3.2254  -18.7921  -44.6858 H         1 UNK         0.0600 
    161 H161       -3.5580  -16.1461  -43.1712 H         1 UNK         0.0600 
    162 H162       -4.5658  -17.5736  -42.9658 H         1 UNK         0.0600 
    163 H163       -4.5767  -16.7065  -44.4911 H         1 UNK         0.0600 
    164 H164       -2.1668  -16.1922  -45.2262 H         1 UNK         0.3000 
    165 H165        0.7344  -17.2934  -47.0446 H         1 UNK         0.0600 
    166 H166       -1.8352  -15.8842  -47.9287 H         1 UNK         0.0600 
    167 H167       -0.2737  -15.7474  -48.7204 H         1 UNK         0.0600 
    168 H168       -1.1077  -17.2914  -48.7070 H         1 UNK         0.0600 
    169 H169       -0.1920  -14.6816  -46.4711 H         1 UNK         0.3000 
    170 H170        1.3733  -14.2757  -43.2838 H         1 UNK         0.0600 
    171 H171        3.1040  -13.8187  -45.0126 H         1 UNK         0.0600 
    172 H172        1.8989  -13.0914  -46.0631 H         1 UNK         0.0600 
    173 H173        2.2984  -12.3355  -44.5220 H         1 UNK         0.0600 
    174 H174       -0.3276  -12.7088  -45.0592 H         1 UNK         0.3000 
    175 H175       -3.3564  -13.4149  -43.3154 H         1 UNK         0.0600 
    176 H176       -1.6346  -10.8770  -43.3232 H         1 UNK         0.0600 
    177 H177       -3.3697  -10.9555  -43.0148 H         1 UNK         0.0600 
    178 H178       -2.2426  -11.6929  -41.8876 H         1 UNK         0.0600 
    179 H179       -2.6990  -11.6035  -45.4391 H         1 UNK         0.3000 
    180 H180       -3.0949  -13.8943  -48.1223 H         1 UNK         0.0600 
    181 H181       -4.9838  -11.6692  -47.1980 H         1 UNK         0.0600 
    182 H182       -5.4494  -13.3410  -47.4968 H         1 UNK         0.0600 
    183 H183       -4.8780  -12.3465  -48.8250 H         1 UNK         0.0600 
    184 H184       -2.7529  -11.1653  -48.3366 H         1 UNK         0.3000 
    185 H185       -0.7828  -10.4572  -49.2152 H         1 UNK         0.0600 
    186 H186        0.7649  -10.3496  -46.5613 H         1 UNK         0.0600 
    187 H187        0.7104   -9.0701  -47.7745 H         1 UNK         0.0600 
    188 H188       -0.7437   -9.5065  -46.8925 H         1 UNK         0.0600 
    189 H189        1.9054  -11.1244  -48.6125 H         1 UNK         0.3000 
    190 H190       -0.5725  -22.8344  -45.4526 H         1 UNK         0.3000 
    191 H191       -3.0721  -23.1281  -46.8039 H         1 UNK         0.0600 
    192 H192       -2.3768  -21.8455  -44.1113 H         1 UNK         0.0600 
    193 H193       -3.8988  -21.6340  -44.9689 H         1 UNK         0.0600 
    194 H194       -2.4089  -21.0358  -45.6767 H         1 UNK         0.0600 
    195 H195       -1.6237  -25.2476  -44.5848 H         1 UNK         0.3000 
    196 H196       -4.0478  -26.3510  -43.4063 H         1 UNK         0.0600 
    197 H197       -2.5243  -28.1726  -42.7052 H         1 UNK         0.0600 
    198 H198       -1.7904  -26.6160  -42.3498 H         1 UNK         0.0600 
    199 H199       -1.2471  -27.5520  -43.7423 H         1 UNK         0.0600 
    200 H200       -2.6408  -26.4232  -46.5508 H         1 UNK         0.3000 
    201 H201       -4.3201  -28.7272  -47.4155 H         1 UNK         0.0600 
    202 H202       -1.8507  -29.2851  -47.4752 H         1 UNK         0.0600 
    203 H203       -1.5607  -27.8670  -48.4776 H         1 UNK         0.0600 
    204 H204       -2.5310  -29.2044  -49.0882 H         1 UNK         0.0600 
    205 H205       -4.4522  -28.4534  -49.9675 H         1 UNK         0.3000 
    206 H206       -5.6779  -25.8556  -50.5549 H         1 UNK         0.0600 
    207 H207       -6.7669  -27.9961  -51.2339 H         1 UNK         0.0600 
    208 H208       -6.3825  -27.0119  -52.6347 H         1 UNK         0.0600 
    209 H209       -5.3746  -28.3989  -52.2396 H         1 UNK         0.0600 
    210 H210       -2.5413  -26.7546  -50.5052 H         1 UNK         0.3000 
    211 H211       -1.3429  -26.2681  -52.9550 H         1 UNK         0.0600 
    212 H212        0.6951  -25.7849  -51.5488 H         1 UNK         0.0600 
    213 H213       -0.1580  -27.2277  -51.0212 H         1 UNK         0.0600 
    214 H214       -0.3256  -25.7249  -50.1159 H         1 UNK         0.0600 
    215 H215       -1.2588  -24.5656  -54.2288 H         1 UNK         0.3000 
    216 H216       -1.4152  -22.5606  -55.1334 H         1 UNK         0.0600 
    217 H217       -0.1438  -20.7016  -54.1081 H         1 UNK         0.0600 
    218 H218        0.7436  -22.2054  -53.9278 H         1 UNK         0.0600 
    219 H219       -0.1316  -21.5283  -52.5576 H         1 UNK         0.0600 
    220 H220       -3.7132  -23.5065  -53.5486 H         1 UNK         0.3000 
    221 H221       -5.7411  -22.9591  -52.9307 H         1 UNK         0.0600 
    222 H222       -6.8374  -20.8883  -53.7475 H         1 UNK         0.0600 
    223 H223       -5.9057  -21.6522  -55.0232 H         1 UNK         0.0600 
    224 H224       -5.2799  -20.2192  -54.2160 H         1 UNK         0.0600 
    225 H225       -3.4792  -22.5879  -51.1442 H         1 UNK         0.3000 
    226 H226       -3.0335  -22.0974  -49.0565 H         1 UNK         0.0600 
    227 H227       -5.2037  -23.1167  -48.5183 H         1 UNK         0.0600 
    228 H228       -4.9375  -21.7658  -47.4348 H         1 UNK         0.0600 
    229 H229       -6.0566  -21.6031  -48.7827 H         1 UNK         0.0600 
    230 H230       -5.3318  -19.7143  -48.2598 H         1 UNK         0.3000 
    231 H231       -3.3065  -17.6989  -47.9916 H         1 UNK         0.0600 
    232 H232       -5.1437  -16.3872  -46.9925 H         1 UNK         0.0600 
    233 H233       -5.1657  -18.0298  -46.3667 H         1 UNK         0.0600 
    234 H234       -6.3349  -17.5369  -47.5902 H         1 UNK         0.0600 
    235 H235       -5.5377  -18.4633  -50.5610 H         1 UNK         0.3000 
    236 H236       -6.3926  -15.9256  -51.2988 H         1 UNK         0.0600 
    237 H237       -7.5036  -18.0453  -51.9590 H         1 UNK         0.0600 
    238 H238       -7.1956  -17.0410  -53.3683 H         1 UNK         0.0600 
    239 H239       -6.1640  -18.4255  -53.0389 H         1 UNK         0.0600 
    240 H240       -3.3615  -17.4672  -52.2685 H         1 UNK         0.3000 
    241 H241       -2.9175  -15.5395  -54.4146 H         1 UNK         0.0600 
    242 H242       -1.3027  -13.8819  -51.1712 H         1 UNK         0.3800 
    243 H243       -2.5818  -15.0837  -51.0566 H         1 UNK         0.3800 
    244 H244       -2.1671  -18.0770  -54.3709 H         1 UNK         0.0800 
    245 H245       -1.3264  -16.8498  -55.2433 H         1 UNK         0.0800 
    246 H246       -1.1420  -17.3957  -51.3368 H         1 UNK         0.0800 
    247 H247       -1.0849  -19.0581  -51.8797 H         1 UNK         0.0800 
@<TRIPOS>BOND
     1    1    2 1    
     2    1  127 1    
     3    1  128 1    
     4    1  129 1    
     5    2    3 2    
     6    2    4 am   BACKBONE|DICT|INTERRES
     7    4    5 1    
     8    4  130 1    
     9    5    6 1    
    10    5   65 1    
    11    5  131 1    
    12    6    7 1    
    13    6  132 1    
    14    6  133 1    
    15    7    8 1    
    16    8    9 1    
    17    8  134 1    
    18    8  135 1    
    19    9   10 ar   
    20    9   14 ar   
    21   10   11 ar   
    22   10  136 1    
    23   11   12 ar   
    24   11  126 1    
    25   12   13 ar   
    26   12  137 1    
    27   13   14 ar   
    28   13   15 1    
    29   14  138 1    
    30   15   16 1    
    31   15  139 1    
    32   15  140 1    
    33   16   17 1    
    34   17   18 1    
    35   17  141 1    
    36   17  142 1    
    37   18   19 1    
    38   18   67 1    
    39   18  143 1    
    40   19   20 am   BACKBONE|DICT|INTERRES
    41   19  144 1    
    42   20   21 2    
    43   20   22 1    
    44   22   23 1    
    45   22   24 1    
    46   22  145 1    
    47   23  146 1    
    48   23  147 1    
    49   23  148 1    
    50   24   25 am   BACKBONE|DICT|INTERRES
    51   24  149 1    
    52   25   26 2    
    53   25   27 1    
    54   27   28 1    
    55   27   29 1    
    56   27  150 1    
    57   28  151 1    
    58   28  152 1    
    59   28  153 1    
    60   29   30 am   BACKBONE|DICT|INTERRES
    61   29  154 1    
    62   30   31 2    
    63   30   32 1    
    64   32   33 1    
    65   32   34 1    
    66   32  155 1    
    67   33  156 1    
    68   33  157 1    
    69   33  158 1    
    70   34   35 am   BACKBONE|DICT|INTERRES
    71   34  159 1    
    72   35   36 2    
    73   35   37 1    
    74   37   38 1    
    75   37   39 1    
    76   37  160 1    
    77   38  161 1    
    78   38  162 1    
    79   38  163 1    
    80   39   40 am   BACKBONE|DICT|INTERRES
    81   39  164 1    
    82   40   41 2    
    83   40   42 1    
    84   42   43 1    
    85   42   44 1    
    86   42  165 1    
    87   43  166 1    
    88   43  167 1    
    89   43  168 1    
    90   44   45 am   BACKBONE|DICT|INTERRES
    91   44  169 1    
    92   45   46 2    
    93   45   47 1    
    94   47   48 1    
    95   47   49 1    
    96   47  170 1    
    97   48  171 1    
    98   48  172 1    
    99   48  173 1    
   100   49   50 am   BACKBONE|DICT|INTERRES
   101   49  174 1    
   102   50   51 2    
   103   50   52 1    
   104   52   53 1    
   105   52   54 1    
   106   52  175 1    
   107   53  176 1    
   108   53  177 1    
   109   53  178 1    
   110   54   55 am   BACKBONE|DICT|INTERRES
   111   54  179 1    
   112   55   56 2    
   113   55   57 1    
   114   57   58 1    
   115   57   59 1    
   116   57  180 1    
   117   58  181 1    
   118   58  182 1    
   119   58  183 1    
   120   59   60 am   BACKBONE|DICT|INTERRES
   121   59  184 1    
   122   60   61 2    
   123   60   62 1    
   124   62   63 1    
   125   62   64 1    
   126   62  185 1    
   127   63  186 1    
   128   63  187 1    
   129   63  188 1    
   130   64   65 am   BACKBONE|DICT|INTERRES
   131   64  189 1    
   132   65   66 2    
   133   67   68 2    
   134   67   69 am   BACKBONE|DICT|INTERRES
   135   69   70 1    
   136   69  190 1    
   137   70   71 1    
   138   70   72 1    
   139   70  191 1    
   140   71  192 1    
   141   71  193 1    
   142   71  194 1    
   143   72   73 2    
   144   72   74 am   BACKBONE|DICT|INTERRES
   145   74   75 1    
   146   74  195 1    
   147   75   76 1    
   148   75   77 1    
   149   75  196 1    
   150   76  197 1    
   151   76  198 1    
   152   76  199 1    
   153   77   78 2    
   154   77   79 am   BACKBONE|DICT|INTERRES
   155   79   80 1    
   156   79  200 1    
   157   80   81 1    
   158   80   82 1    
   159   80  201 1    
   160   81  202 1    
   161   81  203 1    
   162   81  204 1    
   163   82   83 2    
   164   82   84 am   BACKBONE|DICT|INTERRES
   165   84   85 1    
   166   84  205 1    
   167   85   86 1    
   168   85   87 1    
   169   85  206 1    
   170   86  207 1    
   171   86  208 1    
   172   86  209 1    
   173   87   88 2    
   174   87   89 am   BACKBONE|DICT|INTERRES
   175   89   90 1    
   176   89  210 1    
   177   90   91 1    
   178   90   92 1    
   179   90  211 1    
   180   91  212 1    
   181   91  213 1    
   182   91  214 1    
   183   92   93 2    
   184   92   94 am   BACKBONE|DICT|INTERRES
   185   94   95 1    
   186   94  215 1    
   187   95   96 1    
   188   95   97 1    
   189   95  216 1    
   190   96  217 1    
   191   96  218 1    
   192   96  219 1    
   193   97   98 2    
   194   97   99 am   BACKBONE|DICT|INTERRES
   195   99  100 1    
   196   99  220 1    
   197  100  101 1    
   198  100  102 1    
   199  100  221 1    
   200  101  222 1    
   201  101  223 1    
   202  101  224 1    
   203  102  103 2    
   204  102  104 am   BACKBONE|DICT|INTERRES
   205  104  105 1    
   206  104  225 1    
   207  105  106 1    
   208  105  107 1    
   209  105  226 1    
   210  106  227 1    
   211  106  228 1    
   212  106  229 1    
   213  107  108 2    
   214  107  109 am   BACKBONE|DICT|INTERRES
   215  109  110 1    
   216  109  230 1    
   217  110  111 1    
   218  110  112 1    
   219  110  231 1    
   220  111  232 1    
   221  111  233 1    
   222  111  234 1    
   223  112  113 2    
   224  112  114 am   BACKBONE|DICT|INTERRES
   225  114  115 1    
   226  114  235 1    
   227  115  116 1    
   228  115  117 1    
   229  115  236 1    
   230  116  237 1    
   231  116  238 1    
   232  116  239 1    
   233  117  118 2    
   234  117  119 am   BACKBONE|DICT|INTERRES
   235  119  120 1    
   236  119  240 1    
   237  120  121 1    
   238  120  124 1    
   239  120  241 1    
   240  121  122 am   BACKBONE|DICT|INTERRES
   241  121  123 2    
   242  122  242 1    
   243  122  243 1    
   244  124  125 1    
   245  124  244 1    
   246  124  245 1    
   247  125  126 1    
   248  126  246 1    
   249  126  247 1    
@<TRIPOS>SUBSTRUCTURE
     1 UNK         1 GROUP             0       ****    0 ROOT    
