@<TRIPOS>MOLECULE
3R540
247   249    1
SMALL
USER_CHARGES


@<TRIPOS>ATOM
      1 CA         -0.7023  -12.8289  -48.9784 C.3       0 UNK        -0.1800 
      2 C           0.5381  -11.9740  -48.7580 C.2       0 UNK         0.5000 
      3 O           0.6148  -10.8615  -49.2801 O.2       0 UNK        -0.5000 
      4 N           1.5106  -12.4908  -47.9979 N.am      1 UNK        -0.5000 
      5 CA          2.7526  -11.7945  -47.6482 C.3       1 UNK         0.1400 
      6 C6          3.8575  -12.7675  -47.1672 C.3       23 UNK        -0.0398 
      7 S7          4.2650  -14.0489  -48.4014 S.3       23 UNK        -0.2404 
      8 C8          3.6098  -15.5405  -47.5870 C.3       23 UNK        -0.0205 
      9 C9          2.9791  -16.5027  -48.5805 C.ar      23 UNK        -0.0193 
     10 C10         1.8489  -16.1162  -49.3075 C.ar      23 UNK        -0.1150 
     11 C11         1.2093  -17.0118  -50.1678 C.ar      23 UNK        -0.0193 
     12 C12         1.7209  -18.3064  -50.3037 C.ar      23 UNK        -0.1150 
     13 C13         2.8579  -18.7028  -49.5934 C.ar      23 UNK        -0.0193 
     14 C14         3.4842  -17.7964  -48.7335 C.ar      23 UNK        -0.1150 
     15 C15         3.3980  -20.1168  -49.7425 C.3       23 UNK        -0.0205 
     16 S16         2.8111  -21.2107  -48.4114 S.3       23 UNK        -0.2404 
     17 C17         1.0147  -21.2103  -48.7249 C.3       23 UNK        -0.0398 
     18 CA          0.2796  -22.3040  -47.9207 C.3       11 UNK         0.1400 
     19 N           0.2797  -22.0453  -46.4780 N.am      11 UNK        -0.5000 
     20 C          -0.1369  -22.9193  -45.5513 C.2       10 UNK         0.5000 
     21 O          -0.5222  -24.0594  -45.8116 O.2       10 UNK        -0.5000 
     22 CA         -0.1839  -22.4220  -44.0955 C.3       10 UNK         0.1400 
     23 CB          1.2140  -22.4409  -43.4596 C.3       10 UNK        -0.1800 
     24 N          -0.7697  -21.0856  -43.9789 N.am      10 UNK        -0.5000 
     25 C          -2.0389  -20.7886  -44.2942 C.2       9 UNK         0.5000 
     26 O          -2.8606  -21.6245  -44.6703 O.2       9 UNK        -0.5000 
     27 CA         -2.4535  -19.3076  -44.2186 C.3       9 UNK         0.1400 
     28 CB         -2.7784  -18.9029  -42.7734 C.3       9 UNK        -0.1800 
     29 N          -1.4415  -18.4047  -44.7666 N.am      9 UNK        -0.5000 
     30 C          -1.0327  -18.3999  -46.0434 C.2       8 UNK         0.5000 
     31 O          -1.4966  -19.1331  -46.9156 O.2       8 UNK        -0.5000 
     32 CA          0.1318  -17.4564  -46.3912 C.3       8 UNK         0.1400 
     33 CB         -0.3663  -16.0149  -46.5730 C.3       8 UNK        -0.1800 
     34 N           1.1999  -17.4951  -45.3907 N.am      8 UNK        -0.5000 
     35 C           1.9108  -18.5944  -45.0974 C.2       7 UNK         0.5000 
     36 O           1.7624  -19.6772  -45.6601 O.2       7 UNK        -0.5000 
     37 CA          2.9010  -18.4856  -43.9277 C.3       7 UNK         0.1400 
     38 CB          4.2143  -17.8257  -44.3734 C.3       7 UNK        -0.1800 
     39 N           2.3215  -17.7506  -42.8034 N.am      7 UNK        -0.5000 
     40 C           1.3226  -18.2192  -42.0397 C.2       6 UNK         0.5000 
     41 O           0.8312  -19.3398  -42.1715 O.2       6 UNK        -0.5000 
     42 CA          0.7448  -17.2614  -40.9811 C.3       6 UNK         0.1400 
     43 CB          1.5463  -17.3526  -39.6744 C.3       6 UNK        -0.1800 
     44 N           0.7137  -15.8703  -41.4341 N.am      6 UNK        -0.5000 
     45 C          -0.0289  -15.4154  -42.4540 C.2       5 UNK         0.5000 
     46 O          -0.8160  -16.1173  -43.0874 O.2       5 UNK        -0.5000 
     47 CA          0.1810  -13.9453  -42.8648 C.3       5 UNK         0.1400 
     48 CB         -0.8305  -13.0337  -42.1561 C.3       5 UNK        -0.1800 
     49 N           1.5371  -13.4691  -42.5850 N.am      5 UNK        -0.5000 
     50 C           2.6455  -13.9082  -43.1930 C.2       4 UNK         0.5000 
     51 O           2.6257  -14.7464  -44.0969 O.2       4 UNK        -0.5000 
     52 CA          3.9860  -13.3391  -42.6762 C.3       4 UNK         0.1400 
     53 CB          5.1939  -13.7916  -43.5158 C.3       4 UNK        -0.1800 
     54 N           3.9928  -11.8774  -42.5886 N.am      4 UNK        -0.5000 
     55 C           3.4157  -11.1281  -41.6420 C.2       3 UNK         0.5000 
     56 O           2.7655  -11.6050  -40.7107 O.2       3 UNK        -0.5000 
     57 CA          3.5510   -9.5955  -41.7646 C.3       3 UNK         0.1400 
     58 CB          4.9219   -9.1133  -41.2528 C.3       3 UNK        -0.1800 
     59 N           3.2521   -9.0634  -43.1031 N.am      3 UNK        -0.5000 
     60 C           3.9210   -9.2513  -44.2483 C.2       2 UNK         0.5000 
     61 O           4.9673   -9.8984  -44.3433 O.2       2 UNK        -0.5000 
     62 CA          3.2952   -8.6454  -45.5173 C.3       2 UNK         0.1400 
     63 CB          4.0963   -7.4236  -45.9919 C.3       2 UNK        -0.1800 
     64 N           3.2553   -9.6439  -46.5855 N.am      2 UNK        -0.5000 
     65 C           2.4852  -10.7392  -46.5578 C.2       1 UNK         0.5000 
     66 O           1.6337  -10.9542  -45.6905 O.2       1 UNK        -0.5000 
     67 C          -1.1466  -22.5128  -48.4661 C.2       11 UNK         0.5000 
     68 O          -1.3537  -23.4384  -49.2484 O.2       11 UNK        -0.5000 
     69 N          -2.1101  -21.6904  -48.0244 N.am      12 UNK        -0.5000 
     70 CA         -3.5274  -21.8239  -48.3654 C.3       12 UNK         0.1400 
     71 CB         -4.3207  -20.6328  -47.8087 C.3       12 UNK        -0.1800 
     72 C          -4.1304  -23.1530  -47.8804 C.2       12 UNK         0.5000 
     73 O          -4.8397  -23.8042  -48.6472 O.2       12 UNK        -0.5000 
     74 N          -3.8113  -23.5496  -46.6407 N.am      13 UNK        -0.5000 
     75 CA         -4.2109  -24.8267  -46.0489 C.3       13 UNK         0.1400 
     76 CB         -3.8330  -24.8513  -44.5604 C.3       13 UNK        -0.1800 
     77 C          -3.6126  -26.0346  -46.7923 C.2       13 UNK         0.5000 
     78 O          -4.3436  -26.9777  -47.0984 O.2       13 UNK        -0.5000 
     79 N          -2.3130  -25.9632  -47.1175 N.am      14 UNK        -0.5000 
     80 CA         -1.5948  -26.9627  -47.9149 C.3       14 UNK         0.1400 
     81 CB         -0.0974  -26.6220  -47.9366 C.3       14 UNK        -0.1800 
     82 C          -2.1443  -27.0966  -49.3489 C.2       14 UNK         0.5000 
     83 O          -2.1944  -28.2047  -49.8827 O.2       14 UNK        -0.5000 
     84 N          -2.5963  -25.9739  -49.9208 N.am      15 UNK        -0.5000 
     85 CA         -3.2730  -25.8768  -51.2132 C.3       15 UNK         0.1400 
     86 CB         -3.0025  -24.4851  -51.8101 C.3       15 UNK        -0.1800 
     87 C          -4.7862  -26.1793  -51.1413 C.2       15 UNK         0.5000 
     88 O          -5.5073  -25.8090  -52.0661 O.2       15 UNK        -0.5000 
     89 N          -5.2517  -26.8341  -50.0659 N.am      16 UNK        -0.5000 
     90 CA         -6.6214  -27.3128  -49.8461 C.3       16 UNK         0.1400 
     91 CB         -6.9542  -28.4574  -50.8266 C.3       16 UNK        -0.1800 
     92 C          -7.6640  -26.1766  -49.8682 C.2       16 UNK         0.5000 
     93 O          -8.6473  -26.2462  -50.6076 O.2       16 UNK        -0.5000 
     94 N          -7.4018  -25.1446  -49.0553 N.am      17 UNK        -0.5000 
     95 CA         -8.1432  -23.8846  -48.9471 C.3       17 UNK         0.1400 
     96 CB         -9.6148  -24.1098  -48.5377 C.3       17 UNK        -0.1800 
     97 C          -7.9704  -23.0154  -50.2083 C.2       17 UNK         0.5000 
     98 O          -8.9468  -22.4881  -50.7441 O.2       17 UNK        -0.5000 
     99 N          -6.7054  -22.8771  -50.6317 N.am      18 UNK        -0.5000 
    100 CA        -6.2161  -22.0389  -51.7293 C.3       18 UNK         0.1400 
    101 CB        -6.3750  -20.5470  -51.3699 C.3       18 UNK        -0.1800 
    102 C         -6.8194  -22.3978  -53.1040 C.2       18 UNK         0.5000 
    103 O         -7.1918  -21.5059  -53.8692 O.2       18 UNK        -0.5000 
    104 N         -6.8997  -23.6999  -53.4084 N.am      19 UNK        -0.5000 
    105 CA        -7.3455  -24.2157  -54.7005 C.3       19 UNK         0.1400 
    106 CB        -7.7036  -25.7053  -54.5634 C.3       19 UNK        -0.1800 
    107 C         -6.2539  -23.9779  -55.7601 C.2       19 UNK         0.5000 
    108 O         -5.2552  -24.6999  -55.7812 O.2       19 UNK        -0.5000 
    109 N         -6.4541  -22.9397  -56.5852 N.am      20 UNK        -0.5000 
    110 CA        -5.5329  -22.4334  -57.6107 C.3       20 UNK         0.1400 
    111 CB        -5.3569  -23.4597  -58.7503 C.3       20 UNK        -0.1800 
    112 C         -4.1925  -21.9413  -57.0195 C.2       20 UNK         0.5000 
    113 O         -3.1293  -22.1907  -57.5915 O.2       20 UNK        -0.5000 
    114 N         -4.2723  -21.2462  -55.8795 N.am      21 UNK        -0.5000 
    115 CA        -3.1473  -20.6616  -55.1561 C.3       21 UNK         0.1400 
    116 CB        -2.6068  -21.6875  -54.1435 C.3       21 UNK        -0.1800 
    117 C         -3.6150  -19.3796  -54.4511 C.2       21 UNK         0.5000 
    118 O         -4.8181  -19.1141  -54.3951 O.2       21 UNK        -0.5000 
    119 N         -2.6600  -18.6122  -53.9138 N.am      22 UNK        -0.5000 
    120 CA        -2.9247  -17.4127  -53.1006 C.3       22 UNK         0.1400 
    121 C         -3.3842  -17.7047  -51.6412 C.2       22 UNK         0.5000 
    122 N         -3.2215  -18.9160  -51.1220 N.am      22 UNK        -0.7600 
    123 O         -3.8954  -16.8138  -50.9692 O.2       22 UNK        -0.5000 
    124 C124       -1.7423  -16.4083  -53.1423 C.3       23 UNK        -0.0398 
    125 S125       -0.1308  -17.1062  -52.6318 S.3       23 UNK        -0.2404 
    126 C126       -0.0666  -16.5855  -50.8847 C.3       23 UNK        -0.0205 
    127 H127       -1.5798  -12.3295  -48.5679 H         1 UNK         0.0600 
    128 H128       -0.6139  -13.8047  -48.5035 H         1 UNK         0.0600 
    129 H129       -0.8655  -12.9857  -50.0447 H         1 UNK         0.0600 
    130 H130        1.3774  -13.3863  -47.5557 H         1 UNK         0.3000 
    131 H131        3.1182  -11.2818  -48.5409 H         1 UNK         0.0600 
    132 H132        4.7771  -12.2192  -46.9541 H         1 UNK         0.0800 
    133 H133        3.5673  -13.2369  -46.2268 H         1 UNK         0.0800 
    134 H134        2.8546  -15.2789  -46.8462 H         1 UNK         0.0800 
    135 H135        4.4205  -16.0205  -47.0376 H         1 UNK         0.0800 
    136 H136        1.4543  -15.1190  -49.1834 H         1 UNK         0.1150 
    137 H137        1.2244  -19.0131  -50.9532 H         1 UNK         0.1150 
    138 H138        4.3502  -18.1093  -48.1673 H         1 UNK         0.1150 
    139 H139        3.1166  -20.5353  -50.7101 H         1 UNK         0.0800 
    140 H140        4.4886  -20.0952  -49.7266 H         1 UNK         0.0800 
    141 H141        0.8657  -21.3554  -49.7967 H         1 UNK         0.0800 
    142 H142        0.6110  -20.2257  -48.4828 H         1 UNK         0.0800 
    143 H143        0.8116  -23.2449  -48.0771 H         1 UNK         0.0600 
    144 H144        0.6380  -21.1410  -46.1800 H         1 UNK         0.3000 
    145 H145       -0.8174  -23.1106  -43.5325 H         1 UNK         0.0600 
    146 H146        1.1713  -22.1611  -42.4069 H         1 UNK         0.0600 
    147 H147        1.6532  -23.4377  -43.5140 H         1 UNK         0.0600 
    148 H148        1.8965  -21.7544  -43.9602 H         1 UNK         0.0600 
    149 H149       -0.1627  -20.3502  -43.6323 H         1 UNK         0.3000 
    150 H150       -3.3598  -19.1865  -44.8150 H         1 UNK         0.0600 
    151 H151       -3.5596  -19.5396  -42.3564 H         1 UNK         0.0600 
    152 H152       -3.1347  -17.8739  -42.7228 H         1 UNK         0.0600 
    153 H153       -1.9060  -18.9864  -42.1253 H         1 UNK         0.0600 
    154 H154       -1.0425  -17.7243  -44.1258 H         1 UNK         0.3000 
    155 H155        0.5569  -17.7957  -47.3373 H         1 UNK         0.0600 
    156 H156       -0.8683  -15.6402  -45.6815 H         1 UNK         0.0600 
    157 H157       -1.0794  -15.9582  -47.3961 H         1 UNK         0.0600 
    158 H158        0.4535  -15.3362  -46.8010 H         1 UNK         0.0600 
    159 H159        1.3800  -16.6470  -44.8705 H         1 UNK         0.3000 
    160 H160        3.1324  -19.4981  -43.5897 H         1 UNK         0.0600 
    161 H161        4.0573  -16.8112  -44.7365 H         1 UNK         0.0600 
    162 H162        4.6765  -18.3921  -45.1829 H         1 UNK         0.0600 
    163 H163        4.9325  -17.7820  -43.5547 H         1 UNK         0.0600 
    164 H164        2.6393  -16.8024  -42.6672 H         1 UNK         0.3000 
    165 H165       -0.2816  -17.5723  -40.7757 H         1 UNK         0.0600 
    166 H166        1.1003  -16.7355  -38.8942 H         1 UNK         0.0600 
    167 H167        1.5697  -18.3778  -39.3024 H         1 UNK         0.0600 
    168 H168        2.5790  -17.0289  -39.8103 H         1 UNK         0.0600 
    169 H169        1.3256  -15.2220  -40.9611 H         1 UNK         0.3000 
    170 H170        0.0127  -13.8744  -43.9415 H         1 UNK         0.0600 
    171 H171       -1.8536  -13.3513  -42.3621 H         1 UNK         0.0600 
    172 H172       -0.6935  -13.0440  -41.0741 H         1 UNK         0.0600 
    173 H173       -0.7360  -12.0024  -42.4969 H         1 UNK         0.0600 
    174 H174        1.6471  -12.7837  -41.8445 H         1 UNK         0.3000 
    175 H175        4.1231  -13.7412  -41.6705 H         1 UNK         0.0600 
    176 H176        5.1545  -13.3953  -44.5295 H         1 UNK         0.0600 
    177 H177        6.1290  -13.4569  -43.0665 H         1 UNK         0.0600 
    178 H178        5.2435  -14.8787  -43.5859 H         1 UNK         0.0600 
    179 H179        4.4784  -11.3781  -43.3296 H         1 UNK         0.3000 
    180 H180        2.7939   -9.1661  -41.1064 H         1 UNK         0.0600 
    181 H181        5.7466   -9.5206  -41.8380 H         1 UNK         0.0600 
    182 H182        5.0781   -9.4199  -40.2178 H         1 UNK         0.0600 
    183 H183        4.9937   -8.0261  -41.2835 H         1 UNK         0.0600 
    184 H184        2.3873   -8.5427  -43.1558 H         1 UNK         0.3000 
    185 H185        2.2727   -8.3272  -45.3025 H         1 UNK         0.0600 
    186 H186        4.1268   -6.6543  -45.2192 H         1 UNK         0.0600 
    187 H187        5.1270   -7.6858  -46.2345 H         1 UNK         0.0600 
    188 H188        3.6458   -6.9760  -46.8780 H         1 UNK         0.0600 
    189 H189        3.9528   -9.5482  -47.3093 H         1 UNK         0.3000 
    190 H190       -1.8580  -20.9093  -47.4232 H         1 UNK         0.3000 
    191 H191       -3.6085  -21.8032  -49.4540 H         1 UNK         0.0600 
    192 H192       -4.2556  -20.5776  -46.7225 H         1 UNK         0.0600 
    193 H193       -5.3773  -20.7109  -48.0671 H         1 UNK         0.0600 
    194 H194       -3.9542  -19.6885  -48.2102 H         1 UNK         0.0600 
    195 H195       -3.2620  -22.9277  -46.0536 H         1 UNK         0.3000 
    196 H196       -5.2980  -24.8992  -46.1213 H         1 UNK         0.0600 
    197 H197       -4.1389  -25.7890  -44.0949 H         1 UNK         0.0600 
    198 H198       -4.3232  -24.0430  -44.0175 H         1 UNK         0.0600 
    199 H199       -2.7580  -24.7463  -44.4138 H         1 UNK         0.0600 
    200 H200       -1.7704  -25.1670  -46.7925 H         1 UNK         0.3000 
    201 H201       -1.7171  -27.9295  -47.4226 H         1 UNK         0.0600 
    202 H202        0.3149  -26.5925  -46.9279 H         1 UNK         0.0600 
    203 H203        0.0876  -25.6535  -48.4016 H         1 UNK         0.0600 
    204 H204        0.4656  -27.3690  -48.4973 H         1 UNK         0.0600 
    205 H205       -2.4537  -25.0962  -49.4308 H         1 UNK         0.3000 
    206 H206       -2.8407  -26.6154  -51.8908 H         1 UNK         0.0600 
    207 H207       -1.9330  -24.3060  -51.9209 H         1 UNK         0.0600 
    208 H208       -3.4493  -24.3820  -52.7998 H         1 UNK         0.0600 
    209 H209       -3.4068  -23.6965  -51.1764 H         1 UNK         0.0600 
    210 H210       -4.6004  -27.0365  -49.3180 H         1 UNK         0.3000 
    211 H211       -6.6424  -27.7289  -48.8378 H         1 UNK         0.0600 
    212 H212       -6.9814  -28.1118  -51.8607 H         1 UNK         0.0600 
    213 H213       -7.9287  -28.8924  -50.6019 H         1 UNK         0.0600 
    214 H214       -6.2184  -29.2588  -50.7605 H         1 UNK         0.0600 
    215 H215       -6.5116  -25.1517  -48.5715 H         1 UNK         0.3000 
    216 H216       -7.6692  -23.3304  -48.1357 H         1 UNK         0.0600 
    217 H217      -10.1000  -23.1611  -48.3062 H         1 UNK         0.0600 
    218 H218       -9.6857  -24.7359  -47.6484 H         1 UNK         0.0600 
    219 H219      -10.1951  -24.5828  -49.3300 H         1 UNK         0.0600 
    220 H220       -5.9912  -23.3654  -50.0984 H         1 UNK         0.3000 
    221 H221       -5.1485  -22.2383  -51.8101 H         1 UNK         0.0600 
    222 H222       -7.4234  -20.2551  -51.3037 H         1 UNK         0.0600 
    223 H223       -5.9018  -20.3162  -50.4167 H         1 UNK         0.0600 
    224 H224       -5.9078  -19.9101  -52.1201 H         1 UNK         0.0600 
    225 H225       -6.5156  -24.3901  -52.7663 H         1 UNK         0.3000 
    226 H226       -8.2536  -23.6852  -54.9949 H         1 UNK         0.0600 
    227 H227       -8.4624  -25.8593  -53.7957 H         1 UNK         0.0600 
    228 H228       -8.1011  -26.0959  -55.5007 H         1 UNK         0.0600 
    229 H229       -6.8368  -26.3116  -54.2991 H         1 UNK         0.0600 
    230 H230       -7.2852  -22.3821  -56.4409 H         1 UNK         0.3000 
    231 H231       -6.0114  -21.5519  -58.0397 H         1 UNK         0.0600 
    232 H232       -6.3208  -23.7716  -59.1523 H         1 UNK         0.0600 
    233 H233       -4.8277  -24.3525  -58.4164 H         1 UNK         0.0600 
    234 H234       -4.7858  -23.0322  -59.5753 H         1 UNK         0.0600 
    235 H235       -5.1811  -21.0239  -55.4896 H         1 UNK         0.3000 
    236 H236       -2.3577  -20.3878  -55.8591 H         1 UNK         0.0600 
    237 H237       -1.7327  -21.3047  -53.6160 H         1 UNK         0.0600 
    238 H238       -3.3584  -21.9420  -53.3968 H         1 UNK         0.0600 
    239 H239       -2.3049  -22.6105  -54.6390 H         1 UNK         0.0600 
    240 H240       -1.6899  -18.8810  -53.9966 H         1 UNK         0.3000 
    241 H241       -3.7707  -16.8969  -53.5595 H         1 UNK         0.0600 
    242 H242       -3.5094  -19.0776  -50.1722 H         1 UNK         0.3800 
    243 H243       -2.7793  -19.6462  -51.6533 H         1 UNK         0.3800 
    244 H244       -1.6251  -16.0458  -54.1643 H         1 UNK         0.0800 
    245 H245       -1.9659  -15.5195  -52.5495 H         1 UNK         0.0800 
    246 H246       -0.9133  -17.0087  -50.3442 H         1 UNK         0.0800 
    247 H247       -0.1791  -15.5012  -50.8425 H         1 UNK         0.0800 
@<TRIPOS>BOND
     1    1    2 1    
     2    1  127 1    
     3    1  128 1    
     4    1  129 1    
     5    2    3 2    
     6    2    4 am   BACKBONE|DICT|INTERRES
     7    4    5 1    
     8    4  130 1    
     9    5    6 1    
    10    5   65 1    
    11    5  131 1    
    12    6    7 1    
    13    6  132 1    
    14    6  133 1    
    15    7    8 1    
    16    8    9 1    
    17    8  134 1    
    18    8  135 1    
    19    9   10 ar   
    20    9   14 ar   
    21   10   11 ar   
    22   10  136 1    
    23   11   12 ar   
    24   11  126 1    
    25   12   13 ar   
    26   12  137 1    
    27   13   14 ar   
    28   13   15 1    
    29   14  138 1    
    30   15   16 1    
    31   15  139 1    
    32   15  140 1    
    33   16   17 1    
    34   17   18 1    
    35   17  141 1    
    36   17  142 1    
    37   18   19 1    
    38   18   67 1    
    39   18  143 1    
    40   19   20 am   BACKBONE|DICT|INTERRES
    41   19  144 1    
    42   20   21 2    
    43   20   22 1    
    44   22   23 1    
    45   22   24 1    
    46   22  145 1    
    47   23  146 1    
    48   23  147 1    
    49   23  148 1    
    50   24   25 am   BACKBONE|DICT|INTERRES
    51   24  149 1    
    52   25   26 2    
    53   25   27 1    
    54   27   28 1    
    55   27   29 1    
    56   27  150 1    
    57   28  151 1    
    58   28  152 1    
    59   28  153 1    
    60   29   30 am   BACKBONE|DICT|INTERRES
    61   29  154 1    
    62   30   31 2    
    63   30   32 1    
    64   32   33 1    
    65   32   34 1    
    66   32  155 1    
    67   33  156 1    
    68   33  157 1    
    69   33  158 1    
    70   34   35 am   BACKBONE|DICT|INTERRES
    71   34  159 1    
    72   35   36 2    
    73   35   37 1    
    74   37   38 1    
    75   37   39 1    
    76   37  160 1    
    77   38  161 1    
    78   38  162 1    
    79   38  163 1    
    80   39   40 am   BACKBONE|DICT|INTERRES
    81   39  164 1    
    82   40   41 2    
    83   40   42 1    
    84   42   43 1    
    85   42   44 1    
    86   42  165 1    
    87   43  166 1    
    88   43  167 1    
    89   43  168 1    
    90   44   45 am   BACKBONE|DICT|INTERRES
    91   44  169 1    
    92   45   46 2    
    93   45   47 1    
    94   47   48 1    
    95   47   49 1    
    96   47  170 1    
    97   48  171 1    
    98   48  172 1    
    99   48  173 1    
   100   49   50 am   BACKBONE|DICT|INTERRES
   101   49  174 1    
   102   50   51 2    
   103   50   52 1    
   104   52   53 1    
   105   52   54 1    
   106   52  175 1    
   107   53  176 1    
   108   53  177 1    
   109   53  178 1    
   110   54   55 am   BACKBONE|DICT|INTERRES
   111   54  179 1    
   112   55   56 2    
   113   55   57 1    
   114   57   58 1    
   115   57   59 1    
   116   57  180 1    
   117   58  181 1    
   118   58  182 1    
   119   58  183 1    
   120   59   60 am   BACKBONE|DICT|INTERRES
   121   59  184 1    
   122   60   61 2    
   123   60   62 1    
   124   62   63 1    
   125   62   64 1    
   126   62  185 1    
   127   63  186 1    
   128   63  187 1    
   129   63  188 1    
   130   64   65 am   BACKBONE|DICT|INTERRES
   131   64  189 1    
   132   65   66 2    
   133   67   68 2    
   134   67   69 am   BACKBONE|DICT|INTERRES
   135   69   70 1    
   136   69  190 1    
   137   70   71 1    
   138   70   72 1    
   139   70  191 1    
   140   71  192 1    
   141   71  193 1    
   142   71  194 1    
   143   72   73 2    
   144   72   74 am   BACKBONE|DICT|INTERRES
   145   74   75 1    
   146   74  195 1    
   147   75   76 1    
   148   75   77 1    
   149   75  196 1    
   150   76  197 1    
   151   76  198 1    
   152   76  199 1    
   153   77   78 2    
   154   77   79 am   BACKBONE|DICT|INTERRES
   155   79   80 1    
   156   79  200 1    
   157   80   81 1    
   158   80   82 1    
   159   80  201 1    
   160   81  202 1    
   161   81  203 1    
   162   81  204 1    
   163   82   83 2    
   164   82   84 am   BACKBONE|DICT|INTERRES
   165   84   85 1    
   166   84  205 1    
   167   85   86 1    
   168   85   87 1    
   169   85  206 1    
   170   86  207 1    
   171   86  208 1    
   172   86  209 1    
   173   87   88 2    
   174   87   89 am   BACKBONE|DICT|INTERRES
   175   89   90 1    
   176   89  210 1    
   177   90   91 1    
   178   90   92 1    
   179   90  211 1    
   180   91  212 1    
   181   91  213 1    
   182   91  214 1    
   183   92   93 2    
   184   92   94 am   BACKBONE|DICT|INTERRES
   185   94   95 1    
   186   94  215 1    
   187   95   96 1    
   188   95   97 1    
   189   95  216 1    
   190   96  217 1    
   191   96  218 1    
   192   96  219 1    
   193   97   98 2    
   194   97   99 am   BACKBONE|DICT|INTERRES
   195   99  100 1    
   196   99  220 1    
   197  100  101 1    
   198  100  102 1    
   199  100  221 1    
   200  101  222 1    
   201  101  223 1    
   202  101  224 1    
   203  102  103 2    
   204  102  104 am   BACKBONE|DICT|INTERRES
   205  104  105 1    
   206  104  225 1    
   207  105  106 1    
   208  105  107 1    
   209  105  226 1    
   210  106  227 1    
   211  106  228 1    
   212  106  229 1    
   213  107  108 2    
   214  107  109 am   BACKBONE|DICT|INTERRES
   215  109  110 1    
   216  109  230 1    
   217  110  111 1    
   218  110  112 1    
   219  110  231 1    
   220  111  232 1    
   221  111  233 1    
   222  111  234 1    
   223  112  113 2    
   224  112  114 am   BACKBONE|DICT|INTERRES
   225  114  115 1    
   226  114  235 1    
   227  115  116 1    
   228  115  117 1    
   229  115  236 1    
   230  116  237 1    
   231  116  238 1    
   232  116  239 1    
   233  117  118 2    
   234  117  119 am   BACKBONE|DICT|INTERRES
   235  119  120 1    
   236  119  240 1    
   237  120  121 1    
   238  120  124 1    
   239  120  241 1    
   240  121  122 am   BACKBONE|DICT|INTERRES
   241  121  123 2    
   242  122  242 1    
   243  122  243 1    
   244  124  125 1    
   245  124  244 1    
   246  124  245 1    
   247  125  126 1    
   248  126  246 1    
   249  126  247 1    
@<TRIPOS>SUBSTRUCTURE
     1 UNK         1 GROUP             0       ****    0 ROOT    
