@<TRIPOS>MOLECULE
3R540
247   249    1
SMALL
USER_CHARGES


@<TRIPOS>ATOM
      1 CA         -3.6942  -14.7105  -50.6859 C.3       0 UNK        -0.1800 
      2 C          -2.6870  -14.4025  -49.5895 C.2       0 UNK         0.5000 
      3 O          -2.9837  -13.6358  -48.6742 O.2       0 UNK        -0.5000 
      4 N          -1.4975  -15.0066  -49.6670 N.am      1 UNK        -0.5000 
      5 CA         -0.4036  -14.8424  -48.7061 C.3       1 UNK         0.1400 
      6 C6          0.9388  -15.3969  -49.2451 C.3       23 UNK        -0.0398 
      7 S7          0.8443  -17.1304  -49.8113 S.3       23 UNK        -0.2404 
      8 C8          2.6070  -17.5480  -49.9580 C.3       23 UNK        -0.0205 
      9 C9          2.7853  -19.0120  -50.3269 C.ar      23 UNK        -0.0193 
     10 C10         2.3718  -19.4675  -51.5798 C.ar      23 UNK        -0.1150 
     11 C11         2.5086  -20.8118  -51.9288 C.ar      23 UNK        -0.0193 
     12 C12         3.0637  -21.7070  -51.0108 C.ar      23 UNK        -0.1150 
     13 C13         3.4934  -21.2685  -49.7533 C.ar      23 UNK        -0.0193 
     14 C14         3.3599  -19.9117  -49.4246 C.ar      23 UNK        -0.1150 
     15 C15         4.1145  -22.2881  -48.7955 C.3       23 UNK        -0.0205 
     16 S16         4.0069  -21.8801  -47.0173 S.3       23 UNK        -0.2404 
     17 C17         2.2034  -21.7945  -46.7729 C.3       23 UNK        -0.0398 
     18 CA          1.5751  -23.1273  -46.3120 C.3       11 UNK         0.1400 
     19 N           2.1467  -23.6311  -45.0624 N.am      11 UNK        -0.5000 
     20 C           2.0808  -24.9067  -44.6582 C.2       10 UNK         0.5000 
     21 O           1.5987  -25.8139  -45.3359 O.2       10 UNK        -0.5000 
     22 CA          2.6265  -25.2224  -43.2519 C.3       10 UNK         0.1400 
     23 CB          4.1092  -25.6165  -43.3283 C.3       10 UNK        -0.1800 
     24 N           2.4770  -24.1068  -42.3161 N.am      10 UNK        -0.5000 
     25 C           1.3057  -23.6463  -41.8534 C.2       9 UNK         0.5000 
     26 O           0.2169  -24.1528  -42.1221 O.2       9 UNK        -0.5000 
     27 CA          1.3624  -22.3729  -40.9850 C.3       9 UNK         0.1400 
     28 CB          1.5203  -22.7397  -39.5020 C.3       9 UNK        -0.1800 
     29 N           2.4336  -21.4469  -41.3724 N.am      9 UNK        -0.5000 
     30 C           2.5420  -20.8669  -42.5752 C.2       8 UNK         0.5000 
     31 O           1.7453  -21.0617  -43.4968 O.2       8 UNK        -0.5000 
     32 CA          3.7905  -19.9947  -42.8038 C.3       8 UNK         0.1400 
     33 CB          5.0115  -20.8873  -43.0789 C.3       8 UNK        -0.1800 
     34 N           3.6228  -19.0815  -43.9339 N.am      8 UNK        -0.5000 
     35 C           2.8386  -17.9976  -43.9289 C.2       7 UNK         0.5000 
     36 O           2.2122  -17.6050  -42.9407 O.2       7 UNK        -0.5000 
     37 CA          2.7154  -17.2570  -45.2736 C.3       7 UNK         0.1400 
     38 CB          1.7129  -17.9763  -46.1867 C.3       7 UNK        -0.1800 
     39 N           2.2830  -15.8715  -45.0984 N.am      7 UNK        -0.5000 
     40 C           3.0696  -14.8751  -44.6687 C.2       6 UNK         0.5000 
     41 O           4.2678  -15.0083  -44.4162 O.2       6 UNK        -0.5000 
     42 CA          2.4085  -13.4956  -44.5000 C.3       6 UNK         0.1400 
     43 CB          2.5013  -12.6920  -45.8068 C.3       6 UNK        -0.1800 
     44 N           1.0028  -13.6202  -44.1240 N.am      6 UNK        -0.5000 
     45 C           0.5470  -13.7348  -42.8708 C.2       5 UNK         0.5000 
     46 O           1.2698  -13.6677  -41.8749 O.2       5 UNK        -0.5000 
     47 CA         -0.9701  -13.9777  -42.7146 C.3       5 UNK         0.1400 
     48 CB         -1.5179  -13.5370  -41.3413 C.3       5 UNK        -0.1800 
     49 N          -1.7640  -13.4064  -43.8087 N.am      5 UNK        -0.5000 
     50 C          -1.9111  -12.1130  -44.1363 C.2       4 UNK         0.5000 
     51 O          -1.4087  -11.1828  -43.5050 O.2       4 UNK        -0.5000 
     52 CA         -2.7416  -11.7991  -45.4000 C.3       4 UNK         0.1400 
     53 CB         -1.8224  -11.2939  -46.5238 C.3       4 UNK        -0.1800 
     54 N          -3.4983  -12.9482  -45.9022 N.am      4 UNK        -0.5000 
     55 C          -4.5998  -13.4618  -45.3367 C.2       3 UNK         0.5000 
     56 O          -5.1716  -12.9595  -44.3692 O.2       3 UNK        -0.5000 
     57 CA         -5.1041  -14.7978  -45.9153 C.3       3 UNK         0.1400 
     58 CB         -6.0264  -14.5727  -47.1226 C.3       3 UNK        -0.1800 
     59 N          -3.9942  -15.6757  -46.2965 N.am      3 UNK        -0.5000 
     60 C          -3.1939  -16.2999  -45.4195 C.2       2 UNK         0.5000 
     61 O          -3.3476  -16.2467  -44.2003 O.2       2 UNK        -0.5000 
     62 CA         -1.9926  -17.0734  -45.9874 C.3       2 UNK         0.1400 
     63 CB         -2.3394  -18.5549  -46.1748 C.3       2 UNK        -0.1800 
     64 N          -1.5102  -16.5010  -47.2461 N.am      2 UNK        -0.5000 
     65 C          -0.7477  -15.4001  -47.3089 C.2       1 UNK         0.5000 
     66 O          -0.3388  -14.8083  -46.3089 O.2       1 UNK        -0.5000 
     67 C           0.0565  -22.9511  -46.1581 C.2       11 UNK         0.5000 
     68 O          -0.6969  -23.4134  -47.0110 O.2       11 UNK        -0.5000 
     69 N          -0.3597  -22.3116  -45.0541 N.am      12 UNK        -0.5000 
     70 CA         -1.7520  -22.0002  -44.7171 C.3       12 UNK         0.1400 
     71 CB         -1.7692  -21.1258  -43.4546 C.3       12 UNK        -0.1800 
     72 C          -2.6601  -23.2328  -44.5354 C.2       12 UNK         0.5000 
     73 O          -3.8815  -23.1015  -44.6189 O.2       12 UNK        -0.5000 
     74 N          -2.0545  -24.4068  -44.3126 N.am      13 UNK        -0.5000 
     75 CA         -2.7142  -25.7109  -44.3140 C.3       13 UNK         0.1400 
     76 CB         -1.7196  -26.7694  -43.8137 C.3       13 UNK        -0.1800 
     77 C          -3.2814  -26.1090  -45.6940 C.2       13 UNK         0.5000 
     78 O          -4.2297  -26.8938  -45.7440 O.2       13 UNK        -0.5000 
     79 N          -2.7135  -25.5645  -46.7797 N.am      14 UNK        -0.5000 
     80 CA         -3.2235  -25.7003  -48.1395 C.3       14 UNK         0.1400 
     81 CB         -2.0431  -25.8221  -49.1163 C.3       14 UNK        -0.1800 
     82 C          -4.0768  -24.4698  -48.4811 C.2       14 UNK         0.5000 
     83 O          -3.6848  -23.3414  -48.1751 O.2       14 UNK        -0.5000 
     84 N          -5.2149  -24.7005  -49.1469 N.am      15 UNK        -0.5000 
     85 CA         -6.1525  -23.6520  -49.5582 C.3       15 UNK         0.1400 
     86 CB         -7.4488  -24.3016  -50.0643 C.3       15 UNK        -0.1800 
     87 C          -5.5796  -22.6991  -50.6233 C.2       15 UNK         0.5000 
     88 O          -5.9742  -21.5348  -50.6654 O.2       15 UNK        -0.5000 
     89 N          -4.6442  -23.1935  -51.4472 N.am      16 UNK        -0.5000 
     90 CA         -4.0206  -22.4540  -52.5465 C.3       16 UNK         0.1400 
     91 CB         -3.1234  -23.4010  -53.3566 C.3       16 UNK        -0.1800 
     92 C          -3.2323  -21.2052  -52.1106 C.2       16 UNK         0.5000 
     93 O          -3.1579  -20.2499  -52.8833 O.2       16 UNK        -0.5000 
     94 N          -2.6835  -21.2269  -50.8878 N.am      17 UNK        -0.5000 
     95 CA         -1.9638  -20.1025  -50.2889 C.3       17 UNK         0.1400 
     96 CB         -1.0437  -20.6303  -49.1770 C.3       17 UNK        -0.1800 
     97 C          -2.9100  -19.0171  -49.7395 C.2       17 UNK         0.5000 
     98 O          -2.4872  -17.8716  -49.5890 O.2       17 UNK        -0.5000 
     99 N          -4.1591  -19.3843  -49.4203 N.am      18 UNK        -0.5000 
    100 CA        -5.2004  -18.4548  -48.9768 C.3       18 UNK         0.1400 
    101 CB        -6.1353  -19.1699  -47.9898 C.3       18 UNK        -0.1800 
    102 C         -5.9877  -17.8909  -50.1711 C.2       18 UNK         0.5000 
    103 O         -6.3948  -16.7299  -50.1413 O.2       18 UNK        -0.5000 
    104 N         -6.1782  -18.7221  -51.2011 N.am      19 UNK        -0.5000 
    105 CA        -6.7325  -18.3540  -52.4984 C.3       19 UNK         0.1400 
    106 CB        -7.2457  -19.6374  -53.1762 C.3       19 UNK        -0.1800 
    107 C         -5.6875  -17.6470  -53.3855 C.2       19 UNK         0.5000 
    108 O         -4.5133  -17.5434  -53.0268 O.2       19 UNK        -0.5000 
    109 N         -6.1328  -17.2093  -54.5687 N.am      20 UNK        -0.5000 
    110 CA        -5.2812  -16.6393  -55.6169 C.3       20 UNK         0.1400 
    111 CB        -6.1544  -15.7593  -56.5268 C.3       20 UNK        -0.1800 
    112 C         -4.5326  -17.7079  -56.4459 C.2       20 UNK         0.5000 
    113 O         -3.7376  -17.3431  -57.3130 O.2       20 UNK        -0.5000 
    114 N         -4.8152  -18.9969  -56.1969 N.am      21 UNK        -0.5000 
    115 CA        -4.2698  -20.1485  -56.9211 C.3       21 UNK         0.1400 
    116 CB        -4.9781  -21.4260  -56.4491 C.3       21 UNK        -0.1800 
    117 C         -2.7408  -20.2974  -56.8065 C.2       21 UNK         0.5000 
    118 O         -2.1042  -20.7051  -57.7795 O.2       21 UNK        -0.5000 
    119 N         -2.1760  -19.9383  -55.6483 N.am      22 UNK        -0.5000 
    120 CA        -0.7274  -19.8100  -55.4397 C.3       22 UNK         0.1400 
    121 C         -0.3477  -18.6454  -54.4802 C.2       22 UNK         0.5000 
    122 N         -1.2113  -18.2231  -53.5634 N.am      22 UNK        -0.7600 
    123 O          0.7395  -18.0874  -54.5988 O.2       22 UNK        -0.5000 
    124 C124       -0.0289  -21.1771  -55.1530 C.3       23 UNK        -0.0398 
    125 S125        0.2924  -21.5944  -53.3982 S.3       23 UNK        -0.2404 
    126 C126        2.0833  -21.2756  -53.3111 C.3       23 UNK        -0.0205 
    127 H127       -4.7087  -14.6635  -50.2920 H         1 UNK         0.0600 
    128 H128       -3.5387  -15.7070  -51.1008 H         1 UNK         0.0600 
    129 H129       -3.6080  -13.9824  -51.4918 H         1 UNK         0.0600 
    130 H130       -1.3387  -15.6982  -50.3869 H         1 UNK         0.3000 
    131 H131       -0.2661  -13.7674  -48.5713 H         1 UNK         0.0600 
    132 H132        1.2652  -14.7904  -50.0909 H         1 UNK         0.0800 
    133 H133        1.7234  -15.2998  -48.4923 H         1 UNK         0.0800 
    134 H134        3.0672  -16.9210  -50.7230 H         1 UNK         0.0800 
    135 H135        3.1142  -17.3229  -49.0187 H         1 UNK         0.0800 
    136 H136        1.9336  -18.7726  -52.2824 H         1 UNK         0.1150 
    137 H137        3.1709  -22.7481  -51.2821 H         1 UNK         0.1150 
    138 H138        3.6962  -19.5500  -48.4643 H         1 UNK         0.1150 
    139 H139        3.6503  -23.2642  -48.9452 H         1 UNK         0.0800 
    140 H140        5.1667  -22.4050  -49.0571 H         1 UNK         0.0800 
    141 H141        1.7255  -21.4482  -47.6905 H         1 UNK         0.0800 
    142 H142        2.0178  -21.0189  -46.0322 H         1 UNK         0.0800 
    143 H143        1.7468  -23.8665  -47.0977 H         1 UNK         0.0600 
    144 H144        2.5144  -22.9345  -44.4299 H         1 UNK         0.3000 
    145 H145        2.0636  -26.0726  -42.8608 H         1 UNK         0.0600 
    146 H146        4.4904  -25.9114  -42.3504 H         1 UNK         0.0600 
    147 H147        4.2538  -26.4630  -44.0010 H         1 UNK         0.0600 
    148 H148        4.7259  -24.7955  -43.6967 H         1 UNK         0.0600 
    149 H149        3.3222  -23.6325  -42.0352 H         1 UNK         0.3000 
    150 H150        0.4132  -21.8486  -41.1051 H         1 UNK         0.0600 
    151 H151        2.4698  -23.2407  -39.3092 H         1 UNK         0.0600 
    152 H152        0.7233  -23.4109  -39.1791 H         1 UNK         0.0600 
    153 H153        1.4726  -21.8535  -38.8689 H         1 UNK         0.0600 
    154 H154        3.1317  -21.2510  -40.6694 H         1 UNK         0.3000 
    155 H155        3.9754  -19.4061  -41.9027 H         1 UNK         0.0600 
    156 H156        4.8668  -21.5080  -43.9644 H         1 UNK         0.0600 
    157 H157        5.2114  -21.5548  -42.2399 H         1 UNK         0.0600 
    158 H158        5.9098  -20.2893  -43.2336 H         1 UNK         0.0600 
    159 H159        4.0690  -19.3585  -44.7956 H         1 UNK         0.3000 
    160 H160        3.6901  -17.2492  -45.7665 H         1 UNK         0.0600 
    161 H161        0.8073  -18.2676  -45.6542 H         1 UNK         0.0600 
    162 H162        2.1549  -18.8758  -46.6088 H         1 UNK         0.0600 
    163 H163        1.4218  -17.3505  -47.0251 H         1 UNK         0.0600 
    164 H164        1.3067  -15.6703  -45.2707 H         1 UNK         0.3000 
    165 H165        2.9496  -12.9508  -43.7234 H         1 UNK         0.0600 
    166 H166        2.0653  -11.6997  -45.6897 H         1 UNK         0.0600 
    167 H167        3.5405  -12.5577  -46.1095 H         1 UNK         0.0600 
    168 H168        1.9817  -13.1905  -46.6261 H         1 UNK         0.0600 
    169 H169        0.3458  -13.7531  -44.8875 H         1 UNK         0.3000 
    170 H170       -1.1036  -15.0581  -42.7849 H         1 UNK         0.0600 
    171 H171       -1.0351  -14.0875  -40.5332 H         1 UNK         0.0600 
    172 H172       -1.3499  -12.4755  -41.1579 H         1 UNK         0.0600 
    173 H173       -2.5888  -13.7262  -41.2661 H         1 UNK         0.0600 
    174 H174       -2.2216  -14.0822  -44.4036 H         1 UNK         0.3000 
    175 H175       -3.4453  -11.0044  -45.1445 H         1 UNK         0.0600 
    176 H176       -2.3952  -11.0255  -47.4117 H         1 UNK         0.0600 
    177 H177       -1.2712  -10.4059  -46.2120 H         1 UNK         0.0600 
    178 H178       -1.0911  -12.0495  -46.8132 H         1 UNK         0.0600 
    179 H179       -3.1534  -13.3718  -46.7591 H         1 UNK         0.3000 
    180 H180       -5.6855  -15.2991  -45.1384 H         1 UNK         0.0600 
    181 H181       -5.5148  -14.0613  -47.9375 H         1 UNK         0.0600 
    182 H182       -6.8868  -13.9628  -46.8447 H         1 UNK         0.0600 
    183 H183       -6.4096  -15.5176  -47.5083 H         1 UNK         0.0600 
    184 H184       -3.7650  -15.7222  -47.2783 H         1 UNK         0.3000 
    185 H185       -1.1923  -17.0151  -45.2468 H         1 UNK         0.0600 
    186 H186       -2.6438  -18.9985  -45.2272 H         1 UNK         0.0600 
    187 H187       -3.1644  -18.6926  -46.8700 H         1 UNK         0.0600 
    188 H188       -1.4833  -19.1201  -46.5424 H         1 UNK         0.0600 
    189 H189       -1.8041  -16.9485  -48.1131 H         1 UNK         0.3000 
    190 H190        0.3438  -21.9514  -44.4140 H         1 UNK         0.3000 
    191 H191       -2.1639  -21.4235  -45.5470 H         1 UNK         0.0600 
    192 H192       -1.1430  -20.2410  -43.5735 H         1 UNK         0.0600 
    193 H193       -2.7800  -20.7833  -43.2303 H         1 UNK         0.0600 
    194 H194       -1.4102  -21.6772  -42.5858 H         1 UNK         0.0600 
    195 H195       -1.0516  -24.4054  -44.1872 H         1 UNK         0.3000 
    196 H196       -3.5500  -25.6654  -43.6130 H         1 UNK         0.0600 
    197 H197       -2.1893  -27.7523  -43.7586 H         1 UNK         0.0600 
    198 H198       -1.3535  -26.5273  -42.8156 H         1 UNK         0.0600 
    199 H199       -0.8571  -26.8537  -44.4758 H         1 UNK         0.0600 
    200 H200       -1.9915  -24.8590  -46.6617 H         1 UNK         0.3000 
    201 H201       -3.8332  -26.6020  -48.2273 H         1 UNK         0.0600 
    202 H202       -2.3955  -25.9686  -50.1379 H         1 UNK         0.0600 
    203 H203       -1.4180  -24.9283  -49.1114 H         1 UNK         0.0600 
    204 H204       -1.4102  -26.6732  -48.8646 H         1 UNK         0.0600 
    205 H205       -5.4738  -25.6509  -49.3703 H         1 UNK         0.3000 
    206 H206       -6.3932  -23.0503  -48.6790 H         1 UNK         0.0600 
    207 H207       -7.9127  -24.9128  -49.2898 H         1 UNK         0.0600 
    208 H208       -8.1767  -23.5435  -50.3570 H         1 UNK         0.0600 
    209 H209       -7.2694  -24.9369  -50.9326 H         1 UNK         0.0600 
    210 H210       -4.3712  -24.1584  -51.3351 H         1 UNK         0.3000 
    211 H211       -4.8290  -22.1132  -53.1932 H         1 UNK         0.0600 
    212 H212       -2.3094  -23.7999  -52.7499 H         1 UNK         0.0600 
    213 H213       -2.6749  -22.8815  -54.2047 H         1 UNK         0.0600 
    214 H214       -3.6917  -24.2411  -53.7558 H         1 UNK         0.0600 
    215 H215       -2.8050  -22.0481  -50.3112 H         1 UNK         0.3000 
    216 H216       -1.3342  -19.6391  -51.0514 H         1 UNK         0.0600 
    217 H217       -0.4620  -19.8207  -48.7343 H         1 UNK         0.0600 
    218 H218       -0.3332  -21.3598  -49.5669 H         1 UNK         0.0600 
    219 H219       -1.6117  -21.1071  -48.3768 H         1 UNK         0.0600 
    220 H220       -4.4475  -20.3367  -49.5996 H         1 UNK         0.3000 
    221 H221       -4.7456  -17.6114  -48.4539 H         1 UNK         0.0600 
    222 H222       -6.6406  -20.0183  -48.4524 H         1 UNK         0.0600 
    223 H223       -5.5860  -19.5394  -47.1237 H         1 UNK         0.0600 
    224 H224       -6.9043  -18.4899  -47.6214 H         1 UNK         0.0600 
    225 H225       -5.8571  -19.6804  -51.1108 H         1 UNK         0.3000 
    226 H226       -7.5724  -17.6732  -52.3458 H         1 UNK         0.0600 
    227 H227       -7.7650  -19.4195  -54.1098 H         1 UNK         0.0600 
    228 H228       -6.4297  -20.3236  -53.4038 H         1 UNK         0.0600 
    229 H229       -7.9515  -20.1652  -52.5342 H         1 UNK         0.0600 
    230 H230       -7.1102  -17.3190  -54.7990 H         1 UNK         0.3000 
    231 H231       -4.5254  -16.0017  -55.1531 H         1 UNK         0.0600 
    232 H232       -6.9241  -16.3431  -57.0331 H         1 UNK         0.0600 
    233 H233       -5.5538  -15.2713  -57.2956 H         1 UNK         0.0600 
    234 H234       -6.6489  -14.9720  -55.9574 H         1 UNK         0.0600 
    235 H235       -5.4767  -19.1979  -55.4637 H         1 UNK         0.3000 
    236 H236       -4.5023  -20.0062  -57.9785 H         1 UNK         0.0600 
    237 H237       -6.0542  -21.3669  -56.6127 H         1 UNK         0.0600 
    238 H238       -4.6140  -22.2990  -56.9924 H         1 UNK         0.0600 
    239 H239       -4.8078  -21.6058  -55.3896 H         1 UNK         0.0600 
    240 H240       -2.7618  -19.6566  -54.8722 H         1 UNK         0.3000 
    241 H241       -0.3275  -19.4702  -56.3978 H         1 UNK         0.0600 
    242 H242       -2.0679  -18.7316  -53.3664 H         1 UNK         0.3800 
    243 H243       -0.9498  -17.4523  -52.9727 H         1 UNK         0.3800 
    244 H244        0.9185  -21.2058  -55.6925 H         1 UNK         0.0800 
    245 H245       -0.6075  -21.9946  -55.5844 H         1 UNK         0.0800 
    246 H246        2.6241  -22.1781  -53.5997 H         1 UNK         0.0800 
    247 H247        2.3635  -20.5065  -54.0327 H         1 UNK         0.0800 
@<TRIPOS>BOND
     1    1    2 1    
     2    1  127 1    
     3    1  128 1    
     4    1  129 1    
     5    2    3 2    
     6    2    4 am   BACKBONE|DICT|INTERRES
     7    4    5 1    
     8    4  130 1    
     9    5    6 1    
    10    5   65 1    
    11    5  131 1    
    12    6    7 1    
    13    6  132 1    
    14    6  133 1    
    15    7    8 1    
    16    8    9 1    
    17    8  134 1    
    18    8  135 1    
    19    9   10 ar   
    20    9   14 ar   
    21   10   11 ar   
    22   10  136 1    
    23   11   12 ar   
    24   11  126 1    
    25   12   13 ar   
    26   12  137 1    
    27   13   14 ar   
    28   13   15 1    
    29   14  138 1    
    30   15   16 1    
    31   15  139 1    
    32   15  140 1    
    33   16   17 1    
    34   17   18 1    
    35   17  141 1    
    36   17  142 1    
    37   18   19 1    
    38   18   67 1    
    39   18  143 1    
    40   19   20 am   BACKBONE|DICT|INTERRES
    41   19  144 1    
    42   20   21 2    
    43   20   22 1    
    44   22   23 1    
    45   22   24 1    
    46   22  145 1    
    47   23  146 1    
    48   23  147 1    
    49   23  148 1    
    50   24   25 am   BACKBONE|DICT|INTERRES
    51   24  149 1    
    52   25   26 2    
    53   25   27 1    
    54   27   28 1    
    55   27   29 1    
    56   27  150 1    
    57   28  151 1    
    58   28  152 1    
    59   28  153 1    
    60   29   30 am   BACKBONE|DICT|INTERRES
    61   29  154 1    
    62   30   31 2    
    63   30   32 1    
    64   32   33 1    
    65   32   34 1    
    66   32  155 1    
    67   33  156 1    
    68   33  157 1    
    69   33  158 1    
    70   34   35 am   BACKBONE|DICT|INTERRES
    71   34  159 1    
    72   35   36 2    
    73   35   37 1    
    74   37   38 1    
    75   37   39 1    
    76   37  160 1    
    77   38  161 1    
    78   38  162 1    
    79   38  163 1    
    80   39   40 am   BACKBONE|DICT|INTERRES
    81   39  164 1    
    82   40   41 2    
    83   40   42 1    
    84   42   43 1    
    85   42   44 1    
    86   42  165 1    
    87   43  166 1    
    88   43  167 1    
    89   43  168 1    
    90   44   45 am   BACKBONE|DICT|INTERRES
    91   44  169 1    
    92   45   46 2    
    93   45   47 1    
    94   47   48 1    
    95   47   49 1    
    96   47  170 1    
    97   48  171 1    
    98   48  172 1    
    99   48  173 1    
   100   49   50 am   BACKBONE|DICT|INTERRES
   101   49  174 1    
   102   50   51 2    
   103   50   52 1    
   104   52   53 1    
   105   52   54 1    
   106   52  175 1    
   107   53  176 1    
   108   53  177 1    
   109   53  178 1    
   110   54   55 am   BACKBONE|DICT|INTERRES
   111   54  179 1    
   112   55   56 2    
   113   55   57 1    
   114   57   58 1    
   115   57   59 1    
   116   57  180 1    
   117   58  181 1    
   118   58  182 1    
   119   58  183 1    
   120   59   60 am   BACKBONE|DICT|INTERRES
   121   59  184 1    
   122   60   61 2    
   123   60   62 1    
   124   62   63 1    
   125   62   64 1    
   126   62  185 1    
   127   63  186 1    
   128   63  187 1    
   129   63  188 1    
   130   64   65 am   BACKBONE|DICT|INTERRES
   131   64  189 1    
   132   65   66 2    
   133   67   68 2    
   134   67   69 am   BACKBONE|DICT|INTERRES
   135   69   70 1    
   136   69  190 1    
   137   70   71 1    
   138   70   72 1    
   139   70  191 1    
   140   71  192 1    
   141   71  193 1    
   142   71  194 1    
   143   72   73 2    
   144   72   74 am   BACKBONE|DICT|INTERRES
   145   74   75 1    
   146   74  195 1    
   147   75   76 1    
   148   75   77 1    
   149   75  196 1    
   150   76  197 1    
   151   76  198 1    
   152   76  199 1    
   153   77   78 2    
   154   77   79 am   BACKBONE|DICT|INTERRES
   155   79   80 1    
   156   79  200 1    
   157   80   81 1    
   158   80   82 1    
   159   80  201 1    
   160   81  202 1    
   161   81  203 1    
   162   81  204 1    
   163   82   83 2    
   164   82   84 am   BACKBONE|DICT|INTERRES
   165   84   85 1    
   166   84  205 1    
   167   85   86 1    
   168   85   87 1    
   169   85  206 1    
   170   86  207 1    
   171   86  208 1    
   172   86  209 1    
   173   87   88 2    
   174   87   89 am   BACKBONE|DICT|INTERRES
   175   89   90 1    
   176   89  210 1    
   177   90   91 1    
   178   90   92 1    
   179   90  211 1    
   180   91  212 1    
   181   91  213 1    
   182   91  214 1    
   183   92   93 2    
   184   92   94 am   BACKBONE|DICT|INTERRES
   185   94   95 1    
   186   94  215 1    
   187   95   96 1    
   188   95   97 1    
   189   95  216 1    
   190   96  217 1    
   191   96  218 1    
   192   96  219 1    
   193   97   98 2    
   194   97   99 am   BACKBONE|DICT|INTERRES
   195   99  100 1    
   196   99  220 1    
   197  100  101 1    
   198  100  102 1    
   199  100  221 1    
   200  101  222 1    
   201  101  223 1    
   202  101  224 1    
   203  102  103 2    
   204  102  104 am   BACKBONE|DICT|INTERRES
   205  104  105 1    
   206  104  225 1    
   207  105  106 1    
   208  105  107 1    
   209  105  226 1    
   210  106  227 1    
   211  106  228 1    
   212  106  229 1    
   213  107  108 2    
   214  107  109 am   BACKBONE|DICT|INTERRES
   215  109  110 1    
   216  109  230 1    
   217  110  111 1    
   218  110  112 1    
   219  110  231 1    
   220  111  232 1    
   221  111  233 1    
   222  111  234 1    
   223  112  113 2    
   224  112  114 am   BACKBONE|DICT|INTERRES
   225  114  115 1    
   226  114  235 1    
   227  115  116 1    
   228  115  117 1    
   229  115  236 1    
   230  116  237 1    
   231  116  238 1    
   232  116  239 1    
   233  117  118 2    
   234  117  119 am   BACKBONE|DICT|INTERRES
   235  119  120 1    
   236  119  240 1    
   237  120  121 1    
   238  120  124 1    
   239  120  241 1    
   240  121  122 am   BACKBONE|DICT|INTERRES
   241  121  123 2    
   242  122  242 1    
   243  122  243 1    
   244  124  125 1    
   245  124  244 1    
   246  124  245 1    
   247  125  126 1    
   248  126  246 1    
   249  126  247 1    
@<TRIPOS>SUBSTRUCTURE
     1 UNK         1 GROUP             0       ****    0 ROOT    
