@<TRIPOS>MOLECULE
3R540
247   249    1
SMALL
USER_CHARGES


@<TRIPOS>ATOM
      1 CA          1.2866  -13.1735  -53.7958 C.3       0 UNK        -0.1800 
      2 C           0.6130  -13.6092  -52.5023 C.2       0 UNK         0.5000 
      3 O           1.2662  -14.1953  -51.6393 O.2       0 UNK        -0.5000 
      4 N          -0.6908  -13.3340  -52.3708 N.am      1 UNK        -0.5000 
      5 CA         -1.4946  -13.6464  -51.1879 C.3       1 UNK         0.1400 
      6 C6         -3.0054  -13.6357  -51.5310 C.3       23 UNK        -0.0398 
      7 S7         -4.1346  -14.0685  -50.1614 S.3       23 UNK        -0.2404 
      8 C8         -4.0240  -15.8866  -50.1025 C.3       23 UNK        -0.0205 
      9 C9         -2.8405  -16.3451  -49.2645 C.ar      23 UNK        -0.0193 
     10 C10        -1.7282  -16.9399  -49.8625 C.ar      23 UNK        -0.1150 
     11 C11        -0.6259  -17.3262  -49.0988 C.ar      23 UNK        -0.0193 
     12 C12        -0.6460  -17.1318  -47.7160 C.ar      23 UNK        -0.1150 
     13 C13        -1.7658  -16.5619  -47.1015 C.ar      23 UNK        -0.0193 
     14 C14        -2.8566  -16.1699  -47.8799 C.ar      23 UNK        -0.1150 
     15 C15        -1.8032  -16.3532  -45.5991 C.3       23 UNK        -0.0205 
     16 S16        -2.6664  -17.7153  -44.7572 S.3       23 UNK        -0.2404 
     17 C17        -1.4459  -19.0632  -44.9038 C.3       23 UNK        -0.0398 
     18 CA         -1.8398  -20.1941  -45.8843 C.3       11 UNK         0.1400 
     19 N          -0.6706  -21.0285  -46.1810 N.am      11 UNK        -0.5000 
     20 C          -0.6580  -22.1096  -46.9757 C.2       10 UNK         0.5000 
     21 O          -1.6145  -22.4496  -47.6693 O.2       10 UNK        -0.5000 
     22 CA          0.6090  -22.9902  -46.9577 C.3       10 UNK         0.1400 
     23 CB          1.4553  -22.7457  -48.2156 C.3       10 UNK        -0.1800 
     24 N           1.4587  -22.8136  -45.7757 N.am      10 UNK        -0.5000 
     25 C           1.0993  -22.9837  -44.4935 C.2       9 UNK         0.5000 
     26 O          -0.0139  -23.3731  -44.1374 O.2       9 UNK        -0.5000 
     27 CA          2.1382  -22.5765  -43.4283 C.3       9 UNK         0.1400 
     28 CB          2.9411  -23.8011  -42.9672 C.3       9 UNK        -0.1800 
     29 N           3.0660  -21.5304  -43.8775 N.am      9 UNK        -0.5000 
     30 C           2.7058  -20.3077  -44.2908 C.2       8 UNK         0.5000 
     31 O           1.5393  -19.9122  -44.3007 O.2       8 UNK        -0.5000 
     32 CA          3.8395  -19.3963  -44.7873 C.3       8 UNK         0.1400 
     33 CB          3.3293  -18.2935  -45.7347 C.3       8 UNK        -0.1800 
     34 N           4.5388  -18.7933  -43.6543 N.am      8 UNK        -0.5000 
     35 C           5.5311  -19.3837  -42.9718 C.2       7 UNK         0.5000 
     36 O           5.9495  -20.5121  -43.2370 O.2       7 UNK        -0.5000 
     37 CA          6.1845  -18.5991  -41.8147 C.3       7 UNK         0.1400 
     38 CB          7.5257  -18.0011  -42.2675 C.3       7 UNK        -0.1800 
     39 N           5.3451  -17.5219  -41.2897 N.am      7 UNK        -0.5000 
     40 C           4.3193  -17.6965  -40.4473 C.2       6 UNK         0.5000 
     41 O           3.9979  -18.7913  -39.9823 O.2       6 UNK        -0.5000 
     42 CA          3.4802  -16.4509  -40.0817 C.3       6 UNK         0.1400 
     43 CB          4.1443  -15.1038  -40.4480 C.3       6 UNK        -0.1800 
     44 N           2.1364  -16.5375  -40.6625 N.am      6 UNK        -0.5000 
     45 C           1.8456  -16.7129  -41.9603 C.2       5 UNK         0.5000 
     46 O           2.6870  -16.7062  -42.8583 O.2       5 UNK        -0.5000 
     47 CA          0.3641  -16.9345  -42.3061 C.3       5 UNK         0.1400 
     48 CB         -0.2210  -18.1406  -41.5499 C.3       5 UNK        -0.1800 
     49 N          -0.4547  -15.7506  -42.0445 N.am      5 UNK        -0.5000 
     50 C          -0.3588  -14.5944  -42.7129 C.2       4 UNK         0.5000 
     51 O           0.4484  -14.3839  -43.6217 O.2       4 UNK        -0.5000 
     52 CA         -1.3416  -13.4885  -42.3070 C.3       4 UNK         0.1400 
     53 CB         -0.8752  -12.7710  -41.0279 C.3       4 UNK        -0.1800 
     54 N          -1.4357  -12.5324  -43.4044 N.am      4 UNK        -0.5000 
     55 C          -2.4842  -11.7508  -43.6822 C.2       3 UNK         0.5000 
     56 O          -3.5122  -11.7246  -43.0041 O.2       3 UNK        -0.5000 
     57 CA         -2.3706  -10.8340  -44.9178 C.3       3 UNK         0.1400 
     58 CB         -2.0376   -9.3968  -44.4869 C.3       3 UNK        -0.1800 
     59 N          -1.3668  -11.2793  -45.8896 N.am      3 UNK        -0.5000 
     60 C          -1.5383  -12.2968  -46.7427 C.2       2 UNK         0.5000 
     61 O          -2.5656  -12.9754  -46.7973 O.2       2 UNK        -0.5000 
     62 CA         -0.3440  -12.6167  -47.6582 C.3       2 UNK         0.1400 
     63 CB          0.6789  -13.4976  -46.9244 C.3       2 UNK        -0.1800 
     64 N          -0.7724  -13.3141  -48.8682 N.am      2 UNK        -0.5000 
     65 C          -1.1117  -12.7161  -50.0163 C.2       1 UNK         0.5000 
     66 O          -1.1068  -11.4940  -50.1859 O.2       1 UNK        -0.5000 
     67 C          -3.0127  -21.0326  -45.3225 C.2       11 UNK         0.5000 
     68 O          -4.1607  -20.8214  -45.7149 O.2       11 UNK        -0.5000 
     69 N          -2.6867  -21.9928  -44.4452 N.am      12 UNK        -0.5000 
     70 CA         -3.6277  -22.9446  -43.8666 C.3       12 UNK         0.1400 
     71 CB         -3.2978  -23.1394  -42.3779 C.3       12 UNK        -0.1800 
     72 C          -3.5765  -24.2821  -44.6197 C.2       12 UNK         0.5000 
     73 O          -4.6206  -24.7742  -45.0501 O.2       12 UNK        -0.5000 
     74 N          -2.3690  -24.8465  -44.7688 N.am      13 UNK        -0.5000 
     75 CA         -2.1142  -26.1480  -45.3856 C.3       13 UNK         0.1400 
     76 CB         -0.6528  -26.5561  -45.1358 C.3       13 UNK        -0.1800 
     77 C          -2.4609  -26.1413  -46.8847 C.2       13 UNK         0.5000 
     78 O          -1.7167  -25.5753  -47.6847 O.2       13 UNK        -0.5000 
     79 N          -3.6082  -26.7473  -47.2165 N.am      14 UNK        -0.5000 
     80 CA         -4.2474  -26.7792  -48.5362 C.3       14 UNK         0.1400 
     81 CB         -3.3386  -27.4343  -49.5992 C.3       14 UNK        -0.1800 
     82 C          -4.8062  -25.4131  -48.9900 C.2       14 UNK         0.5000 
     83 O          -5.0427  -25.2363  -50.1840 O.2       14 UNK        -0.5000 
     84 N          -5.0425  -24.4925  -48.0405 N.am      15 UNK        -0.5000 
     85 CA         -5.7257  -23.2015  -48.1969 C.3       15 UNK         0.1400 
     86 CB         -7.2462  -23.4374  -48.3010 C.3       15 UNK        -0.1800 
     87 C          -5.1863  -22.3421  -49.3609 C.2       15 UNK         0.5000 
     88 O          -5.9115  -22.0703  -50.3212 O.2       15 UNK        -0.5000 
     89 N          -3.9032  -21.9683  -49.2741 N.am      16 UNK        -0.5000 
     90 CA         -3.1522  -21.1862  -50.2607 C.3       16 UNK         0.1400 
     91 CB         -3.7059  -19.7515  -50.3751 C.3       16 UNK        -0.1800 
     92 C          -3.0260  -21.9006  -51.6197 C.2       16 UNK         0.5000 
     93 O          -3.1037  -21.2523  -52.6661 O.2       16 UNK        -0.5000 
     94 N          -2.8367  -23.2277  -51.5672 N.am      17 UNK        -0.5000 
     95 CA         -2.7719  -24.1600  -52.6979 C.3       17 UNK         0.1400 
     96 CB         -1.5163  -23.8938  -53.5557 C.3       17 UNK        -0.1800 
     97 C          -4.0821  -24.1665  -53.5136 C.2       17 UNK         0.5000 
     98 O          -4.0535  -24.0495  -54.7384 O.2       17 UNK        -0.5000 
     99 N          -5.2082  -24.2831  -52.7961 N.am      18 UNK        -0.5000 
    100 CA        -6.5899  -24.1860  -53.2720 C.3       18 UNK         0.1400 
    101 CB        -6.9371  -25.3616  -54.2095 C.3       18 UNK        -0.1800 
    102 C         -6.8929  -22.8013  -53.8798 C.2       18 UNK         0.5000 
    103 O         -7.4278  -22.7111  -54.9868 O.2       18 UNK        -0.5000 
    104 N         -6.5323  -21.7497  -53.1281 N.am      19 UNK        -0.5000 
    105 CA        -6.6751  -20.3285  -53.4587 C.3       19 UNK         0.1400 
    106 CB        -8.1626  -19.9192  -53.4513 C.3       19 UNK        -0.1800 
    107 C         -5.9401  -19.9281  -54.7570 C.2       19 UNK         0.5000 
    108 O         -6.4925  -19.2012  -55.5849 O.2       19 UNK        -0.5000 
    109 N         -4.6973  -20.4032  -54.9016 N.am      20 UNK        -0.5000 
    110 CA        -3.8109  -20.1427  -56.0383 C.3       20 UNK         0.1400 
    111 CB        -3.4004  -21.4821  -56.6722 C.3       20 UNK        -0.1800 
    112 C         -2.5862  -19.3162  -55.6021 C.2       20 UNK         0.5000 
    113 O         -1.5181  -19.4345  -56.2057 O.2       20 UNK        -0.5000 
    114 N         -2.7518  -18.5122  -54.5402 N.am      21 UNK        -0.5000 
    115 CA        -1.7531  -17.6256  -53.9309 C.3       21 UNK         0.1400 
    116 CB        -1.4489  -16.4344  -54.8625 C.3       21 UNK        -0.1800 
    117 C         -0.4769  -18.3629  -53.4629 C.2       21 UNK         0.5000 
    118 O          0.6172  -17.8020  -53.5317 O.2       21 UNK        -0.5000 
    119 N         -0.6461  -19.6159  -53.0180 N.am      22 UNK        -0.5000 
    120 CA         0.4204  -20.5681  -52.6559 C.3       22 UNK         0.1400 
    121 C          1.2601  -21.0867  -53.8650 C.2       22 UNK         0.5000 
    122 N          0.8571  -20.8640  -55.1113 N.am      22 UNK        -0.7600 
    123 O          2.2834  -21.7381  -53.6744 O.2       22 UNK        -0.5000 
    124 C124        1.3129  -20.1032  -51.4667 C.3       23 UNK        -0.0398 
    125 S125        0.3485  -19.7429  -49.9598 S.3       23 UNK        -0.2404 
    126 C126        0.5780  -17.9497  -49.7814 C.3       23 UNK        -0.0205 
    127 H127        1.6900  -14.0415  -54.3175 H         1 UNK         0.0600 
    128 H128        2.1084  -12.4908  -53.5799 H         1 UNK         0.0600 
    129 H129        0.5907  -12.6678  -54.4658 H         1 UNK         0.0600 
    130 H130       -1.1601  -12.8118  -53.0968 H         1 UNK         0.3000 
    131 H131       -1.2281  -14.6611  -50.9064 H         1 UNK         0.0600 
    132 H132       -3.2944  -12.6459  -51.8882 H         1 UNK         0.0800 
    133 H133       -3.2000  -14.3169  -52.3606 H         1 UNK         0.0800 
    134 H134       -4.9401  -16.2788  -49.6587 H         1 UNK         0.0800 
    135 H135       -3.9773  -16.2946  -51.1131 H         1 UNK         0.0800 
    136 H136       -1.7063  -17.0903  -50.9285 H         1 UNK         0.1150 
    137 H137        0.2064  -17.4297  -47.1221 H         1 UNK         0.1150 
    138 H138       -3.7151  -15.7125  -47.4079 H         1 UNK         0.1150 
    139 H139       -0.7917  -16.2493  -45.2083 H         1 UNK         0.0800 
    140 H140       -2.3130  -15.4157  -45.3714 H         1 UNK         0.0800 
    141 H141       -1.2570  -19.4719  -43.9106 H         1 UNK         0.0800 
    142 H142       -0.4990  -18.6253  -45.2164 H         1 UNK         0.0800 
    143 H143       -2.1627  -19.7475  -46.8274 H         1 UNK         0.0600 
    144 H144        0.1653  -20.8153  -45.6491 H         1 UNK         0.3000 
    145 H145        0.2767  -24.0275  -46.9715 H         1 UNK         0.0600 
    146 H146        2.2787  -23.4570  -48.2818 H         1 UNK         0.0600 
    147 H147        0.8557  -22.8603  -49.1200 H         1 UNK         0.0600 
    148 H148        1.8774  -21.7403  -48.2255 H         1 UNK         0.0600 
    149 H149        2.3970  -22.4877  -45.9527 H         1 UNK         0.3000 
    150 H150        1.5874  -22.1833  -42.5714 H         1 UNK         0.0600 
    151 H151        2.2789  -24.5886  -42.6046 H         1 UNK         0.0600 
    152 H152        3.6171  -23.5450  -42.1511 H         1 UNK         0.0600 
    153 H153        3.5371  -24.2205  -43.7788 H         1 UNK         0.0600 
    154 H154        4.0529  -21.7534  -43.8506 H         1 UNK         0.3000 
    155 H155        4.5388  -20.0098  -45.3595 H         1 UNK         0.0600 
    156 H156        2.8536  -18.7289  -46.6145 H         1 UNK         0.0600 
    157 H157        4.1481  -17.6654  -46.0853 H         1 UNK         0.0600 
    158 H158        2.5930  -17.6464  -45.2586 H         1 UNK         0.0600 
    159 H159        4.1676  -17.9048  -43.3300 H         1 UNK         0.3000 
    160 H160        6.3865  -19.3102  -41.0108 H         1 UNK         0.0600 
    161 H161        7.3921  -17.2741  -43.0696 H         1 UNK         0.0600 
    162 H162        8.1958  -18.7784  -42.6374 H         1 UNK         0.0600 
    163 H163        8.0340  -17.5021  -41.4422 H         1 UNK         0.0600 
    164 H164        5.5203  -16.5943  -41.6482 H         1 UNK         0.3000 
    165 H165        3.3564  -16.4729  -38.9979 H         1 UNK         0.0600 
    166 H166        3.5444  -14.2680  -40.0877 H         1 UNK         0.0600 
    167 H167        5.1284  -15.0126  -39.9867 H         1 UNK         0.0600 
    168 H168        4.2664  -14.9762  -41.5240 H         1 UNK         0.0600 
    169 H169        1.3769  -16.5650  -39.9977 H         1 UNK         0.3000 
    170 H170        0.3136  -17.1566  -43.3728 H         1 UNK         0.0600 
    171 H171       -1.2530  -18.3273  -41.8458 H         1 UNK         0.0600 
    172 H172        0.3488  -19.0460  -41.7646 H         1 UNK         0.0600 
    173 H173       -0.2136  -17.9947  -40.4695 H         1 UNK         0.0600 
    174 H174       -1.1407  -15.8336  -41.3085 H         1 UNK         0.3000 
    175 H175       -2.3193  -13.9451  -42.1388 H         1 UNK         0.0600 
    176 H176        0.1010  -12.3040  -41.1644 H         1 UNK         0.0600 
    177 H177       -1.5793  -11.9934  -40.7314 H         1 UNK         0.0600 
    178 H178       -0.7928  -13.4680  -40.1932 H         1 UNK         0.0600 
    179 H179       -0.6441  -12.5495  -44.0348 H         1 UNK         0.3000 
    180 H180       -3.3469  -10.8230  -45.4073 H         1 UNK         0.0600 
    181 H181       -1.0653   -9.3386  -43.9959 H         1 UNK         0.0600 
    182 H182       -2.7820   -9.0163  -43.7860 H         1 UNK         0.0600 
    183 H183       -2.0244   -8.7210  -45.3422 H         1 UNK         0.0600 
    184 H184       -0.4938  -10.7713  -45.8969 H         1 UNK         0.3000 
    185 H185        0.1461  -11.6801  -47.9327 H         1 UNK         0.0600 
    186 H186        1.0739  -12.9915  -46.0428 H         1 UNK         0.0600 
    187 H187        0.2389  -14.4367  -46.5901 H         1 UNK         0.0600 
    188 H188        1.5269  -13.7368  -47.5664 H         1 UNK         0.0600 
    189 H189       -0.8761  -14.3158  -48.7859 H         1 UNK         0.3000 
    190 H190       -1.7072  -22.1553  -44.2426 H         1 UNK         0.3000 
    191 H191       -4.6473  -22.5590  -43.9342 H         1 UNK         0.0600 
    192 H192       -3.4010  -22.2033  -41.8289 H         1 UNK         0.0600 
    193 H193       -3.9746  -23.8614  -41.9193 H         1 UNK         0.0600 
    194 H194       -2.2796  -23.5015  -42.2294 H         1 UNK         0.0600 
    195 H195       -1.5483  -24.3455  -44.4375 H         1 UNK         0.3000 
    196 H196       -2.7472  -26.8829  -44.8838 H         1 UNK         0.0600 
    197 H197       -0.4433  -27.5354  -45.5676 H         1 UNK         0.0600 
    198 H198       -0.4388  -26.6179  -44.0687 H         1 UNK         0.0600 
    199 H199        0.0503  -25.8489  -45.5737 H         1 UNK         0.0600 
    200 H200       -4.1569  -27.1509  -46.4694 H         1 UNK         0.3000 
    201 H201       -5.1196  -27.4241  -48.4214 H         1 UNK         0.0600 
    202 H202       -2.9430  -28.3874  -49.2484 H         1 UNK         0.0600 
    203 H203       -2.4955  -26.7966  -49.8654 H         1 UNK         0.0600 
    204 H204       -3.8934  -27.6336  -50.5168 H         1 UNK         0.0600 
    205 H205       -4.7999  -24.7335  -47.0851 H         1 UNK         0.3000 
    206 H206       -5.5408  -22.6382  -47.2813 H         1 UNK         0.0600 
    207 H207       -7.6211  -23.9763  -47.4309 H         1 UNK         0.0600 
    208 H208       -7.7862  -22.4913  -48.3540 H         1 UNK         0.0600 
    209 H209       -7.5057  -24.0139  -49.1898 H         1 UNK         0.0600 
    210 H210       -3.3462  -22.2781  -48.4810 H         1 UNK         0.3000 
    211 H211       -2.1380  -21.1111  -49.8743 H         1 UNK         0.0600 
    212 H212       -4.7263  -19.7327  -50.7548 H         1 UNK         0.0600 
    213 H213       -3.0960  -19.1519  -51.0504 H         1 UNK         0.0600 
    214 H214       -3.7000  -19.2543  -49.4050 H         1 UNK         0.0600 
    215 H215       -2.8239  -23.6550  -50.6515 H         1 UNK         0.3000 
    216 H216       -2.6735  -25.1587  -52.2696 H         1 UNK         0.0600 
    217 H217       -1.4143  -24.6445  -54.3400 H         1 UNK         0.0600 
    218 H218       -0.6106  -23.9333  -52.9508 H         1 UNK         0.0600 
    219 H219       -1.5515  -22.9191  -54.0425 H         1 UNK         0.0600 
    220 H220       -5.1148  -24.4302  -51.7916 H         1 UNK         0.3000 
    221 H221       -7.2207  -24.2758  -52.3863 H         1 UNK         0.0600 
    222 H222       -6.3768  -25.3179  -55.1438 H         1 UNK         0.0600 
    223 H223       -6.7240  -26.3192  -53.7346 H         1 UNK         0.0600 
    224 H224       -7.9972  -25.3546  -54.4648 H         1 UNK         0.0600 
    225 H225       -6.1366  -21.9399  -52.2097 H         1 UNK         0.3000 
    226 H226       -6.1840  -19.7808  -52.6542 H         1 UNK         0.0600 
    227 H227       -8.6393  -20.1875  -52.5084 H         1 UNK         0.0600 
    228 H228       -8.2724  -18.8411  -53.5736 H         1 UNK         0.0600 
    229 H229       -8.7195  -20.3984  -54.2571 H         1 UNK         0.0600 
    230 H230       -4.2888  -20.9479  -54.1455 H         1 UNK         0.3000 
    231 H231       -4.3275  -19.5566  -56.8004 H         1 UNK         0.0600 
    232 H232       -2.7672  -22.0630  -56.0015 H         1 UNK         0.0600 
    233 H233       -2.8430  -21.3260  -57.5964 H         1 UNK         0.0600 
    234 H234       -4.2733  -22.0876  -56.9171 H         1 UNK         0.0600 
    235 H235       -3.6600  -18.5211  -54.0995 H         1 UNK         0.3000 
    236 H236       -2.2249  -17.2204  -53.0377 H         1 UNK         0.0600 
    237 H237       -2.3634  -15.9184  -55.1547 H         1 UNK         0.0600 
    238 H238       -0.8102  -15.7024  -54.3677 H         1 UNK         0.0600 
    239 H239       -0.9378  -16.7531  -55.7714 H         1 UNK         0.0600 
    240 H240       -1.5828  -20.0063  -53.0241 H         1 UNK         0.3000 
    241 H241       -0.1096  -21.4559  -52.3118 H         1 UNK         0.0600 
    242 H242        1.4101  -21.2197  -55.8743 H         1 UNK         0.3800 
    243 H243        0.0210  -20.3262  -55.3144 H         1 UNK         0.3800 
    244 H244        2.0228  -20.8875  -51.1998 H         1 UNK         0.0800 
    245 H245        1.9191  -19.2413  -51.7468 H         1 UNK         0.0800 
    246 H246        1.4880  -17.7557  -49.2118 H         1 UNK         0.0800 
    247 H247        0.7199  -17.4831  -50.7571 H         1 UNK         0.0800 
@<TRIPOS>BOND
     1    1    2 1    
     2    1  127 1    
     3    1  128 1    
     4    1  129 1    
     5    2    3 2    
     6    2    4 am   BACKBONE|DICT|INTERRES
     7    4    5 1    
     8    4  130 1    
     9    5    6 1    
    10    5   65 1    
    11    5  131 1    
    12    6    7 1    
    13    6  132 1    
    14    6  133 1    
    15    7    8 1    
    16    8    9 1    
    17    8  134 1    
    18    8  135 1    
    19    9   10 ar   
    20    9   14 ar   
    21   10   11 ar   
    22   10  136 1    
    23   11   12 ar   
    24   11  126 1    
    25   12   13 ar   
    26   12  137 1    
    27   13   14 ar   
    28   13   15 1    
    29   14  138 1    
    30   15   16 1    
    31   15  139 1    
    32   15  140 1    
    33   16   17 1    
    34   17   18 1    
    35   17  141 1    
    36   17  142 1    
    37   18   19 1    
    38   18   67 1    
    39   18  143 1    
    40   19   20 am   BACKBONE|DICT|INTERRES
    41   19  144 1    
    42   20   21 2    
    43   20   22 1    
    44   22   23 1    
    45   22   24 1    
    46   22  145 1    
    47   23  146 1    
    48   23  147 1    
    49   23  148 1    
    50   24   25 am   BACKBONE|DICT|INTERRES
    51   24  149 1    
    52   25   26 2    
    53   25   27 1    
    54   27   28 1    
    55   27   29 1    
    56   27  150 1    
    57   28  151 1    
    58   28  152 1    
    59   28  153 1    
    60   29   30 am   BACKBONE|DICT|INTERRES
    61   29  154 1    
    62   30   31 2    
    63   30   32 1    
    64   32   33 1    
    65   32   34 1    
    66   32  155 1    
    67   33  156 1    
    68   33  157 1    
    69   33  158 1    
    70   34   35 am   BACKBONE|DICT|INTERRES
    71   34  159 1    
    72   35   36 2    
    73   35   37 1    
    74   37   38 1    
    75   37   39 1    
    76   37  160 1    
    77   38  161 1    
    78   38  162 1    
    79   38  163 1    
    80   39   40 am   BACKBONE|DICT|INTERRES
    81   39  164 1    
    82   40   41 2    
    83   40   42 1    
    84   42   43 1    
    85   42   44 1    
    86   42  165 1    
    87   43  166 1    
    88   43  167 1    
    89   43  168 1    
    90   44   45 am   BACKBONE|DICT|INTERRES
    91   44  169 1    
    92   45   46 2    
    93   45   47 1    
    94   47   48 1    
    95   47   49 1    
    96   47  170 1    
    97   48  171 1    
    98   48  172 1    
    99   48  173 1    
   100   49   50 am   BACKBONE|DICT|INTERRES
   101   49  174 1    
   102   50   51 2    
   103   50   52 1    
   104   52   53 1    
   105   52   54 1    
   106   52  175 1    
   107   53  176 1    
   108   53  177 1    
   109   53  178 1    
   110   54   55 am   BACKBONE|DICT|INTERRES
   111   54  179 1    
   112   55   56 2    
   113   55   57 1    
   114   57   58 1    
   115   57   59 1    
   116   57  180 1    
   117   58  181 1    
   118   58  182 1    
   119   58  183 1    
   120   59   60 am   BACKBONE|DICT|INTERRES
   121   59  184 1    
   122   60   61 2    
   123   60   62 1    
   124   62   63 1    
   125   62   64 1    
   126   62  185 1    
   127   63  186 1    
   128   63  187 1    
   129   63  188 1    
   130   64   65 am   BACKBONE|DICT|INTERRES
   131   64  189 1    
   132   65   66 2    
   133   67   68 2    
   134   67   69 am   BACKBONE|DICT|INTERRES
   135   69   70 1    
   136   69  190 1    
   137   70   71 1    
   138   70   72 1    
   139   70  191 1    
   140   71  192 1    
   141   71  193 1    
   142   71  194 1    
   143   72   73 2    
   144   72   74 am   BACKBONE|DICT|INTERRES
   145   74   75 1    
   146   74  195 1    
   147   75   76 1    
   148   75   77 1    
   149   75  196 1    
   150   76  197 1    
   151   76  198 1    
   152   76  199 1    
   153   77   78 2    
   154   77   79 am   BACKBONE|DICT|INTERRES
   155   79   80 1    
   156   79  200 1    
   157   80   81 1    
   158   80   82 1    
   159   80  201 1    
   160   81  202 1    
   161   81  203 1    
   162   81  204 1    
   163   82   83 2    
   164   82   84 am   BACKBONE|DICT|INTERRES
   165   84   85 1    
   166   84  205 1    
   167   85   86 1    
   168   85   87 1    
   169   85  206 1    
   170   86  207 1    
   171   86  208 1    
   172   86  209 1    
   173   87   88 2    
   174   87   89 am   BACKBONE|DICT|INTERRES
   175   89   90 1    
   176   89  210 1    
   177   90   91 1    
   178   90   92 1    
   179   90  211 1    
   180   91  212 1    
   181   91  213 1    
   182   91  214 1    
   183   92   93 2    
   184   92   94 am   BACKBONE|DICT|INTERRES
   185   94   95 1    
   186   94  215 1    
   187   95   96 1    
   188   95   97 1    
   189   95  216 1    
   190   96  217 1    
   191   96  218 1    
   192   96  219 1    
   193   97   98 2    
   194   97   99 am   BACKBONE|DICT|INTERRES
   195   99  100 1    
   196   99  220 1    
   197  100  101 1    
   198  100  102 1    
   199  100  221 1    
   200  101  222 1    
   201  101  223 1    
   202  101  224 1    
   203  102  103 2    
   204  102  104 am   BACKBONE|DICT|INTERRES
   205  104  105 1    
   206  104  225 1    
   207  105  106 1    
   208  105  107 1    
   209  105  226 1    
   210  106  227 1    
   211  106  228 1    
   212  106  229 1    
   213  107  108 2    
   214  107  109 am   BACKBONE|DICT|INTERRES
   215  109  110 1    
   216  109  230 1    
   217  110  111 1    
   218  110  112 1    
   219  110  231 1    
   220  111  232 1    
   221  111  233 1    
   222  111  234 1    
   223  112  113 2    
   224  112  114 am   BACKBONE|DICT|INTERRES
   225  114  115 1    
   226  114  235 1    
   227  115  116 1    
   228  115  117 1    
   229  115  236 1    
   230  116  237 1    
   231  116  238 1    
   232  116  239 1    
   233  117  118 2    
   234  117  119 am   BACKBONE|DICT|INTERRES
   235  119  120 1    
   236  119  240 1    
   237  120  121 1    
   238  120  124 1    
   239  120  241 1    
   240  121  122 am   BACKBONE|DICT|INTERRES
   241  121  123 2    
   242  122  242 1    
   243  122  243 1    
   244  124  125 1    
   245  124  244 1    
   246  124  245 1    
   247  125  126 1    
   248  126  246 1    
   249  126  247 1    
@<TRIPOS>SUBSTRUCTURE
     1 UNK         1 GROUP             0       ****    0 ROOT    
