@<TRIPOS>MOLECULE
3R540
247   249    1
SMALL
USER_CHARGES


@<TRIPOS>ATOM
      1 CA          5.3727  -13.9618  -48.5470 C.3       0 UNK        -0.1800 
      2 C           5.0838  -15.3773  -48.0507 C.2       0 UNK         0.5000 
      3 O           6.0255  -16.0937  -47.7186 O.2       0 UNK        -0.5000 
      4 N           3.8255  -15.8390  -47.9677 N.am      1 UNK        -0.5000 
      5 CA          2.5476  -15.1753  -48.2926 C.3       1 UNK         0.1400 
      6 C6          2.4235  -14.6413  -49.7506 C.3       23 UNK        -0.0398 
      7 S7          3.0216  -15.7935  -51.0373 S.3       23 UNK        -0.2404 
      8 C8          1.5107  -16.1571  -51.9858 C.3       23 UNK        -0.0205 
      9 C9          0.6623  -17.2294  -51.3209 C.ar      23 UNK        -0.0193 
     10 C10        -0.5604  -16.9064  -50.7249 C.ar      23 UNK        -0.1150 
     11 C11        -1.3542  -17.9042  -50.1498 C.ar      23 UNK        -0.0193 
     12 C12        -0.9079  -19.2285  -50.1589 C.ar      23 UNK        -0.1150 
     13 C13         0.3163  -19.5613  -50.7457 C.ar      23 UNK        -0.0193 
     14 C14         1.0919  -18.5592  -51.3320 C.ar      23 UNK        -0.1150 
     15 C15         0.7980  -21.0036  -50.7555 C.3       23 UNK        -0.0205 
     16 S16         2.1477  -21.3031  -49.5687 S.3       23 UNK        -0.2404 
     17 C17         1.3943  -20.8471  -47.9701 C.3       23 UNK        -0.0398 
     18 CA          0.7864  -22.0473  -47.2102 C.3       11 UNK         0.1400 
     19 N           0.6465  -21.7640  -45.7810 N.am      11 UNK        -0.5000 
     20 C           0.3261  -22.6703  -44.8474 C.2       10 UNK         0.5000 
     21 O           0.1317  -23.8607  -45.0886 O.2       10 UNK        -0.5000 
     22 CA          0.1306  -22.1463  -43.4138 C.3       10 UNK         0.1400 
     23 CB          1.4807  -21.8577  -42.7410 C.3       10 UNK        -0.1800 
     24 N          -0.7061  -20.9474  -43.3785 N.am      10 UNK        -0.5000 
     25 C          -1.9869  -20.9101  -43.7735 C.2       9 UNK         0.5000 
     26 O          -2.6194  -21.9012  -44.1406 O.2       9 UNK        -0.5000 
     27 CA         -2.6557  -19.5251  -43.8108 C.3       9 UNK         0.1400 
     28 CB         -3.1550  -19.1161  -42.4166 C.3       9 UNK        -0.1800 
     29 N          -1.7639  -18.4902  -44.3367 N.am      9 UNK        -0.5000 
     30 C          -1.3375  -18.4256  -45.6067 C.2       8 UNK         0.5000 
     31 O          -1.6513  -19.2314  -46.4786 O.2       8 UNK        -0.5000 
     32 CA         -0.3577  -17.2902  -45.9480 C.3       8 UNK         0.1400 
     33 CB         -1.1218  -15.9717  -46.1331 C.3       8 UNK        -0.1800 
     34 N           0.6724  -17.1275  -44.9208 N.am      8 UNK        -0.5000 
     35 C           1.5790  -18.0654  -44.6067 C.2       7 UNK         0.5000 
     36 O           1.6917  -19.1354  -45.2018 O.2       7 UNK        -0.5000 
     37 CA          2.4653  -17.7857  -43.3840 C.3       7 UNK         0.1400 
     38 CB          3.7301  -17.0168  -43.7899 C.3       7 UNK        -0.1800 
     39 N           1.7458  -17.0418  -42.3513 N.am      7 UNK        -0.5000 
     40 C           0.7556  -17.5454  -41.6004 C.2       6 UNK         0.5000 
     41 O           0.3390  -18.6977  -41.7289 O.2       6 UNK        -0.5000 
     42 CA          0.0854  -16.5992  -40.5796 C.3       6 UNK         0.1400 
     43 CB         -0.3129  -17.3228  -39.2774 C.3       6 UNK        -0.1800 
     44 N           0.8596  -15.3826  -40.3038 N.am      6 UNK        -0.5000 
     45 C           2.0638  -15.2825  -39.7168 C.2       5 UNK         0.5000 
     46 O           2.6633  -16.2350  -39.2175 O.2       5 UNK        -0.5000 
     47 CA          2.7405  -13.8959  -39.7290 C.3       5 UNK         0.1400 
     48 CB          4.0789  -13.9614  -40.4844 C.3       5 UNK        -0.1800 
     49 N           1.9048  -12.8777  -40.3680 N.am      5 UNK        -0.5000 
     50 C           1.0906  -12.0308  -39.7238 C.2       4 UNK         0.5000 
     51 O           0.9956  -11.9714  -38.4977 O.2       4 UNK        -0.5000 
     52 CA          0.2178  -11.1056  -40.5977 C.3       4 UNK         0.1400 
     53 CB          0.8902   -9.7342  -40.7628 C.3       4 UNK        -0.1800 
     54 N          -0.0725  -11.6556  -41.9256 N.am      4 UNK        -0.5000 
     55 C          -0.8103  -12.7503  -42.1592 C.2       3 UNK         0.5000 
     56 O          -1.3492  -13.4124  -41.2731 O.2       3 UNK        -0.5000 
     57 CA         -0.9011  -13.2302  -43.6195 C.3       3 UNK         0.1400 
     58 CB         -2.1141  -12.6092  -44.3262 C.3       3 UNK        -0.1800 
     59 N           0.3093  -12.9609  -44.4021 N.am      3 UNK        -0.5000 
     60 C           1.5156  -13.4759  -44.1379 C.2       2 UNK         0.5000 
     61 O           1.7285  -14.2655  -43.2151 O.2       2 UNK        -0.5000 
     62 CA          2.6657  -13.0483  -45.0620 C.3       2 UNK         0.1400 
     63 CB          3.9846  -12.8818  -44.2882 C.3       2 UNK        -0.1800 
     64 N           2.8602  -14.0286  -46.1262 N.am      2 UNK        -0.5000 
     65 C           2.1427  -14.0975  -47.2560 C.2       1 UNK         0.5000 
     66 O           1.2025  -13.3405  -47.4992 O.2       1 UNK        -0.5000 
     67 C          -0.5419  -22.5155  -47.8402 C.2       11 UNK         0.5000 
     68 O          -0.5346  -23.4798  -48.6057 O.2       11 UNK        -0.5000 
     69 N          -1.6598  -21.8642  -47.4852 N.am      12 UNK        -0.5000 
     70 CA         -3.0135  -22.2242  -47.9144 C.3       12 UNK         0.1400 
     71 CB         -4.0298  -21.2236  -47.3430 C.3       12 UNK        -0.1800 
     72 C          -3.3994  -23.6661  -47.5360 C.2       12 UNK         0.5000 
     73 O          -3.9776  -24.3783  -48.3562 O.2       12 UNK        -0.5000 
     74 N          -3.0350  -24.0785  -46.3151 N.am      13 UNK        -0.5000 
     75 CA         -3.2183  -25.4407  -45.8230 C.3       13 UNK         0.1400 
     76 CB         -3.0636  -25.4515  -44.2941 C.3       13 UNK        -0.1800 
     77 C          -2.2530  -26.4466  -46.4797 C.2       13 UNK         0.5000 
     78 O          -2.6856  -27.5310  -46.8724 O.2       13 UNK        -0.5000 
     79 N          -0.9646  -26.0875  -46.5579 N.am      14 UNK        -0.5000 
     80 CA          0.1109  -26.9814  -46.9863 C.3       14 UNK         0.1400 
     81 CB          1.4543  -26.4462  -46.4656 C.3       14 UNK        -0.1800 
     82 C           0.1842  -27.2027  -48.5068 C.2       14 UNK         0.5000 
     83 O           0.3788  -28.3414  -48.9354 O.2       14 UNK        -0.5000 
     84 N           0.0798  -26.1199  -49.2865 N.am      15 UNK        -0.5000 
     85 CA          0.3691  -26.1057  -50.7226 C.3       15 UNK         0.1400 
     86 CB          1.6301  -25.2581  -50.9598 C.3       15 UNK        -0.1800 
     87 C          -0.7896  -25.5619  -51.5710 C.2       15 UNK         0.5000 
     88 O          -0.9118  -25.9632  -52.7297 O.2       15 UNK        -0.5000 
     89 N          -1.5973  -24.6524  -51.0063 N.am      16 UNK        -0.5000 
     90 CA         -2.6806  -23.8893  -51.6398 C.3       16 UNK         0.1400 
     91 CB         -3.7765  -24.8003  -52.2297 C.3       16 UNK        -0.1800 
     92 C          -2.1559  -22.8627  -52.6603 C.2       16 UNK         0.5000 
     93 O          -2.2583  -21.6620  -52.4139 O.2       16 UNK        -0.5000 
     94 N          -1.5743  -23.3596  -53.7600 N.am      17 UNK        -0.5000 
     95 CA         -0.9530  -22.6556  -54.8871 C.3       17 UNK         0.1400 
     96 CB          0.2791  -21.8494  -54.4345 C.3       17 UNK        -0.1800 
     97 C          -1.9259  -21.7856  -55.7051 C.2       17 UNK         0.5000 
     98 O          -2.1521  -22.0720  -56.8818 O.2       17 UNK        -0.5000 
     99 N          -2.4738  -20.7384  -55.0803 N.am      18 UNK        -0.5000 
    100 CA        -3.4286  -19.8116  -55.6760 C.3       18 UNK         0.1400 
    101 CB        -3.3275  -18.4544  -54.9595 C.3       18 UNK        -0.1800 
    102 C         -4.8376  -20.4145  -55.5805 C.2       18 UNK         0.5000 
    103 O         -5.4600  -20.3483  -54.5175 O.2       18 UNK        -0.5000 
    104 N         -5.2962  -21.0340  -56.6755 N.am      19 UNK        -0.5000 
    105 CA        -6.5931  -21.7048  -56.7912 C.3       19 UNK         0.1400 
    106 CB        -6.7493  -22.2586  -58.2153 C.3       19 UNK        -0.1800 
    107 C         -7.7715  -20.7786  -56.4361 C.2       19 UNK         0.5000 
    108 O         -7.8121  -19.6382  -56.9034 O.2       19 UNK        -0.5000 
    109 N         -8.6770  -21.2795  -55.5856 N.am      20 UNK        -0.5000 
    110 CA        -9.8549  -20.6248  -54.9962 C.3       20 UNK         0.1400 
    111 CB       -10.8423  -20.1526  -56.0810 C.3       20 UNK        -0.1800 
    112 C         -9.5401  -19.4899  -53.9973 C.2       20 UNK         0.5000 
    113 O        -10.2581  -19.3543  -53.0058 O.2       20 UNK        -0.5000 
    114 N         -8.4892  -18.7028  -54.2581 N.am      21 UNK        -0.5000 
    115 CA        -8.0202  -17.6079  -53.4097 C.3       21 UNK         0.1400 
    116 CB        -7.0145  -16.7526  -54.1954 C.3       21 UNK        -0.1800 
    117 C         -7.4048  -18.1093  -52.0913 C.2       21 UNK         0.5000 
    118 O         -7.7796  -17.6229  -51.0232 O.2       21 UNK        -0.5000 
    119 N         -6.4904  -19.0790  -52.1988 N.am      22 UNK        -0.5000 
    120 CA        -5.8112  -19.7448  -51.0767 C.3       22 UNK         0.1400 
    121 C         -5.9742  -21.2889  -51.1307 C.2       22 UNK         0.5000 
    122 N         -6.1781  -21.8990  -52.2920 N.am      22 UNK        -0.7600 
    123 O         -5.9412  -21.9453  -50.0960 O.2       22 UNK        -0.5000 
    124 C124       -4.3117  -19.3616  -50.9936 C.3       23 UNK        -0.0398 
    125 S125       -4.0408  -17.5720  -50.7435 S.3       23 UNK        -0.2404 
    126 C126       -2.6929  -17.5489  -49.5213 C.3       23 UNK        -0.0205 
    127 H127        4.6561  -13.2320  -48.1758 H         1 UNK         0.0600 
    128 H128        5.3684  -13.9376  -49.6365 H         1 UNK         0.0600 
    129 H129        6.3597  -13.6412  -48.2128 H         1 UNK         0.0600 
    130 H130        3.7148  -16.7927  -47.6540 H         1 UNK         0.3000 
    131 H131        1.7971  -15.9604  -48.1878 H         1 UNK         0.0600 
    132 H132        1.3812  -14.3948  -49.9594 H         1 UNK         0.0800 
    133 H133        2.9663  -13.7039  -49.8719 H         1 UNK         0.0800 
    134 H134        0.9386  -15.2420  -52.1459 H         1 UNK         0.0800 
    135 H135        1.8008  -16.5062  -52.9778 H         1 UNK         0.0800 
    136 H136       -0.9042  -15.8816  -50.7225 H         1 UNK         0.1150 
    137 H137       -1.5139  -20.0020  -49.7103 H         1 UNK         0.1150 
    138 H138        2.0366  -18.8137  -51.7918 H         1 UNK         0.1150 
    139 H139       -0.0282  -21.6888  -50.5670 H         1 UNK         0.0800 
    140 H140        1.1672  -21.2499  -51.7500 H         1 UNK         0.0800 
    141 H141        0.6756  -20.0351  -48.0788 H         1 UNK         0.0800 
    142 H142        2.2109  -20.4283  -47.3819 H         1 UNK         0.0800 
    143 H143        1.4880  -22.8807  -47.2880 H         1 UNK         0.0600 
    144 H144        0.8230  -20.8048  -45.4941 H         1 UNK         0.3000 
    145 H145       -0.3763  -22.9247  -42.8396 H         1 UNK         0.0600 
    146 H146        1.3450  -21.5241  -41.7120 H         1 UNK         0.0600 
    147 H147        2.1016  -22.7540  -42.7145 H         1 UNK         0.0600 
    148 H148        2.0403  -21.0869  -43.2705 H         1 UNK         0.0600 
    149 H149       -0.2757  -20.0969  -43.0299 H         1 UNK         0.3000 
    150 H150       -3.5214  -19.5904  -44.4728 H         1 UNK         0.0600 
    151 H151       -3.8523  -19.8561  -42.0220 H         1 UNK         0.0600 
    152 H152       -3.6800  -18.1614  -42.4498 H         1 UNK         0.0600 
    153 H153       -2.3372  -19.0249  -41.7016 H         1 UNK         0.0600 
    154 H154       -1.4219  -17.8107  -43.6757 H         1 UNK         0.3000 
    155 H155        0.1376  -17.5394  -46.8891 H         1 UNK         0.0600 
    156 H156       -1.7248  -15.7270  -45.2593 H         1 UNK         0.0600 
    157 H157       -1.8021  -16.0347  -46.9813 H         1 UNK         0.0600 
    158 H158       -0.4487  -15.1380  -46.3215 H         1 UNK         0.0600 
    159 H159        0.6564  -16.2798  -44.3724 H         1 UNK         0.3000 
    160 H160        2.7712  -18.7452  -42.9625 H         1 UNK         0.0600 
    161 H161        3.4886  -16.0557  -44.2393 H         1 UNK         0.0600 
    162 H162        4.3135  -17.5819  -44.5180 H         1 UNK         0.0600 
    163 H163        4.3730  -16.8320  -42.9291 H         1 UNK         0.0600 
    164 H164        1.9705  -16.0572  -42.2615 H         1 UNK         0.3000 
    165 H165       -0.8356  -16.2597  -41.0553 H         1 UNK         0.0600 
    166 H166        0.5472  -17.7740  -38.7825 H         1 UNK         0.0600 
    167 H167       -0.7852  -16.6370  -38.5740 H         1 UNK         0.0600 
    168 H168       -1.0271  -18.1223  -39.4777 H         1 UNK         0.0600 
    169 H169        0.4435  -14.5304  -40.6569 H         1 UNK         0.3000 
    170 H170        2.9457  -13.6192  -38.6930 H         1 UNK         0.0600 
    171 H171        3.9448  -14.3066  -41.5097 H         1 UNK         0.0600 
    172 H172        4.5626  -12.9852  -40.5186 H         1 UNK         0.0600 
    173 H173        4.7714  -14.6486  -39.9968 H         1 UNK         0.0600 
    174 H174        1.8991  -12.8834  -41.3790 H         1 UNK         0.3000 
    175 H175       -0.7315  -10.9621  -40.0773 H         1 UNK         0.0600 
    176 H176        0.2496   -9.0438  -41.3118 H         1 UNK         0.0600 
    177 H177        1.0971   -9.2810  -39.7924 H         1 UNK         0.0600 
    178 H178        1.8379   -9.8122  -41.2973 H         1 UNK         0.0600 
    179 H179        0.3351  -11.1753  -42.7144 H         1 UNK         0.3000 
    180 H180       -1.0408  -14.3115  -43.5847 H         1 UNK         0.0600 
    181 H181       -2.0198  -11.5259  -44.4109 H         1 UNK         0.0600 
    182 H182       -3.0346  -12.8177  -43.7791 H         1 UNK         0.0600 
    183 H183       -2.2355  -13.0154  -45.3306 H         1 UNK         0.0600 
    184 H184        0.2036  -12.3611  -45.2090 H         1 UNK         0.3000 
    185 H185        2.4171  -12.0801  -45.5022 H         1 UNK         0.0600 
    186 H186        4.3395  -13.8258  -43.8745 H         1 UNK         0.0600 
    187 H187        4.7696  -12.4880  -44.9340 H         1 UNK         0.0600 
    188 H188        3.8667  -12.1837  -43.4584 H         1 UNK         0.0600 
    189 H189        3.6009  -14.7006  -45.9908 H         1 UNK         0.3000 
    190 H190       -1.5841  -21.0360  -46.8993 H         1 UNK         0.3000 
    191 H191       -3.0421  -22.1375  -48.9995 H         1 UNK         0.0600 
    192 H192       -3.8406  -20.2142  -47.7048 H         1 UNK         0.0600 
    193 H193       -5.0461  -21.4862  -47.6366 H         1 UNK         0.0600 
    194 H194       -4.0065  -21.1999  -46.2550 H         1 UNK         0.0600 
    195 H195       -2.5895  -23.4178  -45.6881 H         1 UNK         0.3000 
    196 H196       -4.2375  -25.7549  -46.0580 H         1 UNK         0.0600 
    197 H197       -3.2120  -26.4548  -43.8931 H         1 UNK         0.0600 
    198 H198       -3.7974  -24.7990  -43.8204 H         1 UNK         0.0600 
    199 H199       -2.0730  -25.1163  -43.9848 H         1 UNK         0.0600 
    200 H200       -0.6798  -25.1909  -46.1717 H         1 UNK         0.3000 
    201 H201       -0.0547  -27.9560  -46.5216 H         1 UNK         0.0600 
    202 H202        1.4554  -26.3767  -45.3777 H         1 UNK         0.0600 
    203 H203        1.6743  -25.4550  -46.8641 H         1 UNK         0.0600 
    204 H204        2.2760  -27.1048  -46.7498 H         1 UNK         0.0600 
    205 H205       -0.1118  -25.2175  -48.8567 H         1 UNK         0.3000 
    206 H206        0.5716  -27.1157  -51.0844 H         1 UNK         0.0600 
    207 H207        1.8854  -25.2201  -52.0197 H         1 UNK         0.0600 
    208 H208        1.4936  -24.2314  -50.6176 H         1 UNK         0.0600 
    209 H209        2.4889  -25.6742  -50.4330 H         1 UNK         0.0600 
    210 H210       -1.3613  -24.3472  -50.0665 H         1 UNK         0.3000 
    211 H211       -3.1544  -23.3179  -50.8444 H         1 UNK         0.0600 
    212 H212       -3.4108  -25.4376  -53.0340 H         1 UNK         0.0600 
    213 H213       -4.5914  -24.2060  -52.6413 H         1 UNK         0.0600 
    214 H214       -4.2015  -25.4441  -51.4595 H         1 UNK         0.0600 
    215 H215       -1.5068  -24.3719  -53.7998 H         1 UNK         0.3000 
    216 H216       -0.5950  -23.4392  -55.5568 H         1 UNK         0.0600 
    217 H217        0.9907  -22.4833  -53.9053 H         1 UNK         0.0600 
    218 H218        0.0083  -21.0224  -53.7779 H         1 UNK         0.0600 
    219 H219        0.7994  -21.4227  -55.2927 H         1 UNK         0.0600 
    220 H220       -2.3205  -20.6631  -54.0787 H         1 UNK         0.3000 
    221 H221       -3.1767  -19.6521  -56.7267 H         1 UNK         0.0600 
    222 H222       -2.3133  -18.0580  -55.0101 H         1 UNK         0.0600 
    223 H223       -3.9840  -17.7210  -55.4278 H         1 UNK         0.0600 
    224 H224       -3.6045  -18.5200  -53.9079 H         1 UNK         0.0600 
    225 H225       -4.7056  -21.0625  -57.4940 H         1 UNK         0.3000 
    226 H226       -6.5838  -22.5462  -56.0952 H         1 UNK         0.0600 
    227 H227       -5.9552  -22.9664  -58.4538 H         1 UNK         0.0600 
    228 H228       -7.6979  -22.7853  -58.3280 H         1 UNK         0.0600 
    229 H229       -6.7254  -21.4623  -58.9605 H         1 UNK         0.0600 
    230 H230       -8.5199  -22.2189  -55.2475 H         1 UNK         0.3000 
    231 H231      -10.3580  -21.4041  -54.4213 H         1 UNK         0.0600 
    232 H232      -11.7662  -19.7875  -55.6307 H         1 UNK         0.0600 
    233 H233      -11.1089  -20.9675  -56.7539 H         1 UNK         0.0600 
    234 H234      -10.4334  -19.3400  -56.6818 H         1 UNK         0.0600 
    235 H235       -7.9802  -18.8751  -55.1192 H         1 UNK         0.3000 
    236 H236       -8.8776  -16.9789  -53.1612 H         1 UNK         0.0600 
    237 H237       -6.6350  -15.9332  -53.5836 H         1 UNK         0.0600 
    238 H238       -6.1586  -17.3420  -54.5236 H         1 UNK         0.0600 
    239 H239       -7.4768  -16.3136  -55.0796 H         1 UNK         0.0600 
    240 H240       -6.2432  -19.4236  -53.1220 H         1 UNK         0.3000 
    241 H241       -6.2789  -19.4375  -50.1394 H         1 UNK         0.0600 
    242 H242       -6.3213  -22.8945  -52.3029 H         1 UNK         0.3800 
    243 H243       -6.0876  -21.3858  -53.1641 H         1 UNK         0.3800 
    244 H244       -3.8330  -19.9098  -50.1820 H         1 UNK         0.0800 
    245 H245       -3.7941  -19.6580  -51.9051 H         1 UNK         0.0800 
    246 H246       -2.6396  -16.5471  -49.0951 H         1 UNK         0.0800 
    247 H247       -2.9226  -18.2196  -48.6930 H         1 UNK         0.0800 
@<TRIPOS>BOND
     1    1    2 1    
     2    1  127 1    
     3    1  128 1    
     4    1  129 1    
     5    2    3 2    
     6    2    4 am   BACKBONE|DICT|INTERRES
     7    4    5 1    
     8    4  130 1    
     9    5    6 1    
    10    5   65 1    
    11    5  131 1    
    12    6    7 1    
    13    6  132 1    
    14    6  133 1    
    15    7    8 1    
    16    8    9 1    
    17    8  134 1    
    18    8  135 1    
    19    9   10 ar   
    20    9   14 ar   
    21   10   11 ar   
    22   10  136 1    
    23   11   12 ar   
    24   11  126 1    
    25   12   13 ar   
    26   12  137 1    
    27   13   14 ar   
    28   13   15 1    
    29   14  138 1    
    30   15   16 1    
    31   15  139 1    
    32   15  140 1    
    33   16   17 1    
    34   17   18 1    
    35   17  141 1    
    36   17  142 1    
    37   18   19 1    
    38   18   67 1    
    39   18  143 1    
    40   19   20 am   BACKBONE|DICT|INTERRES
    41   19  144 1    
    42   20   21 2    
    43   20   22 1    
    44   22   23 1    
    45   22   24 1    
    46   22  145 1    
    47   23  146 1    
    48   23  147 1    
    49   23  148 1    
    50   24   25 am   BACKBONE|DICT|INTERRES
    51   24  149 1    
    52   25   26 2    
    53   25   27 1    
    54   27   28 1    
    55   27   29 1    
    56   27  150 1    
    57   28  151 1    
    58   28  152 1    
    59   28  153 1    
    60   29   30 am   BACKBONE|DICT|INTERRES
    61   29  154 1    
    62   30   31 2    
    63   30   32 1    
    64   32   33 1    
    65   32   34 1    
    66   32  155 1    
    67   33  156 1    
    68   33  157 1    
    69   33  158 1    
    70   34   35 am   BACKBONE|DICT|INTERRES
    71   34  159 1    
    72   35   36 2    
    73   35   37 1    
    74   37   38 1    
    75   37   39 1    
    76   37  160 1    
    77   38  161 1    
    78   38  162 1    
    79   38  163 1    
    80   39   40 am   BACKBONE|DICT|INTERRES
    81   39  164 1    
    82   40   41 2    
    83   40   42 1    
    84   42   43 1    
    85   42   44 1    
    86   42  165 1    
    87   43  166 1    
    88   43  167 1    
    89   43  168 1    
    90   44   45 am   BACKBONE|DICT|INTERRES
    91   44  169 1    
    92   45   46 2    
    93   45   47 1    
    94   47   48 1    
    95   47   49 1    
    96   47  170 1    
    97   48  171 1    
    98   48  172 1    
    99   48  173 1    
   100   49   50 am   BACKBONE|DICT|INTERRES
   101   49  174 1    
   102   50   51 2    
   103   50   52 1    
   104   52   53 1    
   105   52   54 1    
   106   52  175 1    
   107   53  176 1    
   108   53  177 1    
   109   53  178 1    
   110   54   55 am   BACKBONE|DICT|INTERRES
   111   54  179 1    
   112   55   56 2    
   113   55   57 1    
   114   57   58 1    
   115   57   59 1    
   116   57  180 1    
   117   58  181 1    
   118   58  182 1    
   119   58  183 1    
   120   59   60 am   BACKBONE|DICT|INTERRES
   121   59  184 1    
   122   60   61 2    
   123   60   62 1    
   124   62   63 1    
   125   62   64 1    
   126   62  185 1    
   127   63  186 1    
   128   63  187 1    
   129   63  188 1    
   130   64   65 am   BACKBONE|DICT|INTERRES
   131   64  189 1    
   132   65   66 2    
   133   67   68 2    
   134   67   69 am   BACKBONE|DICT|INTERRES
   135   69   70 1    
   136   69  190 1    
   137   70   71 1    
   138   70   72 1    
   139   70  191 1    
   140   71  192 1    
   141   71  193 1    
   142   71  194 1    
   143   72   73 2    
   144   72   74 am   BACKBONE|DICT|INTERRES
   145   74   75 1    
   146   74  195 1    
   147   75   76 1    
   148   75   77 1    
   149   75  196 1    
   150   76  197 1    
   151   76  198 1    
   152   76  199 1    
   153   77   78 2    
   154   77   79 am   BACKBONE|DICT|INTERRES
   155   79   80 1    
   156   79  200 1    
   157   80   81 1    
   158   80   82 1    
   159   80  201 1    
   160   81  202 1    
   161   81  203 1    
   162   81  204 1    
   163   82   83 2    
   164   82   84 am   BACKBONE|DICT|INTERRES
   165   84   85 1    
   166   84  205 1    
   167   85   86 1    
   168   85   87 1    
   169   85  206 1    
   170   86  207 1    
   171   86  208 1    
   172   86  209 1    
   173   87   88 2    
   174   87   89 am   BACKBONE|DICT|INTERRES
   175   89   90 1    
   176   89  210 1    
   177   90   91 1    
   178   90   92 1    
   179   90  211 1    
   180   91  212 1    
   181   91  213 1    
   182   91  214 1    
   183   92   93 2    
   184   92   94 am   BACKBONE|DICT|INTERRES
   185   94   95 1    
   186   94  215 1    
   187   95   96 1    
   188   95   97 1    
   189   95  216 1    
   190   96  217 1    
   191   96  218 1    
   192   96  219 1    
   193   97   98 2    
   194   97   99 am   BACKBONE|DICT|INTERRES
   195   99  100 1    
   196   99  220 1    
   197  100  101 1    
   198  100  102 1    
   199  100  221 1    
   200  101  222 1    
   201  101  223 1    
   202  101  224 1    
   203  102  103 2    
   204  102  104 am   BACKBONE|DICT|INTERRES
   205  104  105 1    
   206  104  225 1    
   207  105  106 1    
   208  105  107 1    
   209  105  226 1    
   210  106  227 1    
   211  106  228 1    
   212  106  229 1    
   213  107  108 2    
   214  107  109 am   BACKBONE|DICT|INTERRES
   215  109  110 1    
   216  109  230 1    
   217  110  111 1    
   218  110  112 1    
   219  110  231 1    
   220  111  232 1    
   221  111  233 1    
   222  111  234 1    
   223  112  113 2    
   224  112  114 am   BACKBONE|DICT|INTERRES
   225  114  115 1    
   226  114  235 1    
   227  115  116 1    
   228  115  117 1    
   229  115  236 1    
   230  116  237 1    
   231  116  238 1    
   232  116  239 1    
   233  117  118 2    
   234  117  119 am   BACKBONE|DICT|INTERRES
   235  119  120 1    
   236  119  240 1    
   237  120  121 1    
   238  120  124 1    
   239  120  241 1    
   240  121  122 am   BACKBONE|DICT|INTERRES
   241  121  123 2    
   242  122  242 1    
   243  122  243 1    
   244  124  125 1    
   245  124  244 1    
   246  124  245 1    
   247  125  126 1    
   248  126  246 1    
   249  126  247 1    
@<TRIPOS>SUBSTRUCTURE
     1 UNK         1 GROUP             0       ****    0 ROOT    
