@<TRIPOS>MOLECULE
3R540
247   249    1
SMALL
USER_CHARGES


@<TRIPOS>ATOM
      1 CA          0.7821  -10.6524  -51.8468 C.3       0 UNK        -0.1800 
      2 C           0.5822  -11.5401  -50.6266 C.2       0 UNK         0.5000 
      3 O          -0.5562  -11.8571  -50.2829 O.2       0 UNK        -0.5000 
      4 N           1.6849  -11.9388  -49.9766 N.am      1 UNK        -0.5000 
      5 CA          1.7241  -12.7906  -48.7797 C.3       1 UNK         0.1400 
      6 C6          1.1824  -14.2236  -49.0416 C.3       23 UNK        -0.0398 
      7 S7          2.0367  -15.4759  -48.0257 S.3       23 UNK        -0.2404 
      8 C8          3.1869  -16.2045  -49.2338 C.3       23 UNK        -0.0205 
      9 C9          2.4688  -17.0751  -50.2546 C.ar      23 UNK        -0.0193 
     10 C10         2.4080  -16.6968  -51.5993 C.ar      23 UNK        -0.1150 
     11 C11         1.7611  -17.5106  -52.5340 C.ar      23 UNK        -0.0193 
     12 C12         1.1811  -18.7123  -52.1173 C.ar      23 UNK        -0.1150 
     13 C13         1.2340  -19.1029  -50.7763 C.ar      23 UNK        -0.0193 
     14 C14         1.8758  -18.2737  -49.8507 C.ar      23 UNK        -0.1150 
     15 C15         0.5828  -20.4107  -50.3423 C.3       23 UNK        -0.0205 
     16 S16         1.7174  -21.4817  -49.3981 S.3       23 UNK        -0.2404 
     17 C17         1.2379  -21.0865  -47.6792 C.3       23 UNK        -0.0398 
     18 CA          0.3808  -22.2026  -47.0406 C.3       11 UNK         0.1400 
     19 N           0.3186  -22.0894  -45.5845 N.am      11 UNK        -0.5000 
     20 C          -0.1786  -23.0335  -44.7733 C.2       10 UNK         0.5000 
     21 O          -0.5953  -24.1248  -45.1645 O.2       10 UNK        -0.5000 
     22 CA         -0.2718  -22.6767  -43.2799 C.3       10 UNK         0.1400 
     23 CB          1.0957  -22.8243  -42.5967 C.3       10 UNK        -0.1800 
     24 N          -0.7945  -21.3269  -43.0592 N.am      10 UNK        -0.5000 
     25 C          -2.0247  -20.9276  -43.4140 C.2       9 UNK         0.5000 
     26 O          -2.8606  -21.6687  -43.9318 O.2       9 UNK        -0.5000 
     27 CA         -2.3703  -19.4452  -43.1883 C.3       9 UNK         0.1400 
     28 CB         -2.7200  -19.1874  -41.7153 C.3       9 UNK        -0.1800 
     29 N          -1.3027  -18.5373  -43.6103 N.am      9 UNK        -0.5000 
     30 C          -0.8619  -18.4096  -44.8709 C.2       8 UNK         0.5000 
     31 O          -1.3181  -19.0390  -45.8239 O.2       8 UNK        -0.5000 
     32 CA          0.3281  -17.4619  -45.0994 C.3       8 UNK         0.1400 
     33 CB         -0.1192  -15.9929  -45.0496 C.3       8 UNK        -0.1800 
     34 N           1.4028  -17.6830  -44.1342 N.am      8 UNK        -0.5000 
     35 C           2.0726  -18.8344  -43.9838 C.2       7 UNK         0.5000 
     36 O           1.8917  -19.8335  -44.6799 O.2       7 UNK        -0.5000 
     37 CA          3.0747  -18.8955  -42.8202 C.3       7 UNK         0.1400 
     38 CB          4.3974  -18.2107  -43.1964 C.3       7 UNK        -0.1800 
     39 N           2.5308  -18.2926  -41.6030 N.am      7 UNK        -0.5000 
     40 C           1.5140  -18.8051  -40.8947 C.2       6 UNK         0.5000 
     41 O           0.9436  -19.8586  -41.1770 O.2       6 UNK        -0.5000 
     42 CA          1.0278  -17.9781  -39.6915 C.3       6 UNK         0.1400 
     43 CB          1.9240  -18.2192  -38.4676 C.3       6 UNK        -0.1800 
     44 N           0.9757  -16.5449  -39.9828 N.am      6 UNK        -0.5000 
     45 C           0.1301  -15.9839  -40.8585 C.2       5 UNK         0.5000 
     46 O          -0.7134  -16.6134  -41.4955 O.2       5 UNK        -0.5000 
     47 CA          0.2862  -14.4711  -41.0965 C.3       5 UNK         0.1400 
     48 CB         -0.4975  -13.6733  -40.0439 C.3       5 UNK        -0.1800 
     49 N           1.6819  -14.0211  -41.1106 N.am      5 UNK        -0.5000 
     50 C           2.5985  -14.4327  -41.9953 C.2       4 UNK         0.5000 
     51 O           2.3878  -15.2957  -42.8490 O.2       4 UNK        -0.5000 
     52 CA          3.9899  -13.7849  -41.9023 C.3       4 UNK         0.1400 
     53 CB          4.9389  -14.6855  -41.0974 C.3       4 UNK        -0.1800 
     54 N           4.5487  -13.5813  -43.2408 N.am      4 UNK        -0.5000 
     55 C           4.2134  -12.6333  -44.1283 C.2       3 UNK         0.5000 
     56 O           4.6510  -12.6509  -45.2809 O.2       3 UNK        -0.5000 
     57 CA          3.3014  -11.4639  -43.7043 C.3       3 UNK         0.1400 
     58 CB          4.1152  -10.3352  -43.0449 C.3       3 UNK        -0.1800 
     59 N           2.6321  -10.9517  -44.8926 N.am      3 UNK        -0.5000 
     60 C           1.4554  -10.3167  -44.9193 C.2       2 UNK         0.5000 
     61 O           0.8131  -10.0265  -43.9092 O.2       2 UNK        -0.5000 
     62 CA          0.8931   -9.9461  -46.3068 C.3       2 UNK         0.1400 
     63 CB          1.2064   -8.4792  -46.6398 C.3       2 UNK        -0.1800 
     64 N           1.3920  -10.7959  -47.3923 N.am      2 UNK        -0.5000 
     65 C           1.0912  -12.0938  -47.5501 C.2       1 UNK         0.5000 
     66 O           0.3493  -12.7119  -46.7850 O.2       1 UNK        -0.5000 
     67 C          -1.0270  -22.2811  -47.6639 C.2       11 UNK         0.5000 
     68 O          -1.2558  -23.1467  -48.5046 O.2       11 UNK        -0.5000 
     69 N          -1.9554  -21.4192  -47.2222 N.am      12 UNK        -0.5000 
     70 CA         -3.3527  -21.4177  -47.6596 C.3       12 UNK         0.1400 
     71 CB         -4.1045  -20.2345  -47.0341 C.3       12 UNK        -0.1800 
     72 C          -4.0746  -22.7413  -47.3577 C.2       12 UNK         0.5000 
     73 O          -4.7809  -23.2493  -48.2283 O.2       12 UNK        -0.5000 
     74 N          -3.8525  -23.2964  -46.1583 N.am      13 UNK        -0.5000 
     75 CA         -4.3599  -24.6047  -45.7452 C.3       13 UNK         0.1400 
     76 CB         -4.0518  -24.8358  -44.2583 C.3       13 UNK        -0.1800 
     77 C          -3.8077  -25.7512  -46.6125 C.2       13 UNK         0.5000 
     78 O          -4.5875  -26.5767  -47.0902 O.2       13 UNK        -0.5000 
     79 N          -2.4864  -25.7511  -46.8455 N.am      14 UNK        -0.5000 
     80 CA         -1.7936  -26.7037  -47.7196 C.3       14 UNK         0.1400 
     81 CB         -0.2762  -26.5002  -47.5949 C.3       14 UNK        -0.1800 
     82 C          -2.2381  -26.6077  -49.1932 C.2       14 UNK         0.5000 
     83 O          -2.3373  -27.6310  -49.8702 O.2       14 UNK        -0.5000 
     84 N          -2.5432  -25.3851  -49.6438 N.am      15 UNK        -0.5000 
     85 CA         -3.0682  -25.0508  -50.9667 C.3       15 UNK         0.1400 
     86 CB         -2.6803  -23.5990  -51.2953 C.3       15 UNK        -0.1800 
     87 C          -4.5898  -25.2712  -51.1136 C.2       15 UNK         0.5000 
     88 O          -5.1636  -24.7910  -52.0928 O.2       15 UNK        -0.5000 
     89 N          -5.2144  -25.9794  -50.1598 N.am      16 UNK        -0.5000 
     90 CA         -6.6247  -26.3776  -50.1216 C.3       16 UNK         0.1400 
     91 CB         -6.9537  -27.3403  -51.2824 C.3       16 UNK        -0.1800 
     92 C          -7.5721  -25.1655  -50.0502 C.2       16 UNK         0.5000 
     93 O          -8.4217  -24.9841  -50.9230 O.2       16 UNK        -0.5000 
     94 N          -7.3768  -24.3457  -49.0085 N.am      17 UNK        -0.5000 
     95 CA         -8.0618  -23.0767  -48.7358 C.3       17 UNK         0.1400 
     96 CB         -9.5748  -23.2835  -48.5118 C.3       17 UNK        -0.1800 
     97 C          -7.7334  -22.0124  -49.8018 C.2       17 UNK         0.5000 
     98 O          -8.6234  -21.3100  -50.2840 O.2       17 UNK        -0.5000 
     99 N          -6.4393  -21.9356  -50.1446 N.am      18 UNK        -0.5000 
    100 CA        -5.8175  -21.0318  -51.1165 C.3       18 UNK         0.1400 
    101 CB        -5.9168  -19.5673  -50.6407 C.3       18 UNK        -0.1800 
    102 C         -6.3089  -21.2241  -52.5680 C.2       18 UNK         0.5000 
    103 O         -6.1979  -20.3005  -53.3743 O.2       18 UNK        -0.5000 
    104 N         -6.8112  -22.4219  -52.8964 N.am      19 UNK        -0.5000 
    105 CA        -7.2598  -22.7913  -54.2394 C.3       19 UNK         0.1400 
    106 CB        -8.0967  -24.0765  -54.1622 C.3       19 UNK        -0.1800 
    107 C         -6.0849  -22.9656  -55.2180 C.2       19 UNK         0.5000 
    108 O         -6.1838  -22.5424  -56.3701 O.2       19 UNK        -0.5000 
    109 N         -4.9912  -23.5683  -54.7335 N.am      20 UNK        -0.5000 
    110 CA        -3.7574  -23.7927  -55.4915 C.3       20 UNK         0.1400 
    111 CB        -3.1408  -25.1253  -55.0361 C.3       20 UNK        -0.1800 
    112 C         -2.7401  -22.6407  -55.3464 C.2       20 UNK         0.5000 
    113 O         -1.6878  -22.6847  -55.9859 O.2       20 UNK        -0.5000 
    114 N         -3.0451  -21.6482  -54.4999 N.am      21 UNK        -0.5000 
    115 CA        -2.2060  -20.4778  -54.2434 C.3       21 UNK         0.1400 
    116 CB        -2.5677  -19.9050  -52.8621 C.3       21 UNK        -0.1800 
    117 C         -2.3521  -19.4070  -55.3436 C.2       21 UNK         0.5000 
    118 O         -3.2398  -19.4966  -56.1959 O.2       21 UNK        -0.5000 
    119 N         -1.4706  -18.4027  -55.2914 N.am      22 UNK        -0.5000 
    120 CA        -1.4934  -17.2012  -56.1392 C.3       22 UNK         0.1400 
    121 C         -2.7450  -16.3008  -55.9154 C.2       22 UNK         0.5000 
    122 N         -3.1472  -15.5338  -56.9202 N.am      22 UNK        -0.7600 
    123 O         -3.3362  -16.2649  -54.8382 O.2       22 UNK        -0.5000 
    124 C124       -0.1728  -16.3925  -56.0087 C.3       23 UNK        -0.0398 
    125 S125        0.2792  -15.9805  -54.2829 S.3       23 UNK        -0.2404 
    126 C126        1.6867  -17.0982  -53.9947 C.3       23 UNK        -0.0205 
    127 H127        1.8367  -10.4457  -52.0308 H         1 UNK         0.0600 
    128 H128        0.3711  -11.1357  -52.7331 H         1 UNK         0.0600 
    129 H129        0.2689   -9.7011  -51.7067 H         1 UNK         0.0600 
    130 H130        2.5866  -11.6384  -50.3208 H         1 UNK         0.3000 
    131 H131        2.7869  -12.8756  -48.5465 H         1 UNK         0.0600 
    132 H132        0.1074  -14.2870  -48.8643 H         1 UNK         0.0800 
    133 H133        1.3114  -14.4861  -50.0917 H         1 UNK         0.0800 
    134 H134        3.9162  -16.8148  -48.6994 H         1 UNK         0.0800 
    135 H135        3.7527  -15.4098  -49.7226 H         1 UNK         0.0800 
    136 H136        2.8597  -15.7687  -51.9206 H         1 UNK         0.1150 
    137 H137        0.6862  -19.3451  -52.8397 H         1 UNK         0.1150 
    138 H138        1.9246  -18.5575  -48.8101 H         1 UNK         0.1150 
    139 H139       -0.3157  -20.1923  -49.7640 H         1 UNK         0.0800 
    140 H140        0.2469  -20.9740  -51.2143 H         1 UNK         0.0800 
    141 H141        0.7308  -20.1222  -47.6203 H         1 UNK         0.0800 
    142 H142        2.1648  -20.9692  -47.1164 H         1 UNK         0.0800 
    143 H143        0.8754  -23.1541  -47.2491 H         1 UNK         0.0600 
    144 H144        0.6757  -21.2276  -45.1798 H         1 UNK         0.3000 
    145 H145       -0.9624  -23.3822  -42.8134 H         1 UNK         0.0600 
    146 H146        1.0170  -22.6645  -41.5212 H         1 UNK         0.0600 
    147 H147        1.5027  -23.8249  -42.7478 H         1 UNK         0.0600 
    148 H148        1.8213  -22.1105  -42.9879 H         1 UNK         0.0600 
    149 H149       -0.1741  -20.6686  -42.5973 H         1 UNK         0.3000 
    150 H150       -3.2530  -19.2174  -43.7889 H         1 UNK         0.0600 
    151 H151       -3.5163  -19.8527  -41.3794 H         1 UNK         0.0600 
    152 H152       -3.0671  -18.1647  -41.5669 H         1 UNK         0.0600 
    153 H153       -1.8604  -19.3462  -41.0633 H         1 UNK         0.0600 
    154 H154       -0.8951  -17.9528  -42.8858 H         1 UNK         0.3000 
    155 H155        0.7313  -17.6626  -46.0942 H         1 UNK         0.0600 
    156 H156       -0.5552  -15.7332  -44.0854 H         1 UNK         0.0600 
    157 H157       -0.8675  -15.7878  -45.8160 H         1 UNK         0.0600 
    158 H158        0.7183  -15.3177  -45.2271 H         1 UNK         0.0600 
    159 H159        1.6538  -16.8926  -43.5459 H         1 UNK         0.3000 
    160 H160        3.2841  -19.9471  -42.6130 H         1 UNK         0.0600 
    161 H161        5.1226  -18.2792  -42.3855 H         1 UNK         0.0600 
    162 H162        4.2563  -17.1562  -43.4344 H         1 UNK         0.0600 
    163 H163        4.8431  -18.6848  -44.0718 H         1 UNK         0.0600 
    164 H164        2.9046  -17.3955  -41.3337 H         1 UNK         0.3000 
    165 H165        0.0174  -18.3117  -39.4451 H         1 UNK         0.0600 
    166 H166        1.5406  -17.6987  -37.5899 H         1 UNK         0.0600 
    167 H167        1.9687  -19.2808  -38.2207 H         1 UNK         0.0600 
    168 H168        2.9458  -17.8790  -38.6405 H         1 UNK         0.0600 
    169 H169        1.6378  -15.9533  -39.5032 H         1 UNK         0.3000 
    170 H170       -0.1418  -14.2490  -42.0763 H         1 UNK         0.0600 
    171 H171       -1.5453  -13.9765  -40.0250 H         1 UNK         0.0600 
    172 H172       -0.0945  -13.8222  -39.0414 H         1 UNK         0.0600 
    173 H173       -0.4743  -12.6052  -40.2608 H         1 UNK         0.0600 
    174 H174        1.9334  -13.3249  -40.4233 H         1 UNK         0.3000 
    175 H175        3.9133  -12.8283  -41.3836 H         1 UNK         0.0600 
    176 H176        5.0661  -15.6625  -41.5646 H         1 UNK         0.0600 
    177 H177        5.9252  -14.2308  -41.0021 H         1 UNK         0.0600 
    178 H178        4.5608  -14.8512  -40.0877 H         1 UNK         0.0600 
    179 H179        5.1426  -14.3284  -43.5667 H         1 UNK         0.3000 
    180 H180        2.5377  -11.8177  -43.0122 H         1 UNK         0.0600 
    181 H181        4.8558   -9.9237  -43.7317 H         1 UNK         0.0600 
    182 H182        4.6497  -10.6920  -42.1643 H         1 UNK         0.0600 
    183 H183        3.4696   -9.5183  -42.7221 H         1 UNK         0.0600 
    184 H184        3.0881  -11.1940  -45.7630 H         1 UNK         0.3000 
    185 H185       -0.1919  -10.0607  -46.2604 H         1 UNK         0.0600 
    186 H186        0.8217   -7.8124  -45.8670 H         1 UNK         0.0600 
    187 H187        2.2803   -8.3049  -46.7186 H         1 UNK         0.0600 
    188 H188        0.7465   -8.1811  -47.5822 H         1 UNK         0.0600 
    189 H189        1.9910  -10.3534  -48.0740 H         1 UNK         0.3000 
    190 H190       -1.6902  -20.6969  -46.5559 H         1 UNK         0.3000 
    191 H191       -3.3568  -21.2810  -48.7425 H         1 UNK         0.0600 
    192 H192       -4.0755  -20.2686  -45.9453 H         1 UNK         0.0600 
    193 H193       -5.1533  -20.2335  -47.3332 H         1 UNK         0.0600 
    194 H194       -3.6744  -19.2842  -47.3505 H         1 UNK         0.0600 
    195 H195       -3.2946  -22.7869  -45.4786 H         1 UNK         0.3000 
    196 H196       -5.4451  -24.5916  -45.8659 H         1 UNK         0.0600 
    197 H197       -4.4366  -25.8001  -43.9245 H         1 UNK         0.0600 
    198 H198       -4.5141  -24.0679  -43.6377 H         1 UNK         0.0600 
    199 H199       -2.9800  -24.8223  -44.0597 H         1 UNK         0.0600 
    200 H200       -1.9105  -25.0440  -46.3985 H         1 UNK         0.3000 
    201 H201       -2.0318  -27.7096  -47.3681 H         1 UNK         0.0600 
    202 H202        0.0561  -26.6333  -46.5652 H         1 UNK         0.0600 
    203 H203        0.0239  -25.5025  -47.9160 H         1 UNK         0.0600 
    204 H204        0.2666  -27.2202  -48.2085 H         1 UNK         0.0600 
    205 H205       -2.3507  -24.5933  -49.0352 H         1 UNK         0.3000 
    206 H206       -2.5870  -25.7008  -51.6992 H         1 UNK         0.0600 
    207 H207       -1.5980  -23.4688  -51.2856 H         1 UNK         0.0600 
    208 H208       -3.0295  -23.3033  -52.2828 H         1 UNK         0.0600 
    209 H209       -3.1050  -22.9029  -50.5734 H         1 UNK         0.0600 
    210 H210       -4.6625  -26.2784  -49.3660 H         1 UNK         0.3000 
    211 H211       -6.7615  -26.9311  -49.1914 H         1 UNK         0.0600 
    212 H212       -6.8617  -26.8566  -52.2551 H         1 UNK         0.0600 
    213 H213       -7.9752  -27.7131  -51.2002 H         1 UNK         0.0600 
    214 H214       -6.2907  -28.2054  -51.2754 H         1 UNK         0.0600 
    215 H215       -6.5803  -24.5337  -48.4122 H         1 UNK         0.3000 
    216 H216       -7.6441  -22.7035  -47.7995 H         1 UNK         0.0600 
    217 H217      -10.0453  -22.3615  -48.1688 H         1 UNK         0.0600 
    218 H218       -9.7607  -24.0439  -47.7534 H         1 UNK         0.0600 
    219 H219      -10.0867  -23.5874  -49.4252 H         1 UNK         0.0600 
    220 H220       -5.8033  -22.5589  -49.6528 H         1 UNK         0.3000 
    221 H221       -4.7603  -21.2945  -51.1296 H         1 UNK         0.0600 
    222 H222       -6.9465  -19.2091  -50.6461 H         1 UNK         0.0600 
    223 H223       -5.5273  -19.4529  -49.6300 H         1 UNK         0.0600 
    224 H224       -5.3393  -18.9015  -51.2824 H         1 UNK         0.0600 
    225 H225       -6.8287  -23.1538  -52.1976 H         1 UNK         0.3000 
    226 H226       -7.8992  -21.9924  -54.6206 H         1 UNK         0.0600 
    227 H227       -8.9719  -23.9378  -53.5272 H         1 UNK         0.0600 
    228 H228       -8.4536  -24.3719  -55.1495 H         1 UNK         0.0600 
    229 H229       -7.5198  -24.9088  -53.7570 H         1 UNK         0.0600 
    230 H230       -5.0181  -23.9258  -53.7810 H         1 UNK         0.3000 
    231 H231       -3.9938  -23.8817  -56.5538 H         1 UNK         0.0600 
    232 H232       -3.8514  -25.9455  -55.1399 H         1 UNK         0.0600 
    233 H233       -2.8234  -25.0868  -53.9953 H         1 UNK         0.0600 
    234 H234       -2.2652  -25.3773  -55.6356 H         1 UNK         0.0600 
    235 H235       -3.9681  -21.6424  -54.0936 H         1 UNK         0.3000 
    236 H236       -1.1614  -20.7958  -54.2180 H         1 UNK         0.0600 
    237 H237       -1.9099  -19.0792  -52.5889 H         1 UNK         0.0600 
    238 H238       -3.5880  -19.5228  -52.8459 H         1 UNK         0.0600 
    239 H239       -2.4737  -20.6595  -52.0813 H         1 UNK         0.0600 
    240 H240       -0.8123  -18.3684  -54.5284 H         1 UNK         0.3000 
    241 H241       -1.5518  -17.5566  -57.1701 H         1 UNK         0.0600 
    242 H242       -3.9492  -14.9370  -56.7875 H         1 UNK         0.3800 
    243 H243       -2.6809  -15.5401  -57.8145 H         1 UNK         0.3800 
    244 H244        0.6403  -16.9527  -56.4716 H         1 UNK         0.0800 
    245 H245       -0.2324  -15.4631  -56.5777 H         1 UNK         0.0800 
    246 H246        1.6014  -17.9880  -54.6202 H         1 UNK         0.0800 
    247 H247        2.6102  -16.6008  -54.2950 H         1 UNK         0.0800 
@<TRIPOS>BOND
     1    1    2 1    
     2    1  127 1    
     3    1  128 1    
     4    1  129 1    
     5    2    3 2    
     6    2    4 am   BACKBONE|DICT|INTERRES
     7    4    5 1    
     8    4  130 1    
     9    5    6 1    
    10    5   65 1    
    11    5  131 1    
    12    6    7 1    
    13    6  132 1    
    14    6  133 1    
    15    7    8 1    
    16    8    9 1    
    17    8  134 1    
    18    8  135 1    
    19    9   10 ar   
    20    9   14 ar   
    21   10   11 ar   
    22   10  136 1    
    23   11   12 ar   
    24   11  126 1    
    25   12   13 ar   
    26   12  137 1    
    27   13   14 ar   
    28   13   15 1    
    29   14  138 1    
    30   15   16 1    
    31   15  139 1    
    32   15  140 1    
    33   16   17 1    
    34   17   18 1    
    35   17  141 1    
    36   17  142 1    
    37   18   19 1    
    38   18   67 1    
    39   18  143 1    
    40   19   20 am   BACKBONE|DICT|INTERRES
    41   19  144 1    
    42   20   21 2    
    43   20   22 1    
    44   22   23 1    
    45   22   24 1    
    46   22  145 1    
    47   23  146 1    
    48   23  147 1    
    49   23  148 1    
    50   24   25 am   BACKBONE|DICT|INTERRES
    51   24  149 1    
    52   25   26 2    
    53   25   27 1    
    54   27   28 1    
    55   27   29 1    
    56   27  150 1    
    57   28  151 1    
    58   28  152 1    
    59   28  153 1    
    60   29   30 am   BACKBONE|DICT|INTERRES
    61   29  154 1    
    62   30   31 2    
    63   30   32 1    
    64   32   33 1    
    65   32   34 1    
    66   32  155 1    
    67   33  156 1    
    68   33  157 1    
    69   33  158 1    
    70   34   35 am   BACKBONE|DICT|INTERRES
    71   34  159 1    
    72   35   36 2    
    73   35   37 1    
    74   37   38 1    
    75   37   39 1    
    76   37  160 1    
    77   38  161 1    
    78   38  162 1    
    79   38  163 1    
    80   39   40 am   BACKBONE|DICT|INTERRES
    81   39  164 1    
    82   40   41 2    
    83   40   42 1    
    84   42   43 1    
    85   42   44 1    
    86   42  165 1    
    87   43  166 1    
    88   43  167 1    
    89   43  168 1    
    90   44   45 am   BACKBONE|DICT|INTERRES
    91   44  169 1    
    92   45   46 2    
    93   45   47 1    
    94   47   48 1    
    95   47   49 1    
    96   47  170 1    
    97   48  171 1    
    98   48  172 1    
    99   48  173 1    
   100   49   50 am   BACKBONE|DICT|INTERRES
   101   49  174 1    
   102   50   51 2    
   103   50   52 1    
   104   52   53 1    
   105   52   54 1    
   106   52  175 1    
   107   53  176 1    
   108   53  177 1    
   109   53  178 1    
   110   54   55 am   BACKBONE|DICT|INTERRES
   111   54  179 1    
   112   55   56 2    
   113   55   57 1    
   114   57   58 1    
   115   57   59 1    
   116   57  180 1    
   117   58  181 1    
   118   58  182 1    
   119   58  183 1    
   120   59   60 am   BACKBONE|DICT|INTERRES
   121   59  184 1    
   122   60   61 2    
   123   60   62 1    
   124   62   63 1    
   125   62   64 1    
   126   62  185 1    
   127   63  186 1    
   128   63  187 1    
   129   63  188 1    
   130   64   65 am   BACKBONE|DICT|INTERRES
   131   64  189 1    
   132   65   66 2    
   133   67   68 2    
   134   67   69 am   BACKBONE|DICT|INTERRES
   135   69   70 1    
   136   69  190 1    
   137   70   71 1    
   138   70   72 1    
   139   70  191 1    
   140   71  192 1    
   141   71  193 1    
   142   71  194 1    
   143   72   73 2    
   144   72   74 am   BACKBONE|DICT|INTERRES
   145   74   75 1    
   146   74  195 1    
   147   75   76 1    
   148   75   77 1    
   149   75  196 1    
   150   76  197 1    
   151   76  198 1    
   152   76  199 1    
   153   77   78 2    
   154   77   79 am   BACKBONE|DICT|INTERRES
   155   79   80 1    
   156   79  200 1    
   157   80   81 1    
   158   80   82 1    
   159   80  201 1    
   160   81  202 1    
   161   81  203 1    
   162   81  204 1    
   163   82   83 2    
   164   82   84 am   BACKBONE|DICT|INTERRES
   165   84   85 1    
   166   84  205 1    
   167   85   86 1    
   168   85   87 1    
   169   85  206 1    
   170   86  207 1    
   171   86  208 1    
   172   86  209 1    
   173   87   88 2    
   174   87   89 am   BACKBONE|DICT|INTERRES
   175   89   90 1    
   176   89  210 1    
   177   90   91 1    
   178   90   92 1    
   179   90  211 1    
   180   91  212 1    
   181   91  213 1    
   182   91  214 1    
   183   92   93 2    
   184   92   94 am   BACKBONE|DICT|INTERRES
   185   94   95 1    
   186   94  215 1    
   187   95   96 1    
   188   95   97 1    
   189   95  216 1    
   190   96  217 1    
   191   96  218 1    
   192   96  219 1    
   193   97   98 2    
   194   97   99 am   BACKBONE|DICT|INTERRES
   195   99  100 1    
   196   99  220 1    
   197  100  101 1    
   198  100  102 1    
   199  100  221 1    
   200  101  222 1    
   201  101  223 1    
   202  101  224 1    
   203  102  103 2    
   204  102  104 am   BACKBONE|DICT|INTERRES
   205  104  105 1    
   206  104  225 1    
   207  105  106 1    
   208  105  107 1    
   209  105  226 1    
   210  106  227 1    
   211  106  228 1    
   212  106  229 1    
   213  107  108 2    
   214  107  109 am   BACKBONE|DICT|INTERRES
   215  109  110 1    
   216  109  230 1    
   217  110  111 1    
   218  110  112 1    
   219  110  231 1    
   220  111  232 1    
   221  111  233 1    
   222  111  234 1    
   223  112  113 2    
   224  112  114 am   BACKBONE|DICT|INTERRES
   225  114  115 1    
   226  114  235 1    
   227  115  116 1    
   228  115  117 1    
   229  115  236 1    
   230  116  237 1    
   231  116  238 1    
   232  116  239 1    
   233  117  118 2    
   234  117  119 am   BACKBONE|DICT|INTERRES
   235  119  120 1    
   236  119  240 1    
   237  120  121 1    
   238  120  124 1    
   239  120  241 1    
   240  121  122 am   BACKBONE|DICT|INTERRES
   241  121  123 2    
   242  122  242 1    
   243  122  243 1    
   244  124  125 1    
   245  124  244 1    
   246  124  245 1    
   247  125  126 1    
   248  126  246 1    
   249  126  247 1    
@<TRIPOS>SUBSTRUCTURE
     1 UNK         1 GROUP             0       ****    0 ROOT    
