@<TRIPOS>MOLECULE
3R540
247   249    1
SMALL
USER_CHARGES


@<TRIPOS>ATOM
      1 CA         -2.3955  -14.6938  -51.9570 C.3       0 UNK        -0.1800 
      2 C          -1.2682  -13.7176  -51.6512 C.2       0 UNK         0.5000 
      3 O          -1.0459  -12.7766  -52.4137 O.2       0 UNK        -0.5000 
      4 N          -0.5586  -13.9413  -50.5395 N.am      1 UNK        -0.5000 
      5 CA          0.4855  -13.0587  -50.0098 C.3       1 UNK         0.1400 
      6 C6          1.5090  -13.8476  -49.1528 C.3       23 UNK        -0.0398 
      7 S7          0.7841  -14.6957  -47.7066 S.3       23 UNK        -0.2404 
      8 C8          2.0891  -15.9273  -47.3584 C.3       23 UNK        -0.0205 
      9 C9          2.1901  -17.1023  -48.3329 C.ar      23 UNK        -0.0193 
     10 C10         1.2232  -17.3674  -49.3116 C.ar      23 UNK        -0.1150 
     11 C11         1.3595  -18.4537  -50.1782 C.ar      23 UNK        -0.0193 
     12 C12         2.4629  -19.3014  -50.0529 C.ar      23 UNK        -0.1150 
     13 C13         3.4337  -19.0567  -49.0772 C.ar      23 UNK        -0.0193 
     14 C14         3.2905  -17.9581  -48.2248 C.ar      23 UNK        -0.1150 
     15 C15         4.6535  -19.9591  -48.9578 C.3       23 UNK        -0.0205 
     16 S16         4.5415  -21.0827  -47.5306 S.3       23 UNK        -0.2404 
     17 C17         3.1778  -22.1732  -48.0503 C.3       23 UNK        -0.0398 
     18 CA          3.0737  -23.4495  -47.1807 C.3       11 UNK         0.1400 
     19 N           2.7584  -23.1518  -45.7808 N.am      11 UNK        -0.5000 
     20 C           2.8586  -24.0223  -44.7663 C.2       10 UNK         0.5000 
     21 O           3.2614  -25.1790  -44.8934 O.2       10 UNK        -0.5000 
     22 CA          2.4142  -23.5246  -43.3783 C.3       10 UNK         0.1400 
     23 CB          3.5528  -22.7881  -42.6551 C.3       10 UNK        -0.1800 
     24 N           1.2382  -22.6593  -43.4804 N.am      10 UNK        -0.5000 
     25 C          -0.0066  -23.1299  -43.6380 C.2       9 UNK         0.5000 
     26 O          -0.2835  -24.3255  -43.5707 O.2       9 UNK        -0.5000 
     27 CA         -1.1354  -22.1220  -43.9301 C.3       9 UNK         0.1400 
     28 CB         -1.9190  -21.8087  -42.6473 C.3       9 UNK        -0.1800 
     29 N          -0.6712  -20.8698  -44.5269 N.am      9 UNK        -0.5000 
     30 C          -0.1381  -20.7493  -45.7500 C.2       8 UNK         0.5000 
     31 O          -0.0279  -21.6862  -46.5392 O.2       8 UNK        -0.5000 
     32 CA          0.4198  -19.3635  -46.1256 C.3       8 UNK         0.1400 
     33 CB         -0.6988  -18.4312  -46.6089 C.3       8 UNK        -0.1800 
     34 N           1.1400  -18.7313  -45.0190 N.am      8 UNK        -0.5000 
     35 C           2.2313  -19.2491  -44.4383 C.2       7 UNK         0.5000 
     36 O           2.7431  -20.3126  -44.7814 O.2       7 UNK        -0.5000 
     37 CA          2.7998  -18.4928  -43.2291 C.3       7 UNK         0.1400 
     38 CB          3.6894  -17.3221  -43.6751 C.3       7 UNK        -0.1800 
     39 N           1.7232  -18.0093  -42.3656 N.am      7 UNK        -0.5000 
     40 C           1.0366  -18.7903  -41.5184 C.2       6 UNK         0.5000 
     41 O           1.2991  -19.9766  -41.3199 O.2       6 UNK        -0.5000 
     42 CA         -0.1613  -18.1501  -40.7900 C.3       6 UNK         0.1400 
     43 CB          0.2942  -17.4891  -39.4806 C.3       6 UNK        -0.1800 
     44 N          -0.8705  -17.1632  -41.6063 N.am      6 UNK        -0.5000 
     45 C          -1.5629  -17.4530  -42.7166 C.2       5 UNK         0.5000 
     46 O          -1.7107  -18.5941  -43.1496 O.2       5 UNK        -0.5000 
     47 CA         -2.1446  -16.2670  -43.5081 C.3       5 UNK         0.1400 
     48 CB         -3.5695  -15.9476  -43.0348 C.3       5 UNK        -0.1800 
     49 N          -1.3321  -15.0489  -43.4534 N.am      5 UNK        -0.5000 
     50 C          -0.0520  -14.9459  -43.8339 C.2       4 UNK         0.5000 
     51 O           0.6207  -15.9108  -44.1991 O.2       4 UNK        -0.5000 
     52 CA          0.5588  -13.5298  -43.8015 C.3       4 UNK         0.1400 
     53 CB          2.0363  -13.5015  -44.2312 C.3       4 UNK        -0.1800 
     54 N          -0.2036  -12.6023  -44.6405 N.am      4 UNK        -0.5000 
     55 C          -1.3364  -11.9864  -44.2775 C.2       3 UNK         0.5000 
     56 O          -1.8585  -12.1523  -43.1731 O.2       3 UNK        -0.5000 
     57 CA         -2.0366  -11.0828  -45.3154 C.3       3 UNK         0.1400 
     58 CB         -2.6147   -9.8038  -44.6748 C.3       3 UNK        -0.1800 
     59 N          -1.2387  -10.7531  -46.5031 N.am      3 UNK        -0.5000 
     60 C          -0.1234  -10.0159  -46.5840 C.2       2 UNK         0.5000 
     61 O           0.4733   -9.5689  -45.6033 O.2       2 UNK        -0.5000 
     62 CA          0.4042   -9.7410  -48.0124 C.3       2 UNK         0.1400 
     63 CB          1.6302   -8.8096  -48.0194 C.3       2 UNK        -0.1800 
     64 N           0.7436  -10.9594  -48.7548 N.am      2 UNK        -0.5000 
     65 C          -0.1232  -11.8505  -49.2565 C.2       1 UNK         0.5000 
     66 O          -1.3469  -11.7434  -49.1274 O.2       1 UNK        -0.5000 
     67 C           2.0696  -24.4374  -47.8097 C.2       11 UNK         0.5000 
     68 O           2.4942  -25.3735  -48.4892 O.2       11 UNK        -0.5000 
     69 N           0.7680  -24.2090  -47.5936 N.am      12 UNK        -0.5000 
     70 CA         -0.3162  -24.9538  -48.2262 C.3       12 UNK         0.1400 
     71 CB         -0.6990  -24.2663  -49.5493 C.3       12 UNK        -0.1800 
     72 C          -1.5018  -25.0715  -47.2593 C.2       12 UNK         0.5000 
     73 O          -2.5027  -24.3718  -47.4134 O.2       12 UNK        -0.5000 
     74 N          -1.3806  -25.9733  -46.2778 N.am      13 UNK        -0.5000 
     75 CA         -2.3523  -26.2143  -45.2005 C.3       13 UNK         0.1400 
     76 CB         -1.7951  -27.3089  -44.2761 C.3       13 UNK        -0.1800 
     77 C          -3.7856  -26.5767  -45.6462 C.2       13 UNK         0.5000 
     78 O          -4.7111  -26.4596  -44.8421 O.2       13 UNK        -0.5000 
     79 N          -3.9496  -27.0059  -46.9044 N.am      14 UNK        -0.5000 
     80 CA         -5.2308  -27.3488  -47.5189 C.3       14 UNK         0.1400 
     81 CB         -4.9671  -28.0013  -48.8848 C.3       14 UNK        -0.1800 
     82 C          -6.1960  -26.1560  -47.6749 C.2       14 UNK         0.5000 
     83 O          -7.4079  -26.3628  -47.5926 O.2       14 UNK        -0.5000 
     84 N          -5.6641  -24.9462  -47.9087 N.am      15 UNK        -0.5000 
     85 CA         -6.4703  -23.7454  -48.1684 C.3       15 UNK         0.1400 
     86 CB         -6.9912  -23.7708  -49.6194 C.3       15 UNK        -0.1800 
     87 C          -5.7621  -22.4160  -47.8409 C.2       15 UNK         0.5000 
     88 O          -6.3689  -21.3594  -48.0245 O.2       15 UNK        -0.5000 
     89 N          -4.5104  -22.4631  -47.3641 N.am      16 UNK        -0.5000 
     90 CA         -3.6563  -21.3236  -47.0278 C.3       16 UNK         0.1400 
     91 CB         -4.1790  -20.5969  -45.7676 C.3       16 UNK        -0.1800 
     92 C          -3.4211  -20.4148  -48.2504 C.2       16 UNK         0.5000 
     93 O          -2.9903  -20.9089  -49.2921 O.2       16 UNK        -0.5000 
     94 N          -3.7202  -19.1151  -48.1265 N.am      17 UNK        -0.5000 
     95 CA         -3.5502  -18.1176  -49.1865 C.3       17 UNK         0.1400 
     96 CB         -3.7649  -16.7180  -48.5905 C.3       17 UNK        -0.1800 
     97 C          -4.4598  -18.3420  -50.4123 C.2       17 UNK         0.5000 
     98 O          -4.1402  -17.8554  -51.4968 O.2       17 UNK        -0.5000 
     99 N          -5.5645  -19.0783  -50.2275 N.am      18 UNK        -0.5000 
    100 CA        -6.5151  -19.4172  -51.2837 C.3       18 UNK         0.1400 
    101 CB        -7.9037  -19.6289  -50.6608 C.3       18 UNK        -0.1800 
    102 C         -6.0946  -20.6438  -52.1166 C.2       18 UNK         0.5000 
    103 O         -6.7190  -20.8856  -53.1505 O.2       18 UNK        -0.5000 
    104 N         -5.0652  -21.3929  -51.6856 N.am      19 UNK        -0.5000 
    105 CA        -4.5447  -22.5857  -52.3632 C.3       19 UNK         0.1400 
    106 CB        -3.4579  -23.2358  -51.4933 C.3       19 UNK        -0.1800 
    107 C         -4.0093  -22.2471  -53.7659 C.2       19 UNK         0.5000 
    108 O         -2.9375  -21.6502  -53.8828 O.2       19 UNK        -0.5000 
    109 N         -4.8182  -22.5505  -54.7935 N.am      20 UNK        -0.5000 
    110 CA        -4.6471  -22.1614  -56.2017 C.3       20 UNK         0.1400 
    111 CB        -3.4653  -22.9276  -56.8311 C.3       20 UNK        -0.1800 
    112 C         -4.5309  -20.6308  -56.3945 C.2       20 UNK         0.5000 
    113 O         -3.8467  -20.1745  -57.3128 O.2       20 UNK        -0.5000 
    114 N         -5.1418  -19.8667  -55.4729 N.am      21 UNK        -0.5000 
    115 CA        -5.0152  -18.4154  -55.2849 C.3       21 UNK         0.1400 
    116 CB        -5.7408  -17.6662  -56.4208 C.3       21 UNK        -0.1800 
    117 C         -3.5559  -17.9338  -55.0930 C.2       21 UNK         0.5000 
    118 O         -3.2558  -16.7739  -55.3807 O.2       21 UNK        -0.5000 
    119 N         -2.6709  -18.8349  -54.6386 N.am      22 UNK        -0.5000 
    120 CA        -1.2131  -18.6584  -54.5684 C.3       22 UNK         0.1400 
    121 C         -0.5116  -18.5807  -55.9640 C.2       22 UNK         0.5000 
    122 N         -1.1439  -19.0074  -57.0524 N.am      22 UNK        -0.7600 
    123 O          0.6335  -18.1518  -56.0729 O.2       22 UNK        -0.5000 
    124 C124       -0.8140  -17.5192  -53.5901 C.3       23 UNK        -0.0398 
    125 S125        0.7974  -17.7728  -52.7739 S.3       23 UNK        -0.2404 
    126 C126        0.3254  -18.6785  -51.2683 C.3       23 UNK        -0.0205 
    127 H127       -2.2963  -15.6141  -51.3818 H         1 UNK         0.0600 
    128 H128       -2.3981  -14.9542  -53.0154 H         1 UNK         0.0600 
    129 H129       -3.3579  -14.2427  -51.7163 H         1 UNK         0.0600 
    130 H130       -0.8189  -14.7009  -49.9287 H         1 UNK         0.3000 
    131 H131        1.0345  -12.6428  -50.8572 H         1 UNK         0.0600 
    132 H132        1.9922  -14.5925  -49.7866 H         1 UNK         0.0800 
    133 H133        2.3171  -13.2019  -48.8069 H         1 UNK         0.0800 
    134 H134        1.9139  -16.3346  -46.3650 H         1 UNK         0.0800 
    135 H135        3.0493  -15.4118  -47.3099 H         1 UNK         0.0800 
    136 H136        0.3604  -16.7289  -49.4198 H         1 UNK         0.1150 
    137 H137        2.5735  -20.1394  -50.7267 H         1 UNK         0.1150 
    138 H138        4.0409  -17.7724  -47.4689 H         1 UNK         0.1150 
    139 H139        4.7982  -20.5398  -49.8701 H         1 UNK         0.0800 
    140 H140        5.5461  -19.3416  -48.8479 H         1 UNK         0.0800 
    141 H141        3.3431  -22.4389  -49.0962 H         1 UNK         0.0800 
    142 H142        2.2463  -21.6059  -48.0201 H         1 UNK         0.0800 
    143 H143        4.0499  -23.9393  -47.1953 H         1 UNK         0.0600 
    144 H144        2.4888  -22.1960  -45.5740 H         1 UNK         0.3000 
    145 H145        2.1576  -24.3984  -42.7752 H         1 UNK         0.0600 
    146 H146        3.9421  -21.9551  -43.2388 H         1 UNK         0.0600 
    147 H147        3.2219  -22.3973  -41.6926 H         1 UNK         0.0600 
    148 H148        4.3868  -23.4641  -42.4635 H         1 UNK         0.0600 
    149 H149        1.4064  -21.6650  -43.5547 H         1 UNK         0.3000 
    150 H150       -1.8172  -22.5988  -44.6371 H         1 UNK         0.0600 
    151 H151       -2.2991  -22.7213  -42.1865 H         1 UNK         0.0600 
    152 H152       -2.7766  -21.1687  -42.8549 H         1 UNK         0.0600 
    153 H153       -1.2939  -21.3021  -41.9109 H         1 UNK         0.0600 
    154 H154       -0.7911  -20.0323  -43.9623 H         1 UNK         0.3000 
    155 H155        1.1311  -19.4990  -46.9422 H         1 UNK         0.0600 
    156 H156       -1.0436  -18.7440  -47.5929 H         1 UNK         0.0600 
    157 H157       -1.5545  -18.4335  -45.9351 H         1 UNK         0.0600 
    158 H158       -0.3563  -17.4017  -46.7030 H         1 UNK         0.0600 
    159 H159        0.7944  -17.8354  -44.6899 H         1 UNK         0.3000 
    160 H160        3.4224  -19.1875  -42.6607 H         1 UNK         0.0600 
    161 H161        4.5197  -17.6788  -44.2857 H         1 UNK         0.0600 
    162 H162        3.1409  -16.5922  -44.2690 H         1 UNK         0.0600 
    163 H163        4.1158  -16.8025  -42.8171 H         1 UNK         0.0600 
    164 H164        1.3966  -17.0678  -42.5394 H         1 UNK         0.3000 
    165 H165       -0.8629  -18.9499  -40.5430 H         1 UNK         0.0600 
    166 H166       -0.5554  -17.1023  -38.9175 H         1 UNK         0.0600 
    167 H167        0.8078  -18.2069  -38.8395 H         1 UNK         0.0600 
    168 H168        0.9813  -16.6621  -39.6640 H         1 UNK         0.0600 
    169 H169       -0.7960  -16.1966  -41.3258 H         1 UNK         0.3000 
    170 H170       -2.1969  -16.5704  -44.5550 H         1 UNK         0.0600 
    171 H171       -4.2069  -16.8313  -43.0889 H         1 UNK         0.0600 
    172 H172       -3.5807  -15.5959  -42.0025 H         1 UNK         0.0600 
    173 H173       -4.0285  -15.1787  -43.6566 H         1 UNK         0.0600 
    174 H174       -1.8019  -14.1956  -43.1701 H         1 UNK         0.3000 
    175 H175        0.5174  -13.1885  -42.7651 H         1 UNK         0.0600 
    176 H176        2.1681  -13.8299  -45.2610 H         1 UNK         0.0600 
    177 H177        2.4500  -12.4965  -44.1469 H         1 UNK         0.0600 
    178 H178        2.6399  -14.1537  -43.5989 H         1 UNK         0.0600 
    179 H179        0.1408  -12.4539  -45.5774 H         1 UNK         0.3000 
    180 H180       -2.8796  -11.6678  -45.6857 H         1 UNK         0.0600 
    181 H181       -3.3362  -10.0462  -43.8936 H         1 UNK         0.0600 
    182 H182       -3.1342   -9.1927  -45.4129 H         1 UNK         0.0600 
    183 H183       -1.8362   -9.1913  -44.2192 H         1 UNK         0.0600 
    184 H184       -1.5926  -11.1218  -47.3837 H         1 UNK         0.3000 
    185 H185       -0.3969   -9.2290  -48.5496 H         1 UNK         0.0600 
    186 H186        1.9351   -8.5659  -49.0374 H         1 UNK         0.0600 
    187 H187        1.4098   -7.8673  -47.5160 H         1 UNK         0.0600 
    188 H188        2.4833   -9.2622  -47.5123 H         1 UNK         0.0600 
    189 H189        1.7314  -11.1201  -48.8862 H         1 UNK         0.3000 
    190 H190        0.4884  -23.3944  -47.0487 H         1 UNK         0.3000 
    191 H191        0.0089  -25.9710  -48.4545 H         1 UNK         0.0600 
    192 H192       -1.0266  -23.2377  -49.3883 H         1 UNK         0.0600 
    193 H193       -1.5118  -24.8013  -50.0404 H         1 UNK         0.0600 
    194 H194        0.1410  -24.2445  -50.2434 H         1 UNK         0.0600 
    195 H195       -0.5196  -26.4971  -46.2161 H         1 UNK         0.3000 
    196 H196       -2.4387  -25.2896  -44.6284 H         1 UNK         0.0600 
    197 H197       -2.4622  -27.4876  -43.4317 H         1 UNK         0.0600 
    198 H198       -0.8263  -27.0247  -43.8648 H         1 UNK         0.0600 
    199 H199       -1.6717  -28.2551  -44.8042 H         1 UNK         0.0600 
    200 H200       -3.1318  -27.0740  -47.4909 H         1 UNK         0.3000 
    201 H201       -5.7204  -28.0855  -46.8785 H         1 UNK         0.0600 
    202 H202       -4.3591  -28.9004  -48.7827 H         1 UNK         0.0600 
    203 H203       -4.4509  -27.3206  -49.5632 H         1 UNK         0.0600 
    204 H204       -5.9017  -28.2958  -49.3642 H         1 UNK         0.0600 
    205 H205       -4.6575  -24.8552  -47.9532 H         1 UNK         0.3000 
    206 H206       -7.3359  -23.7644  -47.5029 H         1 UNK         0.0600 
    207 H207       -7.6812  -24.5995  -49.7775 H         1 UNK         0.0600 
    208 H208       -7.5303  -22.8580  -49.8733 H         1 UNK         0.0600 
    209 H209       -6.1755  -23.8825  -50.3300 H         1 UNK         0.0600 
    210 H210       -4.0229  -23.3517  -47.3079 H         1 UNK         0.3000 
    211 H211       -2.6841  -21.7474  -46.7835 H         1 UNK         0.0600 
    212 H212       -5.1466  -20.1226  -45.9336 H         1 UNK         0.0600 
    213 H213       -3.4807  -19.8299  -45.4316 H         1 UNK         0.0600 
    214 H214       -4.2966  -21.2976  -44.9411 H         1 UNK         0.0600 
    215 H215       -4.1064  -18.7876  -47.2534 H         1 UNK         0.3000 
    216 H216       -2.5198  -18.1788  -49.5388 H         1 UNK         0.0600 
    217 H217       -3.6418  -15.9435  -49.3480 H         1 UNK         0.0600 
    218 H218       -3.0446  -16.5118  -47.7983 H         1 UNK         0.0600 
    219 H219       -4.7664  -16.6092  -48.1726 H         1 UNK         0.0600 
    220 H220       -5.7432  -19.4775  -49.3144 H         1 UNK         0.3000 
    221 H221       -6.5909  -18.5741  -51.9736 H         1 UNK         0.0600 
    222 H222       -7.9147  -20.4699  -49.9687 H         1 UNK         0.0600 
    223 H223       -8.2302  -18.7430  -50.1158 H         1 UNK         0.0600 
    224 H224       -8.6514  -19.8292  -51.4293 H         1 UNK         0.0600 
    225 H225       -4.5616  -21.0987  -50.8574 H         1 UNK         0.3000 
    226 H226       -5.3642  -23.2991  -52.4665 H         1 UNK         0.0600 
    227 H227       -3.8278  -23.4746  -50.4962 H         1 UNK         0.0600 
    228 H228       -3.1055  -24.1647  -51.9427 H         1 UNK         0.0600 
    229 H229       -2.5930  -22.5818  -51.3751 H         1 UNK         0.0600 
    230 H230       -5.7039  -22.9880  -54.5782 H         1 UNK         0.3000 
    231 H231       -5.5569  -22.4652  -56.7211 H         1 UNK         0.0600 
    232 H232       -3.4130  -22.7534  -57.9064 H         1 UNK         0.0600 
    233 H233       -3.5687  -24.0025  -56.6831 H         1 UNK         0.0600 
    234 H234       -2.5101  -22.6204  -56.4037 H         1 UNK         0.0600 
    235 H235       -5.6841  -20.3449  -54.7592 H         1 UNK         0.3000 
    236 H236       -5.5305  -18.1835  -54.3519 H         1 UNK         0.0600 
    237 H237       -5.7804  -16.5945  -56.2226 H         1 UNK         0.0600 
    238 H238       -6.7689  -18.0121  -56.5272 H         1 UNK         0.0600 
    239 H239       -5.2393  -17.8036  -57.3793 H         1 UNK         0.0600 
    240 H240       -2.9906  -19.7748  -54.4248 H         1 UNK         0.3000 
    241 H241       -0.8584  -19.5952  -54.1375 H         1 UNK         0.0600 
    242 H242       -0.6744  -18.9577  -57.9424 H         1 UNK         0.3800 
    243 H243       -2.0907  -19.3724  -57.0097 H         1 UNK         0.3800 
    244 H244       -0.7946  -16.5591  -54.1079 H         1 UNK         0.0800 
    245 H245       -1.5706  -17.4153  -52.8123 H         1 UNK         0.0800 
    246 H246        0.2281  -19.7415  -51.4945 H         1 UNK         0.0800 
    247 H247       -0.6518  -18.3468  -50.9189 H         1 UNK         0.0800 
@<TRIPOS>BOND
     1    1    2 1    
     2    1  127 1    
     3    1  128 1    
     4    1  129 1    
     5    2    3 2    
     6    2    4 am   BACKBONE|DICT|INTERRES
     7    4    5 1    
     8    4  130 1    
     9    5    6 1    
    10    5   65 1    
    11    5  131 1    
    12    6    7 1    
    13    6  132 1    
    14    6  133 1    
    15    7    8 1    
    16    8    9 1    
    17    8  134 1    
    18    8  135 1    
    19    9   10 ar   
    20    9   14 ar   
    21   10   11 ar   
    22   10  136 1    
    23   11   12 ar   
    24   11  126 1    
    25   12   13 ar   
    26   12  137 1    
    27   13   14 ar   
    28   13   15 1    
    29   14  138 1    
    30   15   16 1    
    31   15  139 1    
    32   15  140 1    
    33   16   17 1    
    34   17   18 1    
    35   17  141 1    
    36   17  142 1    
    37   18   19 1    
    38   18   67 1    
    39   18  143 1    
    40   19   20 am   BACKBONE|DICT|INTERRES
    41   19  144 1    
    42   20   21 2    
    43   20   22 1    
    44   22   23 1    
    45   22   24 1    
    46   22  145 1    
    47   23  146 1    
    48   23  147 1    
    49   23  148 1    
    50   24   25 am   BACKBONE|DICT|INTERRES
    51   24  149 1    
    52   25   26 2    
    53   25   27 1    
    54   27   28 1    
    55   27   29 1    
    56   27  150 1    
    57   28  151 1    
    58   28  152 1    
    59   28  153 1    
    60   29   30 am   BACKBONE|DICT|INTERRES
    61   29  154 1    
    62   30   31 2    
    63   30   32 1    
    64   32   33 1    
    65   32   34 1    
    66   32  155 1    
    67   33  156 1    
    68   33  157 1    
    69   33  158 1    
    70   34   35 am   BACKBONE|DICT|INTERRES
    71   34  159 1    
    72   35   36 2    
    73   35   37 1    
    74   37   38 1    
    75   37   39 1    
    76   37  160 1    
    77   38  161 1    
    78   38  162 1    
    79   38  163 1    
    80   39   40 am   BACKBONE|DICT|INTERRES
    81   39  164 1    
    82   40   41 2    
    83   40   42 1    
    84   42   43 1    
    85   42   44 1    
    86   42  165 1    
    87   43  166 1    
    88   43  167 1    
    89   43  168 1    
    90   44   45 am   BACKBONE|DICT|INTERRES
    91   44  169 1    
    92   45   46 2    
    93   45   47 1    
    94   47   48 1    
    95   47   49 1    
    96   47  170 1    
    97   48  171 1    
    98   48  172 1    
    99   48  173 1    
   100   49   50 am   BACKBONE|DICT|INTERRES
   101   49  174 1    
   102   50   51 2    
   103   50   52 1    
   104   52   53 1    
   105   52   54 1    
   106   52  175 1    
   107   53  176 1    
   108   53  177 1    
   109   53  178 1    
   110   54   55 am   BACKBONE|DICT|INTERRES
   111   54  179 1    
   112   55   56 2    
   113   55   57 1    
   114   57   58 1    
   115   57   59 1    
   116   57  180 1    
   117   58  181 1    
   118   58  182 1    
   119   58  183 1    
   120   59   60 am   BACKBONE|DICT|INTERRES
   121   59  184 1    
   122   60   61 2    
   123   60   62 1    
   124   62   63 1    
   125   62   64 1    
   126   62  185 1    
   127   63  186 1    
   128   63  187 1    
   129   63  188 1    
   130   64   65 am   BACKBONE|DICT|INTERRES
   131   64  189 1    
   132   65   66 2    
   133   67   68 2    
   134   67   69 am   BACKBONE|DICT|INTERRES
   135   69   70 1    
   136   69  190 1    
   137   70   71 1    
   138   70   72 1    
   139   70  191 1    
   140   71  192 1    
   141   71  193 1    
   142   71  194 1    
   143   72   73 2    
   144   72   74 am   BACKBONE|DICT|INTERRES
   145   74   75 1    
   146   74  195 1    
   147   75   76 1    
   148   75   77 1    
   149   75  196 1    
   150   76  197 1    
   151   76  198 1    
   152   76  199 1    
   153   77   78 2    
   154   77   79 am   BACKBONE|DICT|INTERRES
   155   79   80 1    
   156   79  200 1    
   157   80   81 1    
   158   80   82 1    
   159   80  201 1    
   160   81  202 1    
   161   81  203 1    
   162   81  204 1    
   163   82   83 2    
   164   82   84 am   BACKBONE|DICT|INTERRES
   165   84   85 1    
   166   84  205 1    
   167   85   86 1    
   168   85   87 1    
   169   85  206 1    
   170   86  207 1    
   171   86  208 1    
   172   86  209 1    
   173   87   88 2    
   174   87   89 am   BACKBONE|DICT|INTERRES
   175   89   90 1    
   176   89  210 1    
   177   90   91 1    
   178   90   92 1    
   179   90  211 1    
   180   91  212 1    
   181   91  213 1    
   182   91  214 1    
   183   92   93 2    
   184   92   94 am   BACKBONE|DICT|INTERRES
   185   94   95 1    
   186   94  215 1    
   187   95   96 1    
   188   95   97 1    
   189   95  216 1    
   190   96  217 1    
   191   96  218 1    
   192   96  219 1    
   193   97   98 2    
   194   97   99 am   BACKBONE|DICT|INTERRES
   195   99  100 1    
   196   99  220 1    
   197  100  101 1    
   198  100  102 1    
   199  100  221 1    
   200  101  222 1    
   201  101  223 1    
   202  101  224 1    
   203  102  103 2    
   204  102  104 am   BACKBONE|DICT|INTERRES
   205  104  105 1    
   206  104  225 1    
   207  105  106 1    
   208  105  107 1    
   209  105  226 1    
   210  106  227 1    
   211  106  228 1    
   212  106  229 1    
   213  107  108 2    
   214  107  109 am   BACKBONE|DICT|INTERRES
   215  109  110 1    
   216  109  230 1    
   217  110  111 1    
   218  110  112 1    
   219  110  231 1    
   220  111  232 1    
   221  111  233 1    
   222  111  234 1    
   223  112  113 2    
   224  112  114 am   BACKBONE|DICT|INTERRES
   225  114  115 1    
   226  114  235 1    
   227  115  116 1    
   228  115  117 1    
   229  115  236 1    
   230  116  237 1    
   231  116  238 1    
   232  116  239 1    
   233  117  118 2    
   234  117  119 am   BACKBONE|DICT|INTERRES
   235  119  120 1    
   236  119  240 1    
   237  120  121 1    
   238  120  124 1    
   239  120  241 1    
   240  121  122 am   BACKBONE|DICT|INTERRES
   241  121  123 2    
   242  122  242 1    
   243  122  243 1    
   244  124  125 1    
   245  124  244 1    
   246  124  245 1    
   247  125  126 1    
   248  126  246 1    
   249  126  247 1    
@<TRIPOS>SUBSTRUCTURE
     1 UNK         1 GROUP             0       ****    0 ROOT    
