@<TRIPOS>MOLECULE
3R540
247   249    1
SMALL
USER_CHARGES


@<TRIPOS>ATOM
      1 CA         -0.9701  -15.9428  -45.7581 C.3       0 UNK        -0.1800 
      2 C          -1.9303  -14.8272  -45.3879 C.2       0 UNK         0.5000 
      3 O          -1.5889  -13.9692  -44.5749 O.2       0 UNK        -0.5000 
      4 N          -3.1307  -14.8368  -45.9827 N.am      1 UNK        -0.5000 
      5 CA         -4.1339  -13.7762  -45.8246 C.3       1 UNK         0.1400 
      6 C6         -5.5798  -14.2994  -46.0233 C.3       23 UNK        -0.0398 
      7 S7         -6.0112  -14.8002  -47.7287 S.3       23 UNK        -0.2404 
      8 C8         -6.1591  -16.6101  -47.5835 C.3       23 UNK        -0.0205 
      9 C9         -4.8036  -17.2984  -47.5423 C.ar      23 UNK        -0.0193 
     10 C10        -3.9296  -17.1756  -48.6248 C.ar      23 UNK        -0.1150 
     11 C11        -2.6880  -17.8130  -48.6137 C.ar      23 UNK        -0.0193 
     12 C12        -2.3305  -18.6030  -47.5179 C.ar      23 UNK        -0.1150 
     13 C13        -3.1969  -18.7387  -46.4285 C.ar      23 UNK        -0.0193 
     14 C14        -4.4283  -18.0745  -46.4416 C.ar      23 UNK        -0.1150 
     15 C15        -2.7887  -19.5849  -45.2323 C.3       23 UNK        -0.0205 
     16 S16        -3.8567  -21.0405  -45.0270 S.3       23 UNK        -0.2404 
     17 C17        -2.8134  -22.0868  -43.9549 C.3       23 UNK        -0.0398 
     18 CA         -2.0968  -23.1955  -44.7749 C.3       11 UNK         0.1400 
     19 N          -0.6422  -22.9961  -44.8670 N.am      11 UNK        -0.5000 
     20 C           0.1586  -23.6632  -45.7144 C.2       10 UNK         0.5000 
     21 O          -0.2496  -24.5649  -46.4452 O.2       10 UNK        -0.5000 
     22 CA          1.6519  -23.2964  -45.7614 C.3       10 UNK         0.1400 
     23 CB          2.0263  -22.7356  -47.1435 C.3       10 UNK        -0.1800 
     24 N           2.0371  -22.3342  -44.7291 N.am      10 UNK        -0.5000 
     25 C           2.4423  -22.6634  -43.4938 C.2       9 UNK         0.5000 
     26 O           2.5037  -23.8243  -43.0881 O.2       9 UNK        -0.5000 
     27 CA          2.8455  -21.5134  -42.5472 C.3       9 UNK         0.1400 
     28 CB          4.3733  -21.3566  -42.5166 C.3       9 UNK        -0.1800 
     29 N           2.2497  -20.2272  -42.9090 N.am      9 UNK        -0.5000 
     30 C           0.9500  -19.9267  -42.7809 C.2       8 UNK         0.5000 
     31 O           0.1208  -20.6886  -42.2848 O.2       8 UNK        -0.5000 
     32 CA          0.4889  -18.5744  -43.3589 C.3       8 UNK         0.1400 
     33 CB          0.4855  -17.4927  -42.2708 C.3       8 UNK        -0.1800 
     34 N           1.2915  -18.1236  -44.5010 N.am      8 UNK        -0.5000 
     35 C           1.4262  -18.8002  -45.6539 C.2       7 UNK         0.5000 
     36 O           0.8327  -19.8533  -45.8807 O.2       7 UNK        -0.5000 
     37 CA          2.4076  -18.2611  -46.7145 C.3       7 UNK         0.1400 
     38 CB          1.6595  -17.8231  -47.9807 C.3       7 UNK        -0.1800 
     39 N           3.2497  -17.1619  -46.2405 N.am      7 UNK        -0.5000 
     40 C           4.2369  -17.2915  -45.3398 C.2       6 UNK         0.5000 
     41 O           4.5618  -18.3711  -44.8435 O.2       6 UNK        -0.5000 
     42 CA          4.9516  -16.0038  -44.8775 C.3       6 UNK         0.1400 
     43 CB          6.2749  -15.8246  -45.6363 C.3       6 UNK        -0.1800 
     44 N           4.1482  -14.7884  -45.0323 N.am      6 UNK        -0.5000 
     45 C           2.9653  -14.5566  -44.4450 C.2       5 UNK         0.5000 
     46 O           2.4434  -15.3325  -43.6452 O.2       5 UNK        -0.5000 
     47 CA          2.2168  -13.2726  -44.8551 C.3       5 UNK         0.1400 
     48 CB          2.4322  -12.1678  -43.8106 C.3       5 UNK        -0.1800 
     49 N           2.5731  -12.7499  -46.1787 N.am      5 UNK        -0.5000 
     50 C           2.4582  -13.4018  -47.3435 C.2       4 UNK         0.5000 
     51 O           2.1124  -14.5810  -47.4296 O.2       4 UNK        -0.5000 
     52 CA          2.7800  -12.5851  -48.6135 C.3       4 UNK         0.1400 
     53 CB          2.7549  -13.4466  -49.8877 C.3       4 UNK        -0.1800 
     54 N           1.8359  -11.4806  -48.7804 N.am      4 UNK        -0.5000 
     55 C           1.8429  -10.3280  -48.0964 C.2       3 UNK         0.5000 
     56 O           2.7318  -10.0150  -47.3025 O.2       3 UNK        -0.5000 
     57 CA          0.6349   -9.3886  -48.3000 C.3       3 UNK         0.1400 
     58 CB          0.9620   -8.3113  -49.3451 C.3       3 UNK        -0.1800 
     59 N          -0.5940  -10.0870  -48.6984 N.am      3 UNK        -0.5000 
     60 C          -1.2322  -10.9987  -47.9501 C.2       2 UNK         0.5000 
     61 O          -0.8697  -11.3085  -46.8129 O.2       2 UNK        -0.5000 
     62 CA         -2.4455  -11.6929  -48.6058 C.3       2 UNK         0.1400 
     63 CB         -2.0590  -12.3401  -49.9489 C.3       2 UNK        -0.1800 
     64 N          -2.9928  -12.7360  -47.7415 N.am      2 UNK        -0.5000 
     65 C          -3.8161  -12.5412  -46.7016 C.2       1 UNK         0.5000 
     66 O          -4.3106  -11.4489  -46.4163 O.2       1 UNK        -0.5000 
     67 C          -2.5145  -24.6191  -44.3364 C.2       11 UNK         0.5000 
     68 O          -3.6332  -25.0380  -44.6355 O.2       11 UNK        -0.5000 
     69 N          -1.6002  -25.3627  -43.6980 N.am      12 UNK        -0.5000 
     70 CA         -1.7545  -26.7850  -43.3876 C.3       12 UNK         0.1400 
     71 CB         -0.5951  -27.2248  -42.4811 C.3       12 UNK        -0.1800 
     72 C          -1.8287  -27.6834  -44.6416 C.2       12 UNK         0.5000 
     73 O          -2.4620  -28.7385  -44.5899 O.2       12 UNK        -0.5000 
     74 N          -1.2102  -27.2518  -45.7505 N.am      13 UNK        -0.5000 
     75 CA         -1.2130  -27.9430  -47.0378 C.3       13 UNK         0.1400 
     76 CB          0.1243  -27.6790  -47.7542 C.3       13 UNK        -0.1800 
     77 C          -2.4295  -27.5025  -47.8716 C.2       13 UNK         0.5000 
     78 O          -2.2717  -26.8236  -48.8877 O.2       13 UNK        -0.5000 
     79 N          -3.6292  -27.8752  -47.4024 N.am      14 UNK        -0.5000 
     80 CA         -4.9357  -27.6458  -48.0336 C.3       14 UNK         0.1400 
     81 CB         -5.0794  -28.5300  -49.2901 C.3       14 UNK        -0.1800 
     82 C          -5.2113  -26.1553  -48.3219 C.2       14 UNK         0.5000 
     83 O          -5.5306  -25.7896  -49.4557 O.2       14 UNK        -0.5000 
     84 N          -5.0321  -25.3158  -47.2911 N.am      15 UNK        -0.5000 
     85 CA         -5.1528  -23.8544  -47.3295 C.3       15 UNK         0.1400 
     86 CB         -6.6119  -23.4252  -47.5937 C.3       15 UNK        -0.1800 
     87 C          -4.1462  -23.2096  -48.3038 C.2       15 UNK         0.5000 
     88 O          -4.5101  -22.2934  -49.0374 O.2       15 UNK        -0.5000 
     89 N          -2.9094  -23.7314  -48.3161 N.am      16 UNK        -0.5000 
     90 CA         -1.8045  -23.3598  -49.2064 C.3       16 UNK         0.1400 
     91 CB         -1.3450  -21.9088  -48.9409 C.3       16 UNK        -0.1800 
     92 C          -2.1523  -23.6392  -50.6829 C.2       16 UNK         0.5000 
     93 O          -1.9642  -22.7768  -51.5407 O.2       16 UNK        -0.5000 
     94 N          -2.6832  -24.8470  -50.9290 N.am      17 UNK        -0.5000 
     95 CA         -3.2196  -25.3482  -52.1974 C.3       17 UNK         0.1400 
     96 CB         -2.0833  -25.5671  -53.2179 C.3       17 UNK        -0.1800 
     97 C          -4.3634  -24.4629  -52.7368 C.2       17 UNK         0.5000 
     98 O          -4.3215  -24.0293  -53.8899 O.2       17 UNK        -0.5000 
     99 N          -5.3560  -24.2043  -51.8708 N.am      18 UNK        -0.5000 
    100 CA        -6.5085  -23.3196  -52.0807 C.3       18 UNK         0.1400 
    101 CB        -7.4698  -23.9128  -53.1315 C.3       18 UNK        -0.1800 
    102 C         -6.0832  -21.8683  -52.3933 C.2       18 UNK         0.5000 
    103 O         -6.5426  -21.2739  -53.3717 O.2       18 UNK        -0.5000 
    104 N         -5.1878  -21.3418  -51.5491 N.am      19 UNK        -0.5000 
    105 CA        -4.5169  -20.0422  -51.5753 C.3       19 UNK         0.1400 
    106 CB        -5.5179  -18.8799  -51.4315 C.3       19 UNK        -0.1800 
    107 C         -3.5803  -19.8351  -52.7775 C.2       19 UNK         0.5000 
    108 O         -2.4081  -19.5212  -52.5756 O.2       19 UNK        -0.5000 
    109 N         -4.1159  -19.9498  -54.0017 N.am      20 UNK        -0.5000 
    110 CA        -3.4449  -19.7113  -55.2885 C.3       20 UNK         0.1400 
    111 CB        -2.4448  -20.8483  -55.5812 C.3       20 UNK        -0.1800 
    112 C         -2.7984  -18.3079  -55.3798 C.2       20 UNK         0.5000 
    113 O         -1.7101  -18.1558  -55.9397 O.2       20 UNK        -0.5000 
    114 N         -3.4579  -17.3189  -54.7526 N.am      21 UNK        -0.5000 
    115 CA        -3.0115  -15.9348  -54.5356 C.3       21 UNK         0.1400 
    116 CB        -2.9773  -15.1666  -55.8730 C.3       21 UNK        -0.1800 
    117 C         -1.6811  -15.8134  -53.7525 C.2       21 UNK         0.5000 
    118 O         -1.0184  -14.7784  -53.8382 O.2       21 UNK        -0.5000 
    119 N         -1.3088  -16.8742  -53.0212 N.am      22 UNK        -0.5000 
    120 CA        -0.0179  -17.0694  -52.3426 C.3       22 UNK         0.1400 
    121 C          1.1933  -17.1951  -53.3199 C.2       22 UNK         0.5000 
    122 N          0.9874  -17.5161  -54.5935 N.am      22 UNK        -0.7600 
    123 O          2.3423  -17.0322  -52.9185 O.2       22 UNK        -0.5000 
    124 C124        0.2334  -16.0592  -51.1838 C.3       23 UNK        -0.0398 
    125 S125       -1.0199  -15.9815  -49.8470 S.3       23 UNK        -0.2404 
    126 C126       -1.7464  -17.6510  -49.7934 C.3       23 UNK        -0.0205 
    127 H127       -1.0345  -16.1683  -46.8208 H         1 UNK         0.0600 
    128 H128       -1.2064  -16.8436  -45.1944 H         1 UNK         0.0600 
    129 H129        0.0589  -15.6573  -45.5405 H         1 UNK         0.0600 
    130 H130       -3.3733  -15.5829  -46.6220 H         1 UNK         0.3000 
    131 H131       -4.0812  -13.4266  -44.7911 H         1 UNK         0.0600 
    132 H132       -5.7607  -15.1322  -45.3427 H         1 UNK         0.0800 
    133 H133       -6.2889  -13.5263  -45.7227 H         1 UNK         0.0800 
    134 H134       -6.7090  -16.9840  -48.4483 H         1 UNK         0.0800 
    135 H135       -6.7604  -16.8630  -46.7088 H         1 UNK         0.0800 
    136 H136       -4.2125  -16.5721  -49.4760 H         1 UNK         0.1150 
    137 H137       -1.3727  -19.1045  -47.5081 H         1 UNK         0.1150 
    138 H138       -5.0982  -18.1783  -45.5995 H         1 UNK         0.1150 
    139 H139       -1.7580  -19.9214  -45.3477 H         1 UNK         0.0800 
    140 H140       -2.8281  -18.9784  -44.3269 H         1 UNK         0.0800 
    141 H141       -3.4641  -22.5011  -43.1822 H         1 UNK         0.0800 
    142 H142       -2.1019  -21.4623  -43.4155 H         1 UNK         0.0800 
    143 H143       -2.4428  -23.1270  -45.8043 H         1 UNK         0.0600 
    144 H144       -0.2383  -22.2740  -44.2874 H         1 UNK         0.3000 
    145 H145        2.2138  -24.2218  -45.6188 H         1 UNK         0.0600 
    146 H146        3.0823  -22.4693  -47.1898 H         1 UNK         0.0600 
    147 H147        1.8439  -23.4743  -47.9251 H         1 UNK         0.0600 
    148 H148        1.4447  -21.8496  -47.3965 H         1 UNK         0.0600 
    149 H149        1.9394  -21.3569  -44.9779 H         1 UNK         0.3000 
    150 H150        2.5077  -21.7788  -41.5432 H         1 UNK         0.0600 
    151 H151        4.8577  -22.2902  -42.2271 H         1 UNK         0.0600 
    152 H152        4.6777  -20.5967  -41.7966 H         1 UNK         0.0600 
    153 H153        4.7673  -21.0701  -43.4928 H         1 UNK         0.0600 
    154 H154        2.8623  -19.5502  -43.3442 H         1 UNK         0.3000 
    155 H155       -0.5359  -18.7027  -43.7042 H         1 UNK         0.0600 
    156 H156       -0.1316  -17.7919  -41.4227 H         1 UNK         0.0600 
    157 H157        0.0818  -16.5537  -42.6506 H         1 UNK         0.0600 
    158 H158        1.4907  -17.2984  -41.8947 H         1 UNK         0.0600 
    159 H159        1.8032  -17.2576  -44.3760 H         1 UNK         0.3000 
    160 H160        3.0626  -19.0911  -46.9872 H         1 UNK         0.0600 
    161 H161        0.9731  -17.0027  -47.7763 H         1 UNK         0.0600 
    162 H162        1.0759  -18.6457  -48.3951 H         1 UNK         0.0600 
    163 H163        2.3520  -17.4934  -48.7551 H         1 UNK         0.0600 
    164 H164        3.0142  -16.2373  -46.5879 H         1 UNK         0.3000 
    165 H165        5.1759  -16.1198  -43.8153 H         1 UNK         0.0600 
    166 H166        6.8332  -14.9670  -45.2603 H         1 UNK         0.0600 
    167 H167        6.9134  -16.7016  -45.5213 H         1 UNK         0.0600 
    168 H168        6.1088  -15.6770  -46.7042 H         1 UNK         0.0600 
    169 H169        4.4948  -14.0972  -45.6807 H         1 UNK         0.3000 
    170 H170        1.1527  -13.5138  -44.8798 H         1 UNK         0.0600 
    171 H171        2.1470  -12.5099  -42.8148 H         1 UNK         0.0600 
    172 H172        3.4761  -11.8550  -43.7659 H         1 UNK         0.0600 
    173 H173        1.8266  -11.2897  -44.0366 H         1 UNK         0.0600 
    174 H174        2.8299  -11.7697  -46.2224 H         1 UNK         0.3000 
    175 H175        3.7881  -12.1810  -48.5007 H         1 UNK         0.0600 
    176 H176        1.7618  -13.8567  -50.0677 H         1 UNK         0.0600 
    177 H177        3.0424  -12.8656  -50.7641 H         1 UNK         0.0600 
    178 H178        3.4489  -14.2846  -49.8106 H         1 UNK         0.0600 
    179 H179        1.0503  -11.6577  -49.3876 H         1 UNK         0.3000 
    180 H180        0.4433   -8.8932  -47.3460 H         1 UNK         0.0600 
    181 H181        1.1401   -8.7460  -50.3295 H         1 UNK         0.0600 
    182 H182        1.8575   -7.7548  -49.0652 H         1 UNK         0.0600 
    183 H183        0.1494   -7.5903  -49.4371 H         1 UNK         0.0600 
    184 H184       -0.9509   -9.8722  -49.6183 H         1 UNK         0.3000 
    185 H185       -3.2148  -10.9395  -48.7862 H         1 UNK         0.0600 
    186 H186       -1.8025  -11.5887  -50.6960 H         1 UNK         0.0600 
    187 H187       -1.1998  -13.0031  -49.8424 H         1 UNK         0.0600 
    188 H188       -2.8823  -12.9263  -50.3584 H         1 UNK         0.0600 
    189 H189       -2.6102  -13.6613  -47.8654 H         1 UNK         0.3000 
    190 H190       -0.7030  -24.9478  -43.4923 H         1 UNK         0.3000 
    191 H191       -2.6886  -26.9114  -42.8363 H         1 UNK         0.0600 
    192 H192       -0.5795  -26.6514  -41.5540 H         1 UNK         0.0600 
    193 H193       -0.6886  -28.2771  -42.2095 H         1 UNK         0.0600 
    194 H194        0.3705  -27.0965  -42.9722 H         1 UNK         0.0600 
    195 H195       -0.7757  -26.3344  -45.7511 H         1 UNK         0.3000 
    196 H196       -1.2918  -29.0207  -46.8798 H         1 UNK         0.0600 
    197 H197        0.1720  -28.2228  -48.6984 H         1 UNK         0.0600 
    198 H198        0.9679  -28.0072  -47.1471 H         1 UNK         0.0600 
    199 H199        0.2665  -26.6222  -47.9804 H         1 UNK         0.0600 
    200 H200       -3.6455  -28.3875  -46.5288 H         1 UNK         0.3000 
    201 H201       -5.6919  -27.9654  -47.3153 H         1 UNK         0.0600 
    202 H202       -4.9225  -29.5819  -49.0518 H         1 UNK         0.0600 
    203 H203       -4.3647  -28.2522  -50.0657 H         1 UNK         0.0600 
    204 H204       -6.0782  -28.4408  -49.7190 H         1 UNK         0.0600 
    205 H205       -4.7251  -25.6930  -46.4015 H         1 UNK         0.3000 
    206 H206       -4.8915  -23.4940  -46.3360 H         1 UNK         0.0600 
    207 H207       -7.2935  -23.8884  -46.8806 H         1 UNK         0.0600 
    208 H208       -6.7227  -22.3449  -47.4920 H         1 UNK         0.0600 
    209 H209       -6.9424  -23.6932  -48.5972 H         1 UNK         0.0600 
    210 H210       -2.7245  -24.5279  -47.7233 H         1 UNK         0.3000 
    211 H211       -0.9721  -24.0200  -48.9600 H         1 UNK         0.0600 
    212 H212       -2.0993  -21.1803  -49.2392 H         1 UNK         0.0600 
    213 H213       -0.4359  -21.6807  -49.4979 H         1 UNK         0.0600 
    214 H214       -1.1281  -21.7494  -47.8845 H         1 UNK         0.0600 
    215 H215       -2.7471  -25.4965  -50.1481 H         1 UNK         0.3000 
    216 H216       -3.6600  -26.3222  -51.9792 H         1 UNK         0.0600 
    217 H217       -2.4610  -26.0382  -54.1260 H         1 UNK         0.0600 
    218 H218       -1.3100  -26.2190  -52.8114 H         1 UNK         0.0600 
    219 H219       -1.6118  -24.6279  -53.5089 H         1 UNK         0.0600 
    220 H220       -5.3090  -24.6457  -50.9545 H         1 UNK         0.3000 
    221 H221       -7.0428  -23.2842  -51.1304 H         1 UNK         0.0600 
    222 H222       -7.0178  -23.9490  -54.1230 H         1 UNK         0.0600 
    223 H223       -7.7701  -24.9255  -52.8624 H         1 UNK         0.0600 
    224 H224       -8.3784  -23.3146  -53.2089 H         1 UNK         0.0600 
    225 H225       -4.8989  -21.9152  -50.7577 H         1 UNK         0.3000 
    226 H226       -3.8832  -20.0304  -50.6869 H         1 UNK         0.0600 
    227 H227       -6.0752  -18.9588  -50.4979 H         1 UNK         0.0600 
    228 H228       -5.0000  -17.9204  -51.4189 H         1 UNK         0.0600 
    229 H229       -6.2369  -18.8498  -52.2501 H         1 UNK         0.0600 
    230 H230       -5.0848  -20.2564  -54.0465 H         1 UNK         0.3000 
    231 H231       -4.2208  -19.7432  -56.0544 H         1 UNK         0.0600 
    232 H232       -1.6115  -20.8436  -54.8776 H         1 UNK         0.0600 
    233 H233       -2.0284  -20.7574  -56.5849 H         1 UNK         0.0600 
    234 H234       -2.9285  -21.8234  -55.5169 H         1 UNK         0.0600 
    235 H235       -4.3353  -17.5616  -54.3148 H         1 UNK         0.3000 
    236 H236       -3.7699  -15.4673  -53.9062 H         1 UNK         0.0600 
    237 H237       -3.9258  -15.2544  -56.4028 H         1 UNK         0.0600 
    238 H238       -2.7962  -14.1033  -55.7113 H         1 UNK         0.0600 
    239 H239       -2.1899  -15.5355  -56.5309 H         1 UNK         0.0600 
    240 H240       -1.8987  -17.7001  -53.0277 H         1 UNK         0.3000 
    241 H241       -0.0742  -18.0628  -51.8998 H         1 UNK         0.0600 
    242 H242        1.7767  -17.6051  -55.2132 H         1 UNK         0.3800 
    243 H243        0.0513  -17.6746  -54.9505 H         1 UNK         0.3800 
    244 H244        1.1814  -16.2879  -50.6949 H         1 UNK         0.0800 
    245 H245        0.3487  -15.0535  -51.5883 H         1 UNK         0.0800 
    246 H246       -2.3145  -17.8211  -50.7044 H         1 UNK         0.0800 
    247 H247       -0.9579  -18.4033  -49.7587 H         1 UNK         0.0800 
@<TRIPOS>BOND
     1    1    2 1    
     2    1  127 1    
     3    1  128 1    
     4    1  129 1    
     5    2    3 2    
     6    2    4 am   BACKBONE|DICT|INTERRES
     7    4    5 1    
     8    4  130 1    
     9    5    6 1    
    10    5   65 1    
    11    5  131 1    
    12    6    7 1    
    13    6  132 1    
    14    6  133 1    
    15    7    8 1    
    16    8    9 1    
    17    8  134 1    
    18    8  135 1    
    19    9   10 ar   
    20    9   14 ar   
    21   10   11 ar   
    22   10  136 1    
    23   11   12 ar   
    24   11  126 1    
    25   12   13 ar   
    26   12  137 1    
    27   13   14 ar   
    28   13   15 1    
    29   14  138 1    
    30   15   16 1    
    31   15  139 1    
    32   15  140 1    
    33   16   17 1    
    34   17   18 1    
    35   17  141 1    
    36   17  142 1    
    37   18   19 1    
    38   18   67 1    
    39   18  143 1    
    40   19   20 am   BACKBONE|DICT|INTERRES
    41   19  144 1    
    42   20   21 2    
    43   20   22 1    
    44   22   23 1    
    45   22   24 1    
    46   22  145 1    
    47   23  146 1    
    48   23  147 1    
    49   23  148 1    
    50   24   25 am   BACKBONE|DICT|INTERRES
    51   24  149 1    
    52   25   26 2    
    53   25   27 1    
    54   27   28 1    
    55   27   29 1    
    56   27  150 1    
    57   28  151 1    
    58   28  152 1    
    59   28  153 1    
    60   29   30 am   BACKBONE|DICT|INTERRES
    61   29  154 1    
    62   30   31 2    
    63   30   32 1    
    64   32   33 1    
    65   32   34 1    
    66   32  155 1    
    67   33  156 1    
    68   33  157 1    
    69   33  158 1    
    70   34   35 am   BACKBONE|DICT|INTERRES
    71   34  159 1    
    72   35   36 2    
    73   35   37 1    
    74   37   38 1    
    75   37   39 1    
    76   37  160 1    
    77   38  161 1    
    78   38  162 1    
    79   38  163 1    
    80   39   40 am   BACKBONE|DICT|INTERRES
    81   39  164 1    
    82   40   41 2    
    83   40   42 1    
    84   42   43 1    
    85   42   44 1    
    86   42  165 1    
    87   43  166 1    
    88   43  167 1    
    89   43  168 1    
    90   44   45 am   BACKBONE|DICT|INTERRES
    91   44  169 1    
    92   45   46 2    
    93   45   47 1    
    94   47   48 1    
    95   47   49 1    
    96   47  170 1    
    97   48  171 1    
    98   48  172 1    
    99   48  173 1    
   100   49   50 am   BACKBONE|DICT|INTERRES
   101   49  174 1    
   102   50   51 2    
   103   50   52 1    
   104   52   53 1    
   105   52   54 1    
   106   52  175 1    
   107   53  176 1    
   108   53  177 1    
   109   53  178 1    
   110   54   55 am   BACKBONE|DICT|INTERRES
   111   54  179 1    
   112   55   56 2    
   113   55   57 1    
   114   57   58 1    
   115   57   59 1    
   116   57  180 1    
   117   58  181 1    
   118   58  182 1    
   119   58  183 1    
   120   59   60 am   BACKBONE|DICT|INTERRES
   121   59  184 1    
   122   60   61 2    
   123   60   62 1    
   124   62   63 1    
   125   62   64 1    
   126   62  185 1    
   127   63  186 1    
   128   63  187 1    
   129   63  188 1    
   130   64   65 am   BACKBONE|DICT|INTERRES
   131   64  189 1    
   132   65   66 2    
   133   67   68 2    
   134   67   69 am   BACKBONE|DICT|INTERRES
   135   69   70 1    
   136   69  190 1    
   137   70   71 1    
   138   70   72 1    
   139   70  191 1    
   140   71  192 1    
   141   71  193 1    
   142   71  194 1    
   143   72   73 2    
   144   72   74 am   BACKBONE|DICT|INTERRES
   145   74   75 1    
   146   74  195 1    
   147   75   76 1    
   148   75   77 1    
   149   75  196 1    
   150   76  197 1    
   151   76  198 1    
   152   76  199 1    
   153   77   78 2    
   154   77   79 am   BACKBONE|DICT|INTERRES
   155   79   80 1    
   156   79  200 1    
   157   80   81 1    
   158   80   82 1    
   159   80  201 1    
   160   81  202 1    
   161   81  203 1    
   162   81  204 1    
   163   82   83 2    
   164   82   84 am   BACKBONE|DICT|INTERRES
   165   84   85 1    
   166   84  205 1    
   167   85   86 1    
   168   85   87 1    
   169   85  206 1    
   170   86  207 1    
   171   86  208 1    
   172   86  209 1    
   173   87   88 2    
   174   87   89 am   BACKBONE|DICT|INTERRES
   175   89   90 1    
   176   89  210 1    
   177   90   91 1    
   178   90   92 1    
   179   90  211 1    
   180   91  212 1    
   181   91  213 1    
   182   91  214 1    
   183   92   93 2    
   184   92   94 am   BACKBONE|DICT|INTERRES
   185   94   95 1    
   186   94  215 1    
   187   95   96 1    
   188   95   97 1    
   189   95  216 1    
   190   96  217 1    
   191   96  218 1    
   192   96  219 1    
   193   97   98 2    
   194   97   99 am   BACKBONE|DICT|INTERRES
   195   99  100 1    
   196   99  220 1    
   197  100  101 1    
   198  100  102 1    
   199  100  221 1    
   200  101  222 1    
   201  101  223 1    
   202  101  224 1    
   203  102  103 2    
   204  102  104 am   BACKBONE|DICT|INTERRES
   205  104  105 1    
   206  104  225 1    
   207  105  106 1    
   208  105  107 1    
   209  105  226 1    
   210  106  227 1    
   211  106  228 1    
   212  106  229 1    
   213  107  108 2    
   214  107  109 am   BACKBONE|DICT|INTERRES
   215  109  110 1    
   216  109  230 1    
   217  110  111 1    
   218  110  112 1    
   219  110  231 1    
   220  111  232 1    
   221  111  233 1    
   222  111  234 1    
   223  112  113 2    
   224  112  114 am   BACKBONE|DICT|INTERRES
   225  114  115 1    
   226  114  235 1    
   227  115  116 1    
   228  115  117 1    
   229  115  236 1    
   230  116  237 1    
   231  116  238 1    
   232  116  239 1    
   233  117  118 2    
   234  117  119 am   BACKBONE|DICT|INTERRES
   235  119  120 1    
   236  119  240 1    
   237  120  121 1    
   238  120  124 1    
   239  120  241 1    
   240  121  122 am   BACKBONE|DICT|INTERRES
   241  121  123 2    
   242  122  242 1    
   243  122  243 1    
   244  124  125 1    
   245  124  244 1    
   246  124  245 1    
   247  125  126 1    
   248  126  246 1    
   249  126  247 1    
@<TRIPOS>SUBSTRUCTURE
     1 UNK         1 GROUP             0       ****    0 ROOT    
