@<TRIPOS>MOLECULE
3R540
247   249    1
SMALL
USER_CHARGES


@<TRIPOS>ATOM
      1 CA          0.6879  -11.9252  -53.7621 C.3       0 UNK        -0.1800 
      2 C           0.6808  -12.4326  -52.3267 C.2       0 UNK         0.5000 
      3 O           1.7137  -12.8855  -51.8329 O.2       0 UNK        -0.5000 
      4 N          -0.4797  -12.3641  -51.6640 N.am      1 UNK        -0.5000 
      5 CA         -0.6760  -12.7850  -50.2742 C.3       1 UNK         0.1400 
      6 C6         -2.1762  -13.0442  -49.9772 C.3       23 UNK        -0.0398 
      7 S7         -2.4127  -14.3521  -48.7263 S.3       23 UNK        -0.2404 
      8 C8         -2.8096  -15.7926  -49.7672 C.3       23 UNK        -0.0205 
      9 C9         -1.6246  -16.2404  -50.6118 C.ar      23 UNK        -0.0193 
     10 C10        -1.5245  -15.8593  -51.9528 C.ar      23 UNK        -0.1150 
     11 C11        -0.4552  -16.2997  -52.7439 C.ar      23 UNK        -0.0193 
     12 C12         0.5213  -17.1170  -52.1645 C.ar      23 UNK        -0.1150 
     13 C13         0.4403  -17.5017  -50.8234 C.ar      23 UNK        -0.0193 
     14 C14        -0.6362  -17.0545  -50.0552 C.ar      23 UNK        -0.1150 
     15 C15         1.5317  -18.3704  -50.2067 C.3       23 UNK        -0.0205 
     16 S16         0.9232  -20.0031  -49.6609 S.3       23 UNK        -0.2404 
     17 C17         0.8335  -19.7597  -47.8546 C.3       23 UNK        -0.0398 
     18 CA          0.5848  -21.0676  -47.0640 C.3       11 UNK         0.1400 
     19 N           1.1074  -20.9954  -45.6973 N.am      11 UNK        -0.5000 
     20 C           2.0425  -21.8171  -45.2061 C.2       10 UNK         0.5000 
     21 O           2.6939  -22.6056  -45.8928 O.2       10 UNK        -0.5000 
     22 CA          2.2824  -21.7864  -43.6839 C.3       10 UNK         0.1400 
     23 CB          3.4709  -20.8754  -43.3466 C.3       10 UNK        -0.1800 
     24 N           1.1282  -21.4012  -42.8636 N.am      10 UNK        -0.5000 
     25 C          -0.0729  -22.0037  -42.8657 C.2       9 UNK         0.5000 
     26 O          -0.3990  -22.8662  -43.6819 O.2       9 UNK        -0.5000 
     27 CA         -1.0797  -21.5722  -41.7758 C.3       9 UNK         0.1400 
     28 CB         -2.1762  -22.6256  -41.5194 C.3       9 UNK        -0.1800 
     29 N          -0.4471  -21.1711  -40.5168 N.am      9 UNK        -0.5000 
     30 C           0.4048  -21.8755  -39.7540 C.2       8 UNK         0.5000 
     31 O           0.6822  -23.0591  -39.9538 O.2       8 UNK        -0.5000 
     32 CA          1.0781  -21.1165  -38.5837 C.3       8 UNK         0.1400 
     33 CB          2.5177  -21.6064  -38.3217 C.3       8 UNK        -0.1800 
     34 N           1.0535  -19.6521  -38.7293 N.am      8 UNK        -0.5000 
     35 C           1.5717  -18.9302  -39.7349 C.2       7 UNK         0.5000 
     36 O           2.2015  -19.4115  -40.6777 O.2       7 UNK        -0.5000 
     37 CA          1.2316  -17.4279  -39.7375 C.3       7 UNK         0.1400 
     38 CB          2.4956  -16.5718  -39.9115 C.3       7 UNK        -0.1800 
     39 N           0.2818  -17.1026  -40.8039 N.am      7 UNK        -0.5000 
     40 C          -0.9328  -17.6484  -40.9677 C.2       6 UNK         0.5000 
     41 O          -1.4290  -18.4614  -40.1874 O.2       6 UNK        -0.5000 
     42 CA         -1.7269  -17.2408  -42.2174 C.3       6 UNK         0.1400 
     43 CB         -2.6717  -16.0735  -41.8961 C.3       6 UNK        -0.1800 
     44 N          -0.8550  -16.8529  -43.3210 N.am      6 UNK        -0.5000 
     45 C          -0.3346  -17.6905  -44.2268 C.2       5 UNK         0.5000 
     46 O          -0.5128  -18.9114  -44.2452 O.2       5 UNK        -0.5000 
     47 CA          0.5081  -17.0334  -45.3298 C.3       5 UNK         0.1400 
     48 CB         -0.4281  -16.5020  -46.4236 C.3       5 UNK        -0.1800 
     49 N           1.3399  -15.9385  -44.8327 N.am      5 UNK        -0.5000 
     50 C           2.3974  -16.0996  -44.0222 C.2       4 UNK         0.5000 
     51 O           2.8276  -17.2009  -43.6852 O.2       4 UNK        -0.5000 
     52 CA          3.0889  -14.8309  -43.4780 C.3       4 UNK         0.1400 
     53 CB          4.3720  -14.5408  -44.2713 C.3       4 UNK        -0.1800 
     54 N           2.2483  -13.6333  -43.4928 N.am      4 UNK        -0.5000 
     55 C           1.0810  -13.4810  -42.8517 C.2       3 UNK         0.5000 
     56 O           0.5964  -14.3315  -42.1036 O.2       3 UNK        -0.5000 
     57 CA          0.2913  -12.1909  -43.1605 C.3       3 UNK         0.1400 
     58 CB          0.5621  -11.1285  -42.0852 C.3       3 UNK        -0.1800 
     59 N           0.5628  -11.6154  -44.4879 N.am      3 UNK        -0.5000 
     60 C           0.3924  -12.2560  -45.6532 C.2       2 UNK         0.5000 
     61 O           0.0161  -13.4276  -45.7323 O.2       2 UNK        -0.5000 
     62 CA          0.7461  -11.4883  -46.9353 C.3       2 UNK         0.1400 
     63 CB          2.2693  -11.3090  -47.0717 C.3       2 UNK        -0.1800 
     64 N           0.2358  -12.2497  -48.0701 N.am      2 UNK        -0.5000 
     65 C          -0.0668  -11.7710  -49.2791 C.2       1 UNK         0.5000 
     66 O           0.0829  -10.5896  -49.6039 O.2       1 UNK        -0.5000 
     67 C          -0.9078  -21.4420  -47.0213 C.2       11 UNK         0.5000 
     68 O          -1.3412  -22.2677  -47.8230 O.2       11 UNK        -0.5000 
     69 N          -1.6651  -20.8663  -46.0708 N.am      12 UNK        -0.5000 
     70 CA         -3.1194  -21.0071  -45.9384 C.3       12 UNK         0.1400 
     71 CB         -3.6048  -20.1621  -44.7522 C.3       12 UNK        -0.1800 
     72 C          -3.6422  -22.4534  -45.8222 C.2       12 UNK         0.5000 
     73 O          -4.7729  -22.7116  -46.2363 O.2       12 UNK        -0.5000 
     74 N          -2.8161  -23.3782  -45.3117 N.am      13 UNK        -0.5000 
     75 CA         -3.1173  -24.8101  -45.2384 C.3       13 UNK         0.1400 
     76 CB         -2.0111  -25.5254  -44.4492 C.3       13 UNK        -0.1800 
     77 C          -3.3160  -25.4849  -46.6119 C.2       13 UNK         0.5000 
     78 O          -4.0169  -26.4955  -46.6847 O.2       13 UNK        -0.5000 
     79 N          -2.7390  -24.9171  -47.6821 N.am      14 UNK        -0.5000 
     80 CA         -2.8736  -25.3913  -49.0612 C.3       14 UNK         0.1400 
     81 CB         -1.6477  -24.9323  -49.8721 C.3       14 UNK        -0.1800 
     82 C          -4.2092  -24.9420  -49.6918 C.2       14 UNK         0.5000 
     83 O          -4.2068  -24.2651  -50.7201 O.2       14 UNK        -0.5000 
     84 N          -5.3260  -25.3176  -49.0514 N.am      15 UNK        -0.5000 
     85 CA         -6.7152  -25.0540  -49.4466 C.3       15 UNK         0.1400 
     86 CB         -7.0661  -25.8470  -50.7233 C.3       15 UNK        -0.1800 
     87 C          -7.0164  -23.5465  -49.5784 C.2       15 UNK         0.5000 
     88 O          -7.4338  -23.0885  -50.6431 O.2       15 UNK        -0.5000 
     89 N          -6.7513  -22.7977  -48.4960 N.am      16 UNK        -0.5000 
     90 CA         -6.7994  -21.3305  -48.4149 C.3       16 UNK         0.1400 
     91 CB         -8.2292  -20.7937  -48.6390 C.3       16 UNK        -0.1800 
     92 C          -5.7460  -20.6781  -49.3346 C.2       16 UNK         0.5000 
     93 O          -6.0177  -19.6644  -49.9776 O.2       16 UNK        -0.5000 
     94 N          -4.5720  -21.3215  -49.3983 N.am      17 UNK        -0.5000 
     95 CA         -3.3892  -21.0368  -50.2183 C.3       17 UNK         0.1400 
     96 CB         -2.8541  -19.6163  -49.9726 C.3       17 UNK        -0.1800 
     97 C          -3.5382  -21.3246  -51.7228 C.2       17 UNK         0.5000 
     98 O          -2.5171  -21.4991  -52.3862 O.2       17 UNK        -0.5000 
     99 N          -4.7743  -21.4167  -52.2306 N.am      18 UNK        -0.5000 
    100 CA        -5.1200  -21.5485  -53.6468 C.3       18 UNK         0.1400 
    101 CB        -6.6494  -21.5762  -53.7827 C.3       18 UNK        -0.1800 
    102 C         -4.4956  -22.7543  -54.3761 C.2       18 UNK         0.5000 
    103 O         -4.2922  -22.6735  -55.5888 O.2       18 UNK        -0.5000 
    104 N         -4.1941  -23.8410  -53.6497 N.am      19 UNK        -0.5000 
    105 CA        -3.5170  -25.0155  -54.2027 C.3       19 UNK         0.1400 
    106 CB        -3.8226  -26.2487  -53.3384 C.3       19 UNK        -0.1800 
    107 C         -1.9959  -24.8148  -54.3537 C.2       19 UNK         0.5000 
    108 O         -1.3774  -25.5416  -55.1327 O.2       19 UNK        -0.5000 
    109 N         -1.4159  -23.8509  -53.6237 N.am      20 UNK        -0.5000 
    110 CA        -0.0059  -23.4816  -53.7230 C.3       20 UNK         0.1400 
    111 CB         0.5143  -22.9975  -52.3583 C.3       20 UNK        -0.1800 
    112 C          0.2017  -22.4165  -54.8110 C.2       20 UNK         0.5000 
    113 O          1.0266  -22.6204  -55.7029 O.2       20 UNK        -0.5000 
    114 N         -0.5537  -21.3135  -54.7328 N.am      21 UNK        -0.5000 
    115 CA        -0.4906  -20.1706  -55.6443 C.3       21 UNK         0.1400 
    116 CB         0.8396  -19.4119  -55.4598 C.3       21 UNK        -0.1800 
    117 C         -1.6952  -19.2479  -55.3938 C.2       21 UNK         0.5000 
    118 O         -2.4026  -19.4248  -54.4039 O.2       21 UNK        -0.5000 
    119 N         -1.9166  -18.2778  -56.2919 N.am      22 UNK        -0.5000 
    120 CA        -3.0382  -17.3136  -56.2505 C.3       22 UNK         0.1400 
    121 C         -4.4491  -17.9439  -56.4934 C.2       22 UNK         0.5000 
    122 N         -4.5592  -19.1884  -56.9430 N.am      22 UNK        -0.7600 
    123 O         -5.4681  -17.2815  -56.3163 O.2       22 UNK        -0.5000 
    124 C124       -3.0086  -16.3899  -54.9925 C.3       23 UNK        -0.0398 
    125 S125       -1.7019  -15.1132  -55.0438 S.3       23 UNK        -0.2404 
    126 C126       -0.2843  -15.9149  -54.2153 C.3       23 UNK        -0.0205 
    127 H127        1.0341  -12.7089  -54.4358 H         1 UNK         0.0600 
    128 H128       -0.3056  -11.6154  -54.0876 H         1 UNK         0.0600 
    129 H129        1.3595  -11.0718  -53.8555 H         1 UNK         0.0600 
    130 H130       -1.2789  -11.9416  -52.1132 H         1 UNK         0.3000 
    131 H131       -0.1321  -13.7256  -50.1569 H         1 UNK         0.0600 
    132 H132       -2.6836  -12.1367  -49.6442 H         1 UNK         0.0800 
    133 H133       -2.7019  -13.3463  -50.8835 H         1 UNK         0.0800 
    134 H134       -3.6692  -15.5648  -50.3994 H         1 UNK         0.0800 
    135 H135       -3.1222  -16.6126  -49.1192 H         1 UNK         0.0800 
    136 H136       -2.2868  -15.2207  -52.3722 H         1 UNK         0.1150 
    137 H137        1.3584  -17.4486  -52.7620 H         1 UNK         0.1150 
    138 H138       -0.7173  -17.3577  -49.0259 H         1 UNK         0.1150 
    139 H139        2.3327  -18.5367  -50.9284 H         1 UNK         0.0800 
    140 H140        1.9880  -17.8323  -49.3750 H         1 UNK         0.0800 
    141 H141        1.7871  -19.3294  -47.5456 H         1 UNK         0.0800 
    142 H142        0.0741  -19.0141  -47.6333 H         1 UNK         0.0800 
    143 H143        1.0838  -21.8779  -47.5999 H         1 UNK         0.0600 
    144 H144        0.6208  -20.3890  -45.0466 H         1 UNK         0.3000 
    145 H145        2.5480  -22.8035  -43.3894 H         1 UNK         0.0600 
    146 H146        3.7582  -20.9742  -42.2998 H         1 UNK         0.0600 
    147 H147        4.3461  -21.1275  -43.9468 H         1 UNK         0.0600 
    148 H148        3.2343  -19.8277  -43.5318 H         1 UNK         0.0600 
    149 H149        1.3106  -20.6948  -42.1591 H         1 UNK         0.3000 
    150 H150       -1.5646  -20.6747  -42.1589 H         1 UNK         0.0600 
    151 H151       -2.7548  -22.8198  -42.4229 H         1 UNK         0.0600 
    152 H152       -2.8765  -22.2872  -40.7559 H         1 UNK         0.0600 
    153 H153       -1.7531  -23.5752  -41.1903 H         1 UNK         0.0600 
    154 H154       -0.6342  -20.2112  -40.2402 H         1 UNK         0.3000 
    155 H155        0.4845  -21.3447  -37.6975 H         1 UNK         0.0600 
    156 H156        2.9746  -21.0642  -37.4939 H         1 UNK         0.0600 
    157 H157        3.1540  -21.4794  -39.1982 H         1 UNK         0.0600 
    158 H158        2.5311  -22.6649  -38.0598 H         1 UNK         0.0600 
    159 H159        0.5042  -19.1648  -38.0345 H         1 UNK         0.3000 
    160 H160        0.7686  -17.1620  -38.7852 H         1 UNK         0.0600 
    161 H161        3.0112  -16.8036  -40.8438 H         1 UNK         0.0600 
    162 H162        3.1991  -16.7474  -39.0969 H         1 UNK         0.0600 
    163 H163        2.2572  -15.5078  -39.9142 H         1 UNK         0.0600 
    164 H164        0.5832  -16.4073  -41.4748 H         1 UNK         0.3000 
    165 H165       -2.3333  -18.0965  -42.5222 H         1 UNK         0.0600 
    166 H166       -2.1221  -15.1831  -41.5873 H         1 UNK         0.0600 
    167 H167       -3.2791  -15.8092  -42.7619 H         1 UNK         0.0600 
    168 H168       -3.3552  -16.3353  -41.0873 H         1 UNK         0.0600 
    169 H169       -0.6126  -15.8729  -43.3773 H         1 UNK         0.3000 
    170 H170        1.1628  -17.7940  -45.7568 H         1 UNK         0.0600 
    171 H171       -1.0880  -17.2846  -46.7967 H         1 UNK         0.0600 
    172 H172       -1.0794  -15.7131  -46.0477 H         1 UNK         0.0600 
    173 H173        0.1349  -16.0974  -47.2645 H         1 UNK         0.0600 
    174 H174        1.0368  -15.0000  -45.0749 H         1 UNK         0.3000 
    175 H175        3.3642  -15.0268  -42.4406 H         1 UNK         0.0600 
    176 H176        4.1550  -14.3078  -45.3147 H         1 UNK         0.0600 
    177 H177        4.9189  -13.6996  -43.8450 H         1 UNK         0.0600 
    178 H178        5.0424  -15.4013  -44.2595 H         1 UNK         0.0600 
    179 H179        2.5549  -12.8801  -44.0899 H         1 UNK         0.3000 
    180 H180       -0.7691  -12.4492  -43.1264 H         1 UNK         0.0600 
    181 H181        0.3471  -11.5172  -41.0887 H         1 UNK         0.0600 
    182 H182        1.6035  -10.8042  -42.0935 H         1 UNK         0.0600 
    183 H183       -0.0658  -10.2494  -42.2311 H         1 UNK         0.0600 
    184 H184        0.8867  -10.6588  -44.5007 H         1 UNK         0.3000 
    185 H185        0.2558  -10.5134  -46.8990 H         1 UNK         0.0600 
    186 H186        2.6770  -10.7350  -46.2390 H         1 UNK         0.0600 
    187 H187        2.7854  -12.2698  -47.0945 H         1 UNK         0.0600 
    188 H188        2.5242  -10.7727  -47.9859 H         1 UNK         0.0600 
    189 H189        0.0049  -13.2089  -47.8361 H         1 UNK         0.3000 
    190 H190       -1.2350  -20.2135  -45.4237 H         1 UNK         0.3000 
    191 H191       -3.5576  -20.5861  -46.8442 H         1 UNK         0.0600 
    192 H192       -4.6913  -20.2002  -44.6633 H         1 UNK         0.0600 
    193 H193       -3.3270  -19.1146  -44.8715 H         1 UNK         0.0600 
    194 H194       -3.1875  -20.5163  -43.8108 H         1 UNK         0.0600 
    195 H195       -1.9039  -23.0923  -44.9678 H         1 UNK         0.3000 
    196 H196       -4.0528  -24.9221  -44.6866 H         1 UNK         0.0600 
    197 H197       -2.2050  -26.5967  -44.3814 H         1 UNK         0.0600 
    198 H198       -1.9450  -25.1451  -43.4299 H         1 UNK         0.0600 
    199 H199       -1.0356  -25.3956  -44.9196 H         1 UNK         0.0600 
    200 H200       -2.2145  -24.0560  -47.5576 H         1 UNK         0.3000 
    201 H201       -2.8712  -26.4832  -49.0607 H         1 UNK         0.0600 
    202 H202       -0.7197  -25.2669  -49.4086 H         1 UNK         0.0600 
    203 H203       -1.6016  -23.8476  -49.9622 H         1 UNK         0.0600 
    204 H204       -1.6688  -25.3405  -50.8826 H         1 UNK         0.0600 
    205 H205       -5.2013  -25.8505  -48.1964 H         1 UNK         0.3000 
    206 H206       -7.3469  -25.4290  -48.6401 H         1 UNK         0.0600 
    207 H207       -6.8603  -26.9098  -50.5976 H         1 UNK         0.0600 
    208 H208       -8.1247  -25.7468  -50.9652 H         1 UNK         0.0600 
    209 H209       -6.5004  -25.4957  -51.5867 H         1 UNK         0.0600 
    210 H210       -6.3633  -23.2512  -47.6767 H         1 UNK         0.3000 
    211 H211       -6.5153  -21.0673  -47.3954 H         1 UNK         0.0600 
    212 H212       -8.5634  -20.9318  -49.6674 H         1 UNK         0.0600 
    213 H213       -8.2800  -19.7259  -48.4237 H         1 UNK         0.0600 
    214 H214       -8.9441  -21.2907  -47.9834 H         1 UNK         0.0600 
    215 H215       -4.5075  -22.1775  -48.8662 H         1 UNK         0.3000 
    216 H216       -2.6267  -21.7335  -49.8790 H         1 UNK         0.0600 
    217 H217       -3.5544  -18.8501  -50.3036 H         1 UNK         0.0600 
    218 H218       -1.9301  -19.4634  -50.5298 H         1 UNK         0.0600 
    219 H219       -2.6321  -19.4474  -48.9194 H         1 UNK         0.0600 
    220 H220       -5.5486  -21.2973  -51.5928 H         1 UNK         0.3000 
    221 H221       -4.7558  -20.6493  -54.1462 H         1 UNK         0.0600 
    222 H222       -7.0782  -22.4498  -53.2904 H         1 UNK         0.0600 
    223 H223       -7.1023  -20.6868  -53.3440 H         1 UNK         0.0600 
    224 H224       -6.9486  -21.6097  -54.8311 H         1 UNK         0.0600 
    225 H225       -4.3529  -23.8325  -52.6451 H         1 UNK         0.3000 
    226 H226       -3.9192  -25.2101  -55.1992 H         1 UNK         0.0600 
    227 H227       -4.8960  -26.3953  -53.2215 H         1 UNK         0.0600 
    228 H228       -3.4204  -27.1522  -53.7982 H         1 UNK         0.0600 
    229 H229       -3.3815  -26.1691  -52.3464 H         1 UNK         0.0600 
    230 H230       -1.9992  -23.2353  -53.0642 H         1 UNK         0.3000 
    231 H231        0.5816  -24.3602  -53.9982 H         1 UNK         0.0600 
    232 H232       -0.0265  -22.1242  -51.9942 H         1 UNK         0.0600 
    233 H233        0.4297  -23.7802  -51.6052 H         1 UNK         0.0600 
    234 H234        1.5676  -22.7220  -52.4204 H         1 UNK         0.0600 
    235 H235       -1.2445  -21.2199  -53.9895 H         1 UNK         0.3000 
    236 H236       -0.5603  -20.5401  -56.6691 H         1 UNK         0.0600 
    237 H237        1.6983  -20.0365  -55.7042 H         1 UNK         0.0600 
    238 H238        0.8946  -18.5395  -56.1111 H         1 UNK         0.0600 
    239 H239        0.9609  -19.0721  -54.4317 H         1 UNK         0.0600 
    240 H240       -1.3025  -18.1960  -57.0894 H         1 UNK         0.3000 
    241 H241       -2.8947  -16.6725  -57.1208 H         1 UNK         0.0600 
    242 H242       -5.4745  -19.5727  -57.1142 H         1 UNK         0.3800 
    243 H243       -3.7417  -19.7543  -57.1007 H         1 UNK         0.3800 
    244 H244       -2.9376  -16.9703  -54.0739 H         1 UNK         0.0800 
    245 H245       -3.9418  -15.8328  -54.9017 H         1 UNK         0.0800 
    246 H246        0.5683  -15.2388  -54.2865 H         1 UNK         0.0800 
    247 H247       -0.0154  -16.7987  -54.7890 H         1 UNK         0.0800 
@<TRIPOS>BOND
     1    1    2 1    
     2    1  127 1    
     3    1  128 1    
     4    1  129 1    
     5    2    3 2    
     6    2    4 am   BACKBONE|DICT|INTERRES
     7    4    5 1    
     8    4  130 1    
     9    5    6 1    
    10    5   65 1    
    11    5  131 1    
    12    6    7 1    
    13    6  132 1    
    14    6  133 1    
    15    7    8 1    
    16    8    9 1    
    17    8  134 1    
    18    8  135 1    
    19    9   10 ar   
    20    9   14 ar   
    21   10   11 ar   
    22   10  136 1    
    23   11   12 ar   
    24   11  126 1    
    25   12   13 ar   
    26   12  137 1    
    27   13   14 ar   
    28   13   15 1    
    29   14  138 1    
    30   15   16 1    
    31   15  139 1    
    32   15  140 1    
    33   16   17 1    
    34   17   18 1    
    35   17  141 1    
    36   17  142 1    
    37   18   19 1    
    38   18   67 1    
    39   18  143 1    
    40   19   20 am   BACKBONE|DICT|INTERRES
    41   19  144 1    
    42   20   21 2    
    43   20   22 1    
    44   22   23 1    
    45   22   24 1    
    46   22  145 1    
    47   23  146 1    
    48   23  147 1    
    49   23  148 1    
    50   24   25 am   BACKBONE|DICT|INTERRES
    51   24  149 1    
    52   25   26 2    
    53   25   27 1    
    54   27   28 1    
    55   27   29 1    
    56   27  150 1    
    57   28  151 1    
    58   28  152 1    
    59   28  153 1    
    60   29   30 am   BACKBONE|DICT|INTERRES
    61   29  154 1    
    62   30   31 2    
    63   30   32 1    
    64   32   33 1    
    65   32   34 1    
    66   32  155 1    
    67   33  156 1    
    68   33  157 1    
    69   33  158 1    
    70   34   35 am   BACKBONE|DICT|INTERRES
    71   34  159 1    
    72   35   36 2    
    73   35   37 1    
    74   37   38 1    
    75   37   39 1    
    76   37  160 1    
    77   38  161 1    
    78   38  162 1    
    79   38  163 1    
    80   39   40 am   BACKBONE|DICT|INTERRES
    81   39  164 1    
    82   40   41 2    
    83   40   42 1    
    84   42   43 1    
    85   42   44 1    
    86   42  165 1    
    87   43  166 1    
    88   43  167 1    
    89   43  168 1    
    90   44   45 am   BACKBONE|DICT|INTERRES
    91   44  169 1    
    92   45   46 2    
    93   45   47 1    
    94   47   48 1    
    95   47   49 1    
    96   47  170 1    
    97   48  171 1    
    98   48  172 1    
    99   48  173 1    
   100   49   50 am   BACKBONE|DICT|INTERRES
   101   49  174 1    
   102   50   51 2    
   103   50   52 1    
   104   52   53 1    
   105   52   54 1    
   106   52  175 1    
   107   53  176 1    
   108   53  177 1    
   109   53  178 1    
   110   54   55 am   BACKBONE|DICT|INTERRES
   111   54  179 1    
   112   55   56 2    
   113   55   57 1    
   114   57   58 1    
   115   57   59 1    
   116   57  180 1    
   117   58  181 1    
   118   58  182 1    
   119   58  183 1    
   120   59   60 am   BACKBONE|DICT|INTERRES
   121   59  184 1    
   122   60   61 2    
   123   60   62 1    
   124   62   63 1    
   125   62   64 1    
   126   62  185 1    
   127   63  186 1    
   128   63  187 1    
   129   63  188 1    
   130   64   65 am   BACKBONE|DICT|INTERRES
   131   64  189 1    
   132   65   66 2    
   133   67   68 2    
   134   67   69 am   BACKBONE|DICT|INTERRES
   135   69   70 1    
   136   69  190 1    
   137   70   71 1    
   138   70   72 1    
   139   70  191 1    
   140   71  192 1    
   141   71  193 1    
   142   71  194 1    
   143   72   73 2    
   144   72   74 am   BACKBONE|DICT|INTERRES
   145   74   75 1    
   146   74  195 1    
   147   75   76 1    
   148   75   77 1    
   149   75  196 1    
   150   76  197 1    
   151   76  198 1    
   152   76  199 1    
   153   77   78 2    
   154   77   79 am   BACKBONE|DICT|INTERRES
   155   79   80 1    
   156   79  200 1    
   157   80   81 1    
   158   80   82 1    
   159   80  201 1    
   160   81  202 1    
   161   81  203 1    
   162   81  204 1    
   163   82   83 2    
   164   82   84 am   BACKBONE|DICT|INTERRES
   165   84   85 1    
   166   84  205 1    
   167   85   86 1    
   168   85   87 1    
   169   85  206 1    
   170   86  207 1    
   171   86  208 1    
   172   86  209 1    
   173   87   88 2    
   174   87   89 am   BACKBONE|DICT|INTERRES
   175   89   90 1    
   176   89  210 1    
   177   90   91 1    
   178   90   92 1    
   179   90  211 1    
   180   91  212 1    
   181   91  213 1    
   182   91  214 1    
   183   92   93 2    
   184   92   94 am   BACKBONE|DICT|INTERRES
   185   94   95 1    
   186   94  215 1    
   187   95   96 1    
   188   95   97 1    
   189   95  216 1    
   190   96  217 1    
   191   96  218 1    
   192   96  219 1    
   193   97   98 2    
   194   97   99 am   BACKBONE|DICT|INTERRES
   195   99  100 1    
   196   99  220 1    
   197  100  101 1    
   198  100  102 1    
   199  100  221 1    
   200  101  222 1    
   201  101  223 1    
   202  101  224 1    
   203  102  103 2    
   204  102  104 am   BACKBONE|DICT|INTERRES
   205  104  105 1    
   206  104  225 1    
   207  105  106 1    
   208  105  107 1    
   209  105  226 1    
   210  106  227 1    
   211  106  228 1    
   212  106  229 1    
   213  107  108 2    
   214  107  109 am   BACKBONE|DICT|INTERRES
   215  109  110 1    
   216  109  230 1    
   217  110  111 1    
   218  110  112 1    
   219  110  231 1    
   220  111  232 1    
   221  111  233 1    
   222  111  234 1    
   223  112  113 2    
   224  112  114 am   BACKBONE|DICT|INTERRES
   225  114  115 1    
   226  114  235 1    
   227  115  116 1    
   228  115  117 1    
   229  115  236 1    
   230  116  237 1    
   231  116  238 1    
   232  116  239 1    
   233  117  118 2    
   234  117  119 am   BACKBONE|DICT|INTERRES
   235  119  120 1    
   236  119  240 1    
   237  120  121 1    
   238  120  124 1    
   239  120  241 1    
   240  121  122 am   BACKBONE|DICT|INTERRES
   241  121  123 2    
   242  122  242 1    
   243  122  243 1    
   244  124  125 1    
   245  124  244 1    
   246  124  245 1    
   247  125  126 1    
   248  126  246 1    
   249  126  247 1    
@<TRIPOS>SUBSTRUCTURE
     1 UNK         1 GROUP             0       ****    0 ROOT    
