@<TRIPOS>MOLECULE
3R540
247   249    1
SMALL
USER_CHARGES


@<TRIPOS>ATOM
      1 CA          2.6987  -16.9996  -47.4991 C.3       0 UNK        -0.1800 
      2 C           2.3865  -15.8101  -48.3970 C.2       0 UNK         0.5000 
      3 O           1.4796  -15.0340  -48.0948 O.2       0 UNK        -0.5000 
      4 N           3.1266  -15.6687  -49.5044 N.am      1 UNK        -0.5000 
      5 CA          2.9390  -14.6262  -50.5188 C.3       1 UNK         0.1400 
      6 C6          3.7525  -14.8819  -51.8190 C.3       23 UNK        -0.0398 
      7 S7          3.7574  -16.6099  -52.4164 S.3       23 UNK        -0.2404 
      8 C8          1.9904  -16.9659  -52.6795 C.3       23 UNK        -0.0205 
      9 C9          1.6963  -18.4392  -52.4494 C.ar      23 UNK        -0.0193 
     10 C10         1.2625  -19.2513  -53.5001 C.ar      23 UNK        -0.1150 
     11 C11         0.9780  -20.6021  -53.2797 C.ar      23 UNK        -0.0193 
     12 C12         1.1544  -21.1432  -52.0025 C.ar      23 UNK        -0.1150 
     13 C13         1.5882  -20.3414  -50.9440 C.ar      23 UNK        -0.0193 
     14 C14         1.8512  -18.9897  -51.1736 C.ar      23 UNK        -0.1150 
     15 C15         1.8145  -20.9361  -49.5635 C.3       23 UNK        -0.0205 
     16 S16         0.5732  -20.3756  -48.3565 S.3       23 UNK        -0.2404 
     17 C17         1.2606  -21.0983  -46.8211 C.3       23 UNK        -0.0398 
     18 CA          0.4679  -22.2278  -46.0893 C.3       11 UNK         0.1400 
     19 N          -0.0907  -21.7555  -44.8182 N.am      11 UNK        -0.5000 
     20 C          -0.2427  -22.5023  -43.7151 C.2       10 UNK         0.5000 
     21 O           0.0769  -23.6898  -43.6506 O.2       10 UNK        -0.5000 
     22 CA         -0.8811  -21.8258  -42.4849 C.3       10 UNK         0.1400 
     23 CB          0.2029  -21.3704  -41.4966 C.3       10 UNK        -0.1800 
     24 N          -1.7445  -20.6908  -42.8228 N.am      10 UNK        -0.5000 
     25 C          -2.8978  -20.7970  -43.4974 C.2       9 UNK         0.5000 
     26 O          -3.3664  -21.8730  -43.8640 O.2       9 UNK        -0.5000 
     27 CA         -3.6305  -19.4929  -43.8615 C.3       9 UNK         0.1400 
     28 CB         -4.5484  -19.0495  -42.7137 C.3       9 UNK        -0.1800 
     29 N          -2.7224  -18.4014  -44.2220 N.am      9 UNK        -0.5000 
     30 C          -1.9057  -18.4131  -45.2863 C.2       8 UNK         0.5000 
     31 O          -1.8620  -19.3373  -46.0957 O.2       8 UNK        -0.5000 
     32 CA         -0.9404  -17.2237  -45.4430 C.3       8 UNK         0.1400 
     33 CB         -1.6590  -15.9846  -45.9948 C.3       8 UNK        -0.1800 
     34 N          -0.2834  -16.8803  -44.1847 N.am      8 UNK        -0.5000 
     35 C           0.5592  -17.6820  -43.5206 C.2       7 UNK         0.5000 
     36 O           0.9326  -18.7795  -43.9336 O.2       7 UNK        -0.5000 
     37 CA          1.0222  -17.1919  -42.1384 C.3       7 UNK         0.1400 
     38 CB          2.1974  -16.2109  -42.2656 C.3       7 UNK        -0.1800 
     39 N          -0.0655  -16.5615  -41.3884 N.am      7 UNK        -0.5000 
     40 C          -1.1113  -17.2223  -40.8727 C.2       6 UNK         0.5000 
     41 O          -1.2579  -18.4406  -40.9587 O.2       6 UNK        -0.5000 
     42 CA         -2.1899  -16.3771  -40.1705 C.3       6 UNK         0.1400 
     43 CB         -1.7777  -16.0660  -38.7240 C.3       6 UNK        -0.1800 
     44 N          -2.4763  -15.1258  -40.8730 N.am      6 UNK        -0.5000 
     45 C          -3.0558  -15.0526  -42.0793 C.2       5 UNK         0.5000 
     46 O          -3.4314  -16.0337  -42.7188 O.2       5 UNK        -0.5000 
     47 CA         -3.1886  -13.6499  -42.7007 C.3       5 UNK         0.1400 
     48 CB         -4.4635  -12.9556  -42.1991 C.3       5 UNK        -0.1800 
     49 N          -2.0323  -12.7790  -42.4623 N.am      5 UNK        -0.5000 
     50 C          -0.7722  -13.0727  -42.8084 C.2       4 UNK         0.5000 
     51 O          -0.4305  -14.1574  -43.2854 O.2       4 UNK        -0.5000 
     52 CA          0.2905  -11.9900  -42.5381 C.3       4 UNK         0.1400 
     53 CB          0.7979  -12.0981  -41.0917 C.3       4 UNK        -0.1800 
     54 N           1.4317  -12.1162  -43.4464 N.am      4 UNK        -0.5000 
     55 C           1.3633  -11.9776  -44.7769 C.2       3 UNK         0.5000 
     56 O           0.3594  -11.5671  -45.3676 O.2       3 UNK        -0.5000 
     57 CA          2.6233  -12.3928  -45.5623 C.3       3 UNK         0.1400 
     58 CB          2.9879  -13.8630  -45.2889 C.3       3 UNK        -0.1800 
     59 N           2.4268  -12.2246  -47.0006 N.am      3 UNK        -0.5000 
     60 C           2.6001  -11.0759  -47.6683 C.2       2 UNK         0.5000 
     61 O           3.0248  -10.0452  -47.1415 O.2       2 UNK        -0.5000 
     62 CA          2.2226  -11.0706  -49.1684 C.3       2 UNK         0.1400 
     63 CB          3.0760  -10.0855  -49.9957 C.3       2 UNK        -0.1800 
     64 N           2.2129  -12.4036  -49.7860 N.am      2 UNK        -0.5000 
     65 C           3.2544  -13.2362  -49.9311 C.2       1 UNK         0.5000 
     66 O           4.4104  -12.9684  -49.5966 O.2       1 UNK        -0.5000 
     67 C          -0.5596  -23.0146  -46.9422 C.2       11 UNK         0.5000 
     68 O          -0.1871  -23.5448  -47.9908 O.2       11 UNK        -0.5000 
     69 N          -1.8120  -23.1410  -46.4710 N.am      12 UNK        -0.5000 
     70 CA         -2.9163  -23.8408  -47.1374 C.3       12 UNK         0.1400 
     71 CB         -4.1982  -23.6920  -46.3081 C.3       12 UNK        -0.1800 
     72 C          -2.6616  -25.3211  -47.4764 C.2       12 UNK         0.5000 
     73 O          -3.3027  -25.8412  -48.3900 O.2       12 UNK        -0.5000 
     74 N          -1.7178  -25.9637  -46.7767 N.am      13 UNK        -0.5000 
     75 CA         -1.2320  -27.3089  -47.0869 C.3       13 UNK         0.1400 
     76 CB         -0.3561  -27.8033  -45.9260 C.3       13 UNK        -0.1800 
     77 C          -0.4542  -27.3794  -48.4183 C.2       13 UNK         0.5000 
     78 O          -0.4950  -28.4139  -49.0847 O.2       13 UNK        -0.5000 
     79 N           0.2266  -26.2845  -48.7845 N.am      14 UNK        -0.5000 
     80 CA          0.9766  -26.1421  -50.0321 C.3       14 UNK         0.1400 
     81 CB          2.2685  -25.3568  -49.7574 C.3       14 UNK        -0.1800 
     82 C           0.1376  -25.4422  -51.1144 C.2       14 UNK         0.5000 
     83 O           0.2346  -25.8104  -52.2850 O.2       14 UNK        -0.5000 
     84 N          -0.6844  -24.4624  -50.7096 N.am      15 UNK        -0.5000 
     85 CA         -1.5721  -23.7013  -51.5958 C.3       15 UNK         0.1400 
     86 CB         -1.9558  -22.3848  -50.9074 C.3       15 UNK        -0.1800 
     87 C          -2.8365  -24.4720  -52.0329 C.2       15 UNK         0.5000 
     88 O          -3.5586  -23.9875  -52.9037 O.2       15 UNK        -0.5000 
     89 N          -3.0765  -25.6452  -51.4288 N.am      16 UNK        -0.5000 
     90 CA         -4.1844  -26.5719  -51.6707 C.3       16 UNK         0.1400 
     91 CB         -4.1614  -27.1087  -53.1179 C.3       16 UNK        -0.1800 
     92 C          -5.5425  -25.9727  -51.2583 C.2       16 UNK         0.5000 
     93 O          -6.4227  -25.7762  -52.0983 O.2       16 UNK        -0.5000 
     94 N          -5.6734  -25.7131  -49.9498 N.am      17 UNK        -0.5000 
     95 CA         -6.8697  -25.2238  -49.2553 C.3       17 UNK         0.1400 
     96 CB         -8.0341  -26.2310  -49.3713 C.3       17 UNK        -0.1800 
     97 C          -7.2593  -23.7874  -49.6607 C.2       17 UNK         0.5000 
     98 O          -8.4381  -23.4959  -49.8728 O.2       17 UNK        -0.5000 
     99 N          -6.2543  -22.9102  -49.7392 N.am      18 UNK        -0.5000 
    100 CA        -6.3922  -21.4788  -49.9826 C.3       18 UNK         0.1400 
    101 CB        -6.0852  -21.1869  -51.4607 C.3       18 UNK        -0.1800 
    102 C         -5.4016  -20.7472  -49.0701 C.2       18 UNK         0.5000 
    103 O         -4.3269  -21.2814  -48.7978 O.2       18 UNK        -0.5000 
    104 N         -5.7394  -19.5286  -48.6355 N.am      19 UNK        -0.5000 
    105 CA        -4.8614  -18.6860  -47.8195 C.3       19 UNK         0.1400 
    106 CB        -5.7179  -17.7415  -46.9577 C.3       19 UNK        -0.1800 
    107 C         -3.8575  -17.9355  -48.7161 C.2       19 UNK         0.5000 
    108 O         -3.9861  -16.7254  -48.9035 O.2       19 UNK        -0.5000 
    109 N         -2.9239  -18.6929  -49.3115 N.am      20 UNK        -0.5000 
    110 CA        -1.8772  -18.2721  -50.2575 C.3       20 UNK         0.1400 
    111 CB        -0.9348  -17.2407  -49.6019 C.3       20 UNK        -0.1800 
    112 C         -2.4061  -17.7702  -51.6211 C.2       20 UNK         0.5000 
    113 O         -1.6204  -17.3047  -52.4476 O.2       20 UNK        -0.5000 
    114 N         -3.7211  -17.8733  -51.8508 N.am      21 UNK        -0.5000 
    115 CA        -4.4348  -17.3385  -53.0091 C.3       21 UNK         0.1400 
    116 CB        -5.8675  -16.9758  -52.5760 C.3       21 UNK        -0.1800 
    117 C         -4.3951  -18.2926  -54.2201 C.2       21 UNK         0.5000 
    118 O         -5.4415  -18.6300  -54.7775 O.2       21 UNK        -0.5000 
    119 N         -3.1866  -18.7130  -54.6076 N.am      22 UNK        -0.5000 
    120 CA        -2.9231  -19.4709  -55.8397 C.3       22 UNK         0.1400 
    121 C         -3.1383  -18.6068  -57.1144 C.2       22 UNK         0.5000 
    122 N         -3.6310  -19.1971  -58.1949 N.am      22 UNK        -0.7600 
    123 O         -2.8249  -17.4185  -57.1470 O.2       22 UNK        -0.5000 
    124 C124       -1.5011  -20.0813  -55.8403 C.3       23 UNK        -0.0398 
    125 S125       -1.3178  -21.4018  -54.5977 S.3       23 UNK        -0.2404 
    126 C126        0.4910  -21.4846  -54.4177 C.3       23 UNK        -0.0205 
    127 H127        2.8564  -16.6720  -46.4720 H         1 UNK         0.0600 
    128 H128        1.8645  -17.7004  -47.5077 H         1 UNK         0.0600 
    129 H129        3.5913  -17.5321  -47.8278 H         1 UNK         0.0600 
    130 H130        3.8735  -16.3211  -49.6941 H         1 UNK         0.3000 
    131 H131        1.8812  -14.6331  -50.7861 H         1 UNK         0.0600 
    132 H132        4.7996  -14.6092  -51.6741 H         1 UNK         0.0800 
    133 H133        3.3857  -14.2402  -52.6218 H         1 UNK         0.0800 
    134 H134        1.7118  -16.6619  -53.6895 H         1 UNK         0.0800 
    135 H135        1.3623  -16.3886  -52.0048 H         1 UNK         0.0800 
    136 H136        1.1436  -18.8295  -54.4872 H         1 UNK         0.1150 
    137 H137        0.9573  -22.1917  -51.8325 H         1 UNK         0.1150 
    138 H138        2.1875  -18.3662  -50.3578 H         1 UNK         0.1150 
    139 H139        1.7955  -22.0254  -49.6076 H         1 UNK         0.0800 
    140 H140        2.8108  -20.6538  -49.2203 H         1 UNK         0.0800 
    141 H141        2.2550  -21.4821  -47.0514 H         1 UNK         0.0800 
    142 H142        1.4525  -20.2670  -46.1416 H         1 UNK         0.0800 
    143 H143        1.2164  -22.9799  -45.8298 H         1 UNK         0.0600 
    144 H144       -0.3907  -20.7887  -44.7963 H         1 UNK         0.3000 
    145 H145       -1.4972  -22.5765  -41.9858 H         1 UNK         0.0600 
    146 H146       -0.2385  -20.9783  -40.5803 H         1 UNK         0.0600 
    147 H147        0.8493  -22.2022  -41.2138 H         1 UNK         0.0600 
    148 H148        0.8366  -20.5932  -41.9235 H         1 UNK         0.0600 
    149 H149       -1.4509  -19.7791  -42.4883 H         1 UNK         0.3000 
    150 H150       -4.2577  -19.7038  -44.7296 H         1 UNK         0.0600 
    151 H151       -5.2356  -19.8478  -42.4308 H         1 UNK         0.0600 
    152 H152       -5.1524  -18.1895  -43.0033 H         1 UNK         0.0600 
    153 H153       -3.9778  -18.7757  -41.8258 H         1 UNK         0.0600 
    154 H154       -2.7422  -17.5819  -43.6210 H         1 UNK         0.3000 
    155 H155       -0.1669  -17.5142  -46.1562 H         1 UNK         0.0600 
    156 H156       -2.4412  -15.6359  -45.3206 H         1 UNK         0.0600 
    157 H157       -2.1240  -16.1988  -46.9561 H         1 UNK         0.0600 
    158 H158       -0.9592  -15.1627  -46.1503 H         1 UNK         0.0600 
    159 H159       -0.4914  -15.9649  -43.7925 H         1 UNK         0.3000 
    160 H160        1.3671  -18.0617  -41.5752 H         1 UNK         0.0600 
    161 H161        2.5807  -15.9263  -41.2857 H         1 UNK         0.0600 
    162 H162        1.9077  -15.3001  -42.7886 H         1 UNK         0.0600 
    163 H163        3.0222  -16.6595  -42.8208 H         1 UNK         0.0600 
    164 H164       -0.0593  -15.5532  -41.3439 H         1 UNK         0.3000 
    165 H165       -3.1081  -16.9677  -40.1427 H         1 UNK         0.0600 
    166 H166       -2.5703  -15.5383  -38.1932 H         1 UNK         0.0600 
    167 H167       -1.5732  -16.9839  -38.1711 H         1 UNK         0.0600 
    168 H168       -0.8781  -15.4506  -38.6832 H         1 UNK         0.0600 
    169 H169       -2.1911  -14.2691  -40.4223 H         1 UNK         0.3000 
    170 H170       -3.2777  -13.7815  -43.7810 H         1 UNK         0.0600 
    171 H171       -5.3427  -13.5754  -42.3804 H         1 UNK         0.0600 
    172 H172       -4.4185  -12.7545  -41.1280 H         1 UNK         0.0600 
    173 H173       -4.6252  -12.0078  -42.7129 H         1 UNK         0.0600 
    174 H174       -2.2296  -11.8746  -42.0586 H         1 UNK         0.3000 
    175 H175       -0.1611  -11.0072  -42.6872 H         1 UNK         0.0600 
    176 H176        1.2637  -13.0657  -40.8993 H         1 UNK         0.0600 
    177 H177        1.5324  -11.3229  -40.8725 H         1 UNK         0.0600 
    178 H178       -0.0186  -11.9793  -40.3783 H         1 UNK         0.0600 
    179 H179        2.2839  -12.4714  -43.0399 H         1 UNK         0.3000 
    180 H180        3.4540  -11.7639  -45.2358 H         1 UNK         0.0600 
    181 H181        2.1292  -14.5216  -45.4287 H         1 UNK         0.0600 
    182 H182        3.3426  -13.9982  -44.2672 H         1 UNK         0.0600 
    183 H183        3.7857  -14.2034  -45.9494 H         1 UNK         0.0600 
    184 H184        2.0354  -13.0200  -47.4920 H         1 UNK         0.3000 
    185 H185        1.1913  -10.7175  -49.2084 H         1 UNK         0.0600 
    186 H186        2.9504   -9.0629  -49.6382 H         1 UNK         0.0600 
    187 H187        4.1389  -10.3212  -49.9383 H         1 UNK         0.0600 
    188 H188        2.7853  -10.0970  -51.0461 H         1 UNK         0.0600 
    189 H189        1.2981  -12.7405  -50.0533 H         1 UNK         0.3000 
    190 H190       -2.0438  -22.6763  -45.6025 H         1 UNK         0.3000 
    191 H191       -3.0763  -23.3427  -48.0889 H         1 UNK         0.0600 
    192 H192       -4.0786  -24.1070  -45.3068 H         1 UNK         0.0600 
    193 H193       -5.0363  -24.2052  -46.7775 H         1 UNK         0.0600 
    194 H194       -4.4804  -22.6434  -46.2105 H         1 UNK         0.0600 
    195 H195       -1.2474  -25.4657  -46.0350 H         1 UNK         0.3000 
    196 H196       -2.0956  -27.9720  -47.1716 H         1 UNK         0.0600 
    197 H197        0.0068  -28.8148  -46.1136 H         1 UNK         0.0600 
    198 H198       -0.9170  -27.8285  -44.9915 H         1 UNK         0.0600 
    199 H199        0.5150  -27.1637  -45.7781 H         1 UNK         0.0600 
    200 H200        0.1601  -25.4503  -48.2108 H         1 UNK         0.3000 
    201 H201        1.2588  -27.1259  -50.4131 H         1 UNK         0.0600 
    202 H202        2.9070  -25.8881  -49.0517 H         1 UNK         0.0600 
    203 H203        2.0623  -24.3707  -49.3418 H         1 UNK         0.0600 
    204 H204        2.8432  -25.2148  -50.6735 H         1 UNK         0.0600 
    205 H205       -0.6555  -24.1751  -49.7354 H         1 UNK         0.3000 
    206 H206       -1.0148  -23.4603  -52.5017 H         1 UNK         0.0600 
    207 H207       -2.4646  -21.7121  -51.5988 H         1 UNK         0.0600 
    208 H208       -1.0872  -21.8582  -50.5163 H         1 UNK         0.0600 
    209 H209       -2.6280  -22.5692  -50.0768 H         1 UNK         0.0600 
    210 H210       -2.4510  -25.9098  -50.6806 H         1 UNK         0.3000 
    211 H211       -4.0121  -27.4249  -51.0122 H         1 UNK         0.0600 
    212 H212       -4.3592  -26.3262  -53.8508 H         1 UNK         0.0600 
    213 H213       -4.9193  -27.8805  -53.2559 H         1 UNK         0.0600 
    214 H214       -3.1959  -27.5546  -53.3565 H         1 UNK         0.0600 
    215 H215       -4.8573  -25.8678  -49.3596 H         1 UNK         0.3000 
    216 H216       -6.6032  -25.1739  -48.1997 H         1 UNK         0.0600 
    217 H217       -8.4138  -26.3013  -50.3909 H         1 UNK         0.0600 
    218 H218       -8.8686  -25.9364  -48.7340 H         1 UNK         0.0600 
    219 H219       -7.7253  -27.2284  -49.0583 H         1 UNK         0.0600 
    220 H220       -5.3148  -23.2071  -49.5133 H         1 UNK         0.3000 
    221 H221       -7.4032  -21.1435  -49.7420 H         1 UNK         0.0600 
    222 H222       -5.0748  -21.4973  -51.7318 H         1 UNK         0.0600 
    223 H223       -6.7798  -21.7115  -52.1170 H         1 UNK         0.0600 
    224 H224       -6.1726  -20.1232  -51.6787 H         1 UNK         0.0600 
    225 H225       -6.6244  -19.1267  -48.9102 H         1 UNK         0.3000 
    226 H226       -4.2891  -19.3169  -47.1375 H         1 UNK         0.0600 
    227 H227       -6.3721  -18.3034  -46.2909 H         1 UNK         0.0600 
    228 H228       -5.0869  -17.1080  -46.3324 H         1 UNK         0.0600 
    229 H229       -6.3416  -17.0875  -47.5683 H         1 UNK         0.0600 
    230 H230       -2.9450  -19.6859  -49.1022 H         1 UNK         0.3000 
    231 H231       -1.2915  -19.1661  -50.4753 H         1 UNK         0.0600 
    232 H232       -0.5686  -17.5942  -48.6389 H         1 UNK         0.0600 
    233 H233       -1.4257  -16.2809  -49.4410 H         1 UNK         0.0600 
    234 H234       -0.0633  -17.0525  -50.2265 H         1 UNK         0.0600 
    235 H235       -4.2877  -18.2849  -51.1261 H         1 UNK         0.3000 
    236 H236       -3.9484  -16.4126  -53.3236 H         1 UNK         0.0600 
    237 H237       -6.4152  -16.5038  -53.3927 H         1 UNK         0.0600 
    238 H238       -6.4339  -17.8535  -52.2655 H         1 UNK         0.0600 
    239 H239       -5.8602  -16.2710  -51.7440 H         1 UNK         0.0600 
    240 H240       -2.3795  -18.3775  -54.0950 H         1 UNK         0.3000 
    241 H241       -3.6417  -20.2925  -55.8768 H         1 UNK         0.0600 
    242 H242       -3.7624  -18.6525  -59.0336 H         1 UNK         0.3800 
    243 H243       -3.8896  -20.1720  -58.1951 H         1 UNK         0.3800 
    244 H244       -1.2690  -20.5223  -56.8116 H         1 UNK         0.0800 
    245 H245       -0.7571  -19.3027  -55.6721 H         1 UNK         0.0800 
    246 H246        0.9786  -21.2058  -55.3531 H         1 UNK         0.0800 
    247 H247        0.7744  -22.5211  -54.2283 H         1 UNK         0.0800 
@<TRIPOS>BOND
     1    1    2 1    
     2    1  127 1    
     3    1  128 1    
     4    1  129 1    
     5    2    3 2    
     6    2    4 am   BACKBONE|DICT|INTERRES
     7    4    5 1    
     8    4  130 1    
     9    5    6 1    
    10    5   65 1    
    11    5  131 1    
    12    6    7 1    
    13    6  132 1    
    14    6  133 1    
    15    7    8 1    
    16    8    9 1    
    17    8  134 1    
    18    8  135 1    
    19    9   10 ar   
    20    9   14 ar   
    21   10   11 ar   
    22   10  136 1    
    23   11   12 ar   
    24   11  126 1    
    25   12   13 ar   
    26   12  137 1    
    27   13   14 ar   
    28   13   15 1    
    29   14  138 1    
    30   15   16 1    
    31   15  139 1    
    32   15  140 1    
    33   16   17 1    
    34   17   18 1    
    35   17  141 1    
    36   17  142 1    
    37   18   19 1    
    38   18   67 1    
    39   18  143 1    
    40   19   20 am   BACKBONE|DICT|INTERRES
    41   19  144 1    
    42   20   21 2    
    43   20   22 1    
    44   22   23 1    
    45   22   24 1    
    46   22  145 1    
    47   23  146 1    
    48   23  147 1    
    49   23  148 1    
    50   24   25 am   BACKBONE|DICT|INTERRES
    51   24  149 1    
    52   25   26 2    
    53   25   27 1    
    54   27   28 1    
    55   27   29 1    
    56   27  150 1    
    57   28  151 1    
    58   28  152 1    
    59   28  153 1    
    60   29   30 am   BACKBONE|DICT|INTERRES
    61   29  154 1    
    62   30   31 2    
    63   30   32 1    
    64   32   33 1    
    65   32   34 1    
    66   32  155 1    
    67   33  156 1    
    68   33  157 1    
    69   33  158 1    
    70   34   35 am   BACKBONE|DICT|INTERRES
    71   34  159 1    
    72   35   36 2    
    73   35   37 1    
    74   37   38 1    
    75   37   39 1    
    76   37  160 1    
    77   38  161 1    
    78   38  162 1    
    79   38  163 1    
    80   39   40 am   BACKBONE|DICT|INTERRES
    81   39  164 1    
    82   40   41 2    
    83   40   42 1    
    84   42   43 1    
    85   42   44 1    
    86   42  165 1    
    87   43  166 1    
    88   43  167 1    
    89   43  168 1    
    90   44   45 am   BACKBONE|DICT|INTERRES
    91   44  169 1    
    92   45   46 2    
    93   45   47 1    
    94   47   48 1    
    95   47   49 1    
    96   47  170 1    
    97   48  171 1    
    98   48  172 1    
    99   48  173 1    
   100   49   50 am   BACKBONE|DICT|INTERRES
   101   49  174 1    
   102   50   51 2    
   103   50   52 1    
   104   52   53 1    
   105   52   54 1    
   106   52  175 1    
   107   53  176 1    
   108   53  177 1    
   109   53  178 1    
   110   54   55 am   BACKBONE|DICT|INTERRES
   111   54  179 1    
   112   55   56 2    
   113   55   57 1    
   114   57   58 1    
   115   57   59 1    
   116   57  180 1    
   117   58  181 1    
   118   58  182 1    
   119   58  183 1    
   120   59   60 am   BACKBONE|DICT|INTERRES
   121   59  184 1    
   122   60   61 2    
   123   60   62 1    
   124   62   63 1    
   125   62   64 1    
   126   62  185 1    
   127   63  186 1    
   128   63  187 1    
   129   63  188 1    
   130   64   65 am   BACKBONE|DICT|INTERRES
   131   64  189 1    
   132   65   66 2    
   133   67   68 2    
   134   67   69 am   BACKBONE|DICT|INTERRES
   135   69   70 1    
   136   69  190 1    
   137   70   71 1    
   138   70   72 1    
   139   70  191 1    
   140   71  192 1    
   141   71  193 1    
   142   71  194 1    
   143   72   73 2    
   144   72   74 am   BACKBONE|DICT|INTERRES
   145   74   75 1    
   146   74  195 1    
   147   75   76 1    
   148   75   77 1    
   149   75  196 1    
   150   76  197 1    
   151   76  198 1    
   152   76  199 1    
   153   77   78 2    
   154   77   79 am   BACKBONE|DICT|INTERRES
   155   79   80 1    
   156   79  200 1    
   157   80   81 1    
   158   80   82 1    
   159   80  201 1    
   160   81  202 1    
   161   81  203 1    
   162   81  204 1    
   163   82   83 2    
   164   82   84 am   BACKBONE|DICT|INTERRES
   165   84   85 1    
   166   84  205 1    
   167   85   86 1    
   168   85   87 1    
   169   85  206 1    
   170   86  207 1    
   171   86  208 1    
   172   86  209 1    
   173   87   88 2    
   174   87   89 am   BACKBONE|DICT|INTERRES
   175   89   90 1    
   176   89  210 1    
   177   90   91 1    
   178   90   92 1    
   179   90  211 1    
   180   91  212 1    
   181   91  213 1    
   182   91  214 1    
   183   92   93 2    
   184   92   94 am   BACKBONE|DICT|INTERRES
   185   94   95 1    
   186   94  215 1    
   187   95   96 1    
   188   95   97 1    
   189   95  216 1    
   190   96  217 1    
   191   96  218 1    
   192   96  219 1    
   193   97   98 2    
   194   97   99 am   BACKBONE|DICT|INTERRES
   195   99  100 1    
   196   99  220 1    
   197  100  101 1    
   198  100  102 1    
   199  100  221 1    
   200  101  222 1    
   201  101  223 1    
   202  101  224 1    
   203  102  103 2    
   204  102  104 am   BACKBONE|DICT|INTERRES
   205  104  105 1    
   206  104  225 1    
   207  105  106 1    
   208  105  107 1    
   209  105  226 1    
   210  106  227 1    
   211  106  228 1    
   212  106  229 1    
   213  107  108 2    
   214  107  109 am   BACKBONE|DICT|INTERRES
   215  109  110 1    
   216  109  230 1    
   217  110  111 1    
   218  110  112 1    
   219  110  231 1    
   220  111  232 1    
   221  111  233 1    
   222  111  234 1    
   223  112  113 2    
   224  112  114 am   BACKBONE|DICT|INTERRES
   225  114  115 1    
   226  114  235 1    
   227  115  116 1    
   228  115  117 1    
   229  115  236 1    
   230  116  237 1    
   231  116  238 1    
   232  116  239 1    
   233  117  118 2    
   234  117  119 am   BACKBONE|DICT|INTERRES
   235  119  120 1    
   236  119  240 1    
   237  120  121 1    
   238  120  124 1    
   239  120  241 1    
   240  121  122 am   BACKBONE|DICT|INTERRES
   241  121  123 2    
   242  122  242 1    
   243  122  243 1    
   244  124  125 1    
   245  124  244 1    
   246  124  245 1    
   247  125  126 1    
   248  126  246 1    
   249  126  247 1    
@<TRIPOS>SUBSTRUCTURE
     1 UNK         1 GROUP             0       ****    0 ROOT    
