@<TRIPOS>MOLECULE
3R540
247   249    1
SMALL
USER_CHARGES


@<TRIPOS>ATOM
      1 CA          1.4688  -15.0367  -49.8114 C.3       0 UNK        -0.1800 
      2 C           1.4456  -14.7125  -48.3254 C.2       0 UNK         0.5000 
      3 O           2.4963  -14.6887  -47.6856 O.2       0 UNK        -0.5000 
      4 N           0.2556  -14.4327  -47.7779 N.am      1 UNK        -0.5000 
      5 CA          0.0020  -14.1309  -46.3606 C.3       1 UNK         0.1400 
      6 C6         -1.5108  -14.0902  -46.0214 C.3       23 UNK        -0.0398 
      7 S7         -2.5248  -13.0663  -47.1500 S.3       23 UNK        -0.2404 
      8 C8         -3.6713  -14.2966  -47.8596 C.3       23 UNK        -0.0205 
      9 C9         -3.0495  -15.0648  -49.0177 C.ar      23 UNK        -0.0193 
     10 C10        -3.2817  -14.6637  -50.3366 C.ar      23 UNK        -0.1150 
     11 C11        -2.7117  -15.3632  -51.4055 C.ar      23 UNK        -0.0193 
     12 C12        -1.8921  -16.4651  -51.1456 C.ar      23 UNK        -0.1150 
     13 C13        -1.6511  -16.8750  -49.8304 C.ar      23 UNK        -0.0193 
     14 C14        -2.2465  -16.1811  -48.7750 C.ar      23 UNK        -0.1150 
     15 C15        -0.7211  -18.0433  -49.5449 C.3       23 UNK        -0.0205 
     16 S16        -1.6077  -19.6267  -49.5628 S.3       23 UNK        -0.2404 
     17 C17        -2.4858  -19.6194  -47.9622 C.3       23 UNK        -0.0398 
     18 CA         -2.2353  -20.9256  -47.1698 C.3       11 UNK         0.1400 
     19 N          -2.3809  -20.7606  -45.7234 N.am      11 UNK        -0.5000 
     20 C          -3.4837  -20.4809  -45.0171 C.2       10 UNK         0.5000 
     21 O          -4.6083  -20.3635  -45.5050 O.2       10 UNK        -0.5000 
     22 CA         -3.2786  -20.2741  -43.5056 C.3       10 UNK         0.1400 
     23 CB         -2.8197  -21.5721  -42.8218 C.3       10 UNK        -0.1800 
     24 N          -2.3087  -19.2145  -43.2344 N.am      10 UNK        -0.5000 
     25 C          -2.5162  -17.9114  -43.4745 C.2       9 UNK         0.5000 
     26 O          -3.5852  -17.4449  -43.8689 O.2       9 UNK        -0.5000 
     27 CA         -1.3170  -16.9713  -43.2589 C.3       9 UNK         0.1400 
     28 CB         -1.1748  -16.5861  -41.7789 C.3       9 UNK        -0.1800 
     29 N          -0.0647  -17.5556  -43.7332 N.am      9 UNK        -0.5000 
     30 C           0.2236  -17.8144  -45.0149 C.2       8 UNK         0.5000 
     31 O          -0.5066  -17.5038  -45.9519 O.2       8 UNK        -0.5000 
     32 CA          1.5423  -18.5522  -45.2979 C.3       8 UNK         0.1400 
     33 CB          2.7063  -17.5572  -45.4086 C.3       8 UNK        -0.1800 
     34 N           1.8484  -19.5526  -44.2753 N.am      8 UNK        -0.5000 
     35 C           1.2023  -20.7190  -44.1396 C.2       7 UNK         0.5000 
     36 O           0.2884  -21.0862  -44.8763 O.2       7 UNK        -0.5000 
     37 CA          1.6250  -21.6122  -42.9600 C.3       7 UNK         0.1400 
     38 CB          2.8188  -22.4953  -43.3512 C.3       7 UNK        -0.1800 
     39 N           1.9583  -20.8403  -41.7618 N.am      7 UNK        -0.5000 
     40 C           1.0625  -20.1537  -41.0391 C.2       6 UNK         0.5000 
     41 O          -0.1410  -20.1167  -41.2977 O.2       6 UNK        -0.5000 
     42 CA          1.6175  -19.3270  -39.8631 C.3       6 UNK         0.1400 
     43 CB          1.8384  -20.2171  -38.6309 C.3       6 UNK        -0.1800 
     44 N           2.8589  -18.6078  -40.1772 N.am      6 UNK        -0.5000 
     45 C           2.9738  -17.6908  -41.1465 C.2       5 UNK         0.5000 
     46 O           2.0673  -17.4230  -41.9356 O.2       5 UNK        -0.5000 
     47 CA          4.3287  -16.9769  -41.2926 C.3       5 UNK         0.1400 
     48 CB          5.2506  -17.7636  -42.2369 C.3       5 UNK        -0.1800 
     49 N           4.1354  -15.6302  -41.8318 N.am      5 UNK        -0.5000 
     50 C           3.6400  -14.5977  -41.1371 C.2       4 UNK         0.5000 
     51 O           3.4288  -14.6462  -39.9237 O.2       4 UNK        -0.5000 
     52 CA          3.2808  -13.3100  -41.9125 C.3       4 UNK         0.1400 
     53 CB          3.7656  -12.0392  -41.1844 C.3       4 UNK        -0.1800 
     54 N           3.6821  -13.2849  -43.3258 N.am      4 UNK        -0.5000 
     55 C           4.9253  -13.2573  -43.8338 C.2       3 UNK         0.5000 
     56 O           5.9470  -13.3387  -43.1520 O.2       3 UNK        -0.5000 
     57 CA          5.0565  -13.1218  -45.3662 C.3       3 UNK         0.1400 
     58 CB          5.3455  -14.4931  -45.9958 C.3       3 UNK        -0.1800 
     59 N           3.8728  -12.5414  -46.0070 N.am      3 UNK        -0.5000 
     60 C           3.4616  -11.2721  -45.8493 C.2       2 UNK         0.5000 
     61 O           4.1050  -10.4250  -45.2288 O.2       2 UNK        -0.5000 
     62 CA          2.0951  -10.8782  -46.4545 C.3       2 UNK         0.1400 
     63 CB          2.2926  -10.0812  -47.7529 C.3       2 UNK        -0.1800 
     64 N           1.2095  -12.0120  -46.7300 N.am      2 UNK        -0.5000 
     65 C           0.7480  -12.8882  -45.8260 C.2       1 UNK         0.5000 
     66 O           0.9523  -12.7843  -44.6155 O.2       1 UNK        -0.5000 
     67 C          -3.0178  -22.1269  -47.7414 C.2       11 UNK         0.5000 
     68 O          -2.4002  -23.0978  -48.1766 O.2       11 UNK        -0.5000 
     69 N          -4.3547  -22.0594  -47.7299 N.am      12 UNK        -0.5000 
     70 CA         -5.2424  -23.0773  -48.2934 C.3       12 UNK         0.1400 
     71 CB         -6.6761  -22.5330  -48.3670 C.3       12 UNK        -0.1800 
     72 C          -5.1887  -24.3947  -47.5038 C.2       12 UNK         0.5000 
     73 O          -5.0754  -25.4621  -48.1051 O.2       12 UNK        -0.5000 
     74 N          -5.1986  -24.2899  -46.1671 N.am      13 UNK        -0.5000 
     75 CA         -5.0554  -25.4238  -45.2482 C.3       13 UNK         0.1400 
     76 CB         -5.4829  -24.9903  -43.8385 C.3       13 UNK        -0.1800 
     77 C          -3.6292  -26.0113  -45.2326 C.2       13 UNK         0.5000 
     78 O          -3.4584  -27.1803  -44.8866 O.2       13 UNK        -0.5000 
     79 N          -2.6392  -25.2019  -45.6345 N.am      14 UNK        -0.5000 
     80 CA         -1.2477  -25.6093  -45.8368 C.3       14 UNK         0.1400 
     81 CB         -0.3393  -24.3877  -45.6114 C.3       14 UNK        -0.1800 
     82 C          -1.0058  -26.2304  -47.2309 C.2       14 UNK         0.5000 
     83 O           0.1029  -26.7003  -47.4887 O.2       14 UNK        -0.5000 
     84 N          -2.0309  -26.2151  -48.0997 N.am      15 UNK        -0.5000 
     85 CA         -2.0372  -26.6702  -49.4942 C.3       15 UNK         0.1400 
     86 CB         -1.8267  -28.1963  -49.5787 C.3       15 UNK        -0.1800 
     87 C          -1.0755  -25.8698  -50.3993 C.2       15 UNK         0.5000 
     88 O          -0.5024  -26.4266  -51.3383 O.2       15 UNK        -0.5000 
     89 N          -0.9188  -24.5754  -50.0967 N.am      16 UNK        -0.5000 
     90 CA         -0.1198  -23.6174  -50.8535 C.3       16 UNK         0.1400 
     91 CB          0.5879  -22.6768  -49.8599 C.3       16 UNK        -0.1800 
     92 C          -0.9921  -22.8830  -51.8948 C.2       16 UNK         0.5000 
     93 O          -2.0140  -23.4163  -52.3322 O.2       16 UNK        -0.5000 
     94 N          -0.5635  -21.6809  -52.3028 N.am      17 UNK        -0.5000 
     95 CA         -1.1055  -20.8988  -53.4188 C.3       17 UNK         0.1400 
     96 CB         -0.3642  -19.5571  -53.4998 C.3       17 UNK        -0.1800 
     97 C          -2.6281  -20.6682  -53.4053 C.2       17 UNK         0.5000 
     98 O          -3.2426  -20.6876  -54.4692 O.2       17 UNK        -0.5000 
     99 N          -3.2290  -20.4781  -52.2248 N.am      18 UNK        -0.5000 
    100 CA        -4.6733  -20.2753  -52.0670 C.3       18 UNK         0.1400 
    101 CB        -4.9711  -19.7319  -50.6655 C.3       18 UNK        -0.1800 
    102 C         -5.5131  -21.5337  -52.3576 C.2       18 UNK         0.5000 
    103 O         -6.6988  -21.3999  -52.6588 O.2       18 UNK        -0.5000 
    104 N         -4.8973  -22.7240  -52.2953 N.am      19 UNK        -0.5000 
    105 CA        -5.5113  -23.9702  -52.7557 C.3       19 UNK         0.1400 
    106 CB        -4.8493  -25.1673  -52.0541 C.3       19 UNK        -0.1800 
    107 C         -5.4229  -24.1134  -54.2885 C.2       19 UNK         0.5000 
    108 O         -6.2676  -24.7881  -54.8782 O.2       19 UNK        -0.5000 
    109 N         -4.4148  -23.4792  -54.9063 N.am      20 UNK        -0.5000 
    110 CA        -4.2133  -23.4532  -56.3535 C.3       20 UNK         0.1400 
    111 CB        -2.7271  -23.2239  -56.6730 C.3       20 UNK        -0.1800 
    112 C         -5.1015  -22.3987  -57.0372 C.2       20 UNK         0.5000 
    113 O         -5.7402  -22.7207  -58.0405 O.2       20 UNK        -0.5000 
    114 N         -5.1474  -21.1757  -56.4867 N.am      21 UNK        -0.5000 
    115 CA        -5.9814  -20.0835  -56.9861 C.3       21 UNK         0.1400 
    116 CB        -5.3858  -19.4396  -58.2522 C.3       21 UNK        -0.1800 
    117 C         -6.4332  -19.1203  -55.8634 C.2       21 UNK         0.5000 
    118 O         -7.5866  -19.2364  -55.4532 O.2       21 UNK        -0.5000 
    119 N         -5.6267  -18.2003  -55.3076 N.am      22 UNK        -0.5000 
    120 CA        -4.2622  -17.7639  -55.6515 C.3       22 UNK         0.1400 
    121 C         -4.1832  -16.7246  -56.8105 C.2       22 UNK         0.5000 
    122 N         -5.2891  -16.1414  -57.2573 N.am      22 UNK        -0.7600 
    123 O         -3.1003  -16.4600  -57.3243 O.2       22 UNK        -0.5000 
    124 C124       -3.5245  -17.2220  -54.3922 C.3       23 UNK        -0.0398 
    125 S125       -4.3618  -15.8040  -53.5906 S.3       23 UNK        -0.2404 
    126 C126       -2.9663  -14.9092  -52.8355 C.3       23 UNK        -0.0205 
    127 H127        2.2102  -14.4195  -50.3185 H         1 UNK         0.0600 
    128 H128        1.7339  -16.0829  -49.9620 H         1 UNK         0.0600 
    129 H129        0.5013  -14.8556  -50.2798 H         1 UNK         0.0600 
    130 H130       -0.5716  -14.4549  -48.3592 H         1 UNK         0.3000 
    131 H131        0.4270  -14.9638  -45.7986 H         1 UNK         0.0600 
    132 H132       -1.6710  -13.7345  -45.0019 H         1 UNK         0.0800 
    133 H133       -1.8993  -15.1073  -46.0193 H         1 UNK         0.0800 
    134 H134       -4.5654  -13.7747  -48.2039 H         1 UNK         0.0800 
    135 H135       -4.0105  -14.9869  -47.0856 H         1 UNK         0.0800 
    136 H136       -3.9077  -13.8044  -50.5325 H         1 UNK         0.1150 
    137 H137       -1.4378  -16.9969  -51.9680 H         1 UNK         0.1150 
    138 H138       -2.0657  -16.5011  -47.7606 H         1 UNK         0.1150 
    139 H139        0.0661  -18.0756  -50.2988 H         1 UNK         0.0800 
    140 H140       -0.2136  -17.9095  -48.5887 H         1 UNK         0.0800 
    141 H141       -2.1291  -18.7750  -47.3782 H         1 UNK         0.0800 
    142 H142       -3.5476  -19.4277  -48.1161 H         1 UNK         0.0800 
    143 H143       -1.1787  -21.1728  -47.2852 H         1 UNK         0.0600 
    144 H144       -1.4998  -20.8443  -45.2201 H         1 UNK         0.3000 
    145 H145       -4.2374  -19.9824  -43.0720 H         1 UNK         0.0600 
    146 H146       -2.7520  -21.4424  -41.7415 H         1 UNK         0.0600 
    147 H147       -3.5248  -22.3807  -43.0074 H         1 UNK         0.0600 
    148 H148       -1.8419  -21.8994  -43.1767 H         1 UNK         0.0600 
    149 H149       -1.4146  -19.5007  -42.8513 H         1 UNK         0.3000 
    150 H150       -1.5004  -16.0587  -43.8270 H         1 UNK         0.0600 
    151 H151       -2.0896  -16.1242  -41.4056 H         1 UNK         0.0600 
    152 H152       -0.3653  -15.8700  -41.6351 H         1 UNK         0.0600 
    153 H153       -0.9658  -17.4551  -41.1545 H         1 UNK         0.0600 
    154 H154        0.6427  -17.7489  -43.0276 H         1 UNK         0.3000 
    155 H155        1.4389  -19.0633  -46.2577 H         1 UNK         0.0600 
    156 H156        2.5342  -16.8586  -46.2262 H         1 UNK         0.0600 
    157 H157        3.6477  -18.0672  -45.6127 H         1 UNK         0.0600 
    158 H158        2.8288  -16.9694  -44.4987 H         1 UNK         0.0600 
    159 H159        2.5450  -19.3033  -43.5899 H         1 UNK         0.3000 
    160 H160        0.7831  -22.2659  -42.7217 H         1 UNK         0.0600 
    161 H161        3.7036  -21.9006  -43.5816 H         1 UNK         0.0600 
    162 H162        2.5869  -23.0949  -44.2326 H         1 UNK         0.0600 
    163 H163        3.0774  -23.1863  -42.5487 H         1 UNK         0.0600 
    164 H164        2.9285  -20.8138  -41.4844 H         1 UNK         0.3000 
    165 H165        0.8628  -18.5798  -39.6084 H         1 UNK         0.0600 
    166 H166        2.6168  -20.9612  -38.8040 H         1 UNK         0.0600 
    167 H167        2.1274  -19.6242  -37.7629 H         1 UNK         0.0600 
    168 H168        0.9252  -20.7523  -38.3670 H         1 UNK         0.0600 
    169 H169        3.6494  -18.7893  -39.5755 H         1 UNK         0.3000 
    170 H170        4.8030  -16.9047  -40.3117 H         1 UNK         0.0600 
    171 H171        5.4390  -18.7675  -41.8546 H         1 UNK         0.0600 
    172 H172        4.8195  -17.8672  -43.2329 H         1 UNK         0.0600 
    173 H173        6.2175  -17.2708  -42.3419 H         1 UNK         0.0600 
    174 H174        4.2543  -15.5163  -42.8262 H         1 UNK         0.3000 
    175 H175        2.1904  -13.2768  -41.9253 H         1 UNK         0.0600 
    176 H176        3.4761  -11.1395  -41.7277 H         1 UNK         0.0600 
    177 H177        3.3303  -11.9674  -40.1871 H         1 UNK         0.0600 
    178 H178        4.8495  -12.0269  -41.0673 H         1 UNK         0.0600 
    179 H179        2.9075  -13.2073  -43.9759 H         1 UNK         0.3000 
    180 H180        5.9064  -12.4665  -45.5673 H         1 UNK         0.0600 
    181 H181        5.4915  -14.4103  -47.0730 H         1 UNK         0.0600 
    182 H182        6.2513  -14.9341  -45.5777 H         1 UNK         0.0600 
    183 H183        4.5287  -15.1942  -45.8227 H         1 UNK         0.0600 
    184 H184        3.3050  -13.1770  -46.5589 H         1 UNK         0.3000 
    185 H185        1.5928  -10.2359  -45.7285 H         1 UNK         0.0600 
    186 H186        1.3407   -9.7229  -48.1454 H         1 UNK         0.0600 
    187 H187        2.9221   -9.2065  -47.5837 H         1 UNK         0.0600 
    188 H188        2.7701  -10.6851  -48.5256 H         1 UNK         0.0600 
    189 H189        1.0012  -12.1928  -47.7010 H         1 UNK         0.3000 
    190 H190       -4.7849  -21.2796  -47.2421 H         1 UNK         0.3000 
    191 H191       -4.9081  -23.2856  -49.3117 H         1 UNK         0.0600 
    192 H192       -7.3540  -23.2764  -48.7885 H         1 UNK         0.0600 
    193 H193       -6.7310  -21.6500  -49.0034 H         1 UNK         0.0600 
    194 H194       -7.0565  -22.2601  -47.3819 H         1 UNK         0.0600 
    195 H195       -5.2917  -23.3731  -45.7541 H         1 UNK         0.3000 
    196 H196       -5.7309  -26.2165  -45.5772 H         1 UNK         0.0600 
    197 H197       -5.4289  -25.8267  -43.1403 H         1 UNK         0.0600 
    198 H198       -6.5114  -24.6289  -43.8312 H         1 UNK         0.0600 
    199 H199       -4.8451  -24.1984  -43.4491 H         1 UNK         0.0600 
    200 H200       -2.8749  -24.2652  -45.9257 H         1 UNK         0.3000 
    201 H201       -0.9846  -26.3652  -45.0940 H         1 UNK         0.0600 
    202 H202       -0.4988  -23.9513  -44.6253 H         1 UNK         0.0600 
    203 H203       -0.5124  -23.6082  -46.3532 H         1 UNK         0.0600 
    204 H204        0.7133  -24.6660  -45.6744 H         1 UNK         0.0600 
    205 H205       -2.8989  -25.7964  -47.7919 H         1 UNK         0.3000 
    206 H206       -3.0393  -26.4608  -49.8699 H         1 UNK         0.0600 
    207 H207       -2.5289  -28.7267  -48.9355 H         1 UNK         0.0600 
    208 H208       -1.9851  -28.5564  -50.5959 H         1 UNK         0.0600 
    209 H209       -0.8172  -28.4843  -49.2843 H         1 UNK         0.0600 
    210 H210       -1.4677  -24.1824  -49.3349 H         1 UNK         0.3000 
    211 H211        0.6540  -24.1477  -51.4117 H         1 UNK         0.0600 
    212 H212       -0.1241  -22.0768  -49.2972 H         1 UNK         0.0600 
    213 H213        1.2782  -21.9981  -50.3612 H         1 UNK         0.0600 
    214 H214        1.1739  -23.2463  -49.1382 H         1 UNK         0.0600 
    215 H215        0.2662  -21.3052  -51.8681 H         1 UNK         0.3000 
    216 H216       -0.8839  -21.4582  -54.3296 H         1 UNK         0.0600 
    217 H217       -0.7528  -18.9382  -54.3097 H         1 UNK         0.0600 
    218 H218        0.6991  -19.7051  -53.6888 H         1 UNK         0.0600 
    219 H219       -0.4629  -18.9922  -52.5738 H         1 UNK         0.0600 
    220 H220       -2.6640  -20.4550  -51.3853 H         1 UNK         0.3000 
    221 H221       -4.9900  -19.5172  -52.7849 H         1 UNK         0.0600 
    222 H222       -4.6766  -20.4459  -49.8999 H         1 UNK         0.0600 
    223 H223       -4.4436  -18.7947  -50.4845 H         1 UNK         0.0600 
    224 H224       -6.0360  -19.5338  -50.5387 H         1 UNK         0.0600 
    225 H225       -3.9060  -22.7649  -52.0797 H         1 UNK         0.3000 
    226 H226       -6.5683  -23.9698  -52.4806 H         1 UNK         0.0600 
    227 H227       -5.3563  -26.0966  -52.3160 H         1 UNK         0.0600 
    228 H228       -3.8032  -25.2800  -52.3377 H         1 UNK         0.0600 
    229 H229       -4.8964  -25.0683  -50.9702 H         1 UNK         0.0600 
    230 H230       -3.7815  -22.9204  -54.3518 H         1 UNK         0.3000 
    231 H231       -4.4849  -24.4307  -56.7582 H         1 UNK         0.0600 
    232 H232       -2.5492  -23.2915  -57.7469 H         1 UNK         0.0600 
    233 H233       -2.0999  -23.9747  -56.1919 H         1 UNK         0.0600 
    234 H234       -2.3817  -22.2426  -56.3503 H         1 UNK         0.0600 
    235 H235       -4.5742  -20.9772  -55.6679 H         1 UNK         0.3000 
    236 H236       -6.9181  -20.5365  -57.3198 H         1 UNK         0.0600 
    237 H237       -4.3251  -19.2182  -58.1475 H         1 UNK         0.0600 
    238 H238       -5.4836  -20.1106  -59.1056 H         1 UNK         0.0600 
    239 H239       -5.9102  -18.5215  -58.5161 H         1 UNK         0.0600 
    240 H240       -6.0318  -17.6418  -54.5713 H         1 UNK         0.3000 
    241 H241       -3.7092  -18.6376  -55.9946 H         1 UNK         0.0600 
    242 H242       -5.2279  -15.4733  -58.0095 H         1 UNK         0.3800 
    243 H243       -6.1818  -16.3345  -56.8319 H         1 UNK         0.3800 
    244 H244       -2.4992  -16.9502  -54.6478 H         1 UNK         0.0800 
    245 H245       -3.4357  -18.0027  -53.6420 H         1 UNK         0.0800 
    246 H246       -2.0636  -15.0219  -53.4372 H         1 UNK         0.0800 
    247 H247       -3.1969  -13.8428  -52.8455 H         1 UNK         0.0800 
@<TRIPOS>BOND
     1    1    2 1    
     2    1  127 1    
     3    1  128 1    
     4    1  129 1    
     5    2    3 2    
     6    2    4 am   BACKBONE|DICT|INTERRES
     7    4    5 1    
     8    4  130 1    
     9    5    6 1    
    10    5   65 1    
    11    5  131 1    
    12    6    7 1    
    13    6  132 1    
    14    6  133 1    
    15    7    8 1    
    16    8    9 1    
    17    8  134 1    
    18    8  135 1    
    19    9   10 ar   
    20    9   14 ar   
    21   10   11 ar   
    22   10  136 1    
    23   11   12 ar   
    24   11  126 1    
    25   12   13 ar   
    26   12  137 1    
    27   13   14 ar   
    28   13   15 1    
    29   14  138 1    
    30   15   16 1    
    31   15  139 1    
    32   15  140 1    
    33   16   17 1    
    34   17   18 1    
    35   17  141 1    
    36   17  142 1    
    37   18   19 1    
    38   18   67 1    
    39   18  143 1    
    40   19   20 am   BACKBONE|DICT|INTERRES
    41   19  144 1    
    42   20   21 2    
    43   20   22 1    
    44   22   23 1    
    45   22   24 1    
    46   22  145 1    
    47   23  146 1    
    48   23  147 1    
    49   23  148 1    
    50   24   25 am   BACKBONE|DICT|INTERRES
    51   24  149 1    
    52   25   26 2    
    53   25   27 1    
    54   27   28 1    
    55   27   29 1    
    56   27  150 1    
    57   28  151 1    
    58   28  152 1    
    59   28  153 1    
    60   29   30 am   BACKBONE|DICT|INTERRES
    61   29  154 1    
    62   30   31 2    
    63   30   32 1    
    64   32   33 1    
    65   32   34 1    
    66   32  155 1    
    67   33  156 1    
    68   33  157 1    
    69   33  158 1    
    70   34   35 am   BACKBONE|DICT|INTERRES
    71   34  159 1    
    72   35   36 2    
    73   35   37 1    
    74   37   38 1    
    75   37   39 1    
    76   37  160 1    
    77   38  161 1    
    78   38  162 1    
    79   38  163 1    
    80   39   40 am   BACKBONE|DICT|INTERRES
    81   39  164 1    
    82   40   41 2    
    83   40   42 1    
    84   42   43 1    
    85   42   44 1    
    86   42  165 1    
    87   43  166 1    
    88   43  167 1    
    89   43  168 1    
    90   44   45 am   BACKBONE|DICT|INTERRES
    91   44  169 1    
    92   45   46 2    
    93   45   47 1    
    94   47   48 1    
    95   47   49 1    
    96   47  170 1    
    97   48  171 1    
    98   48  172 1    
    99   48  173 1    
   100   49   50 am   BACKBONE|DICT|INTERRES
   101   49  174 1    
   102   50   51 2    
   103   50   52 1    
   104   52   53 1    
   105   52   54 1    
   106   52  175 1    
   107   53  176 1    
   108   53  177 1    
   109   53  178 1    
   110   54   55 am   BACKBONE|DICT|INTERRES
   111   54  179 1    
   112   55   56 2    
   113   55   57 1    
   114   57   58 1    
   115   57   59 1    
   116   57  180 1    
   117   58  181 1    
   118   58  182 1    
   119   58  183 1    
   120   59   60 am   BACKBONE|DICT|INTERRES
   121   59  184 1    
   122   60   61 2    
   123   60   62 1    
   124   62   63 1    
   125   62   64 1    
   126   62  185 1    
   127   63  186 1    
   128   63  187 1    
   129   63  188 1    
   130   64   65 am   BACKBONE|DICT|INTERRES
   131   64  189 1    
   132   65   66 2    
   133   67   68 2    
   134   67   69 am   BACKBONE|DICT|INTERRES
   135   69   70 1    
   136   69  190 1    
   137   70   71 1    
   138   70   72 1    
   139   70  191 1    
   140   71  192 1    
   141   71  193 1    
   142   71  194 1    
   143   72   73 2    
   144   72   74 am   BACKBONE|DICT|INTERRES
   145   74   75 1    
   146   74  195 1    
   147   75   76 1    
   148   75   77 1    
   149   75  196 1    
   150   76  197 1    
   151   76  198 1    
   152   76  199 1    
   153   77   78 2    
   154   77   79 am   BACKBONE|DICT|INTERRES
   155   79   80 1    
   156   79  200 1    
   157   80   81 1    
   158   80   82 1    
   159   80  201 1    
   160   81  202 1    
   161   81  203 1    
   162   81  204 1    
   163   82   83 2    
   164   82   84 am   BACKBONE|DICT|INTERRES
   165   84   85 1    
   166   84  205 1    
   167   85   86 1    
   168   85   87 1    
   169   85  206 1    
   170   86  207 1    
   171   86  208 1    
   172   86  209 1    
   173   87   88 2    
   174   87   89 am   BACKBONE|DICT|INTERRES
   175   89   90 1    
   176   89  210 1    
   177   90   91 1    
   178   90   92 1    
   179   90  211 1    
   180   91  212 1    
   181   91  213 1    
   182   91  214 1    
   183   92   93 2    
   184   92   94 am   BACKBONE|DICT|INTERRES
   185   94   95 1    
   186   94  215 1    
   187   95   96 1    
   188   95   97 1    
   189   95  216 1    
   190   96  217 1    
   191   96  218 1    
   192   96  219 1    
   193   97   98 2    
   194   97   99 am   BACKBONE|DICT|INTERRES
   195   99  100 1    
   196   99  220 1    
   197  100  101 1    
   198  100  102 1    
   199  100  221 1    
   200  101  222 1    
   201  101  223 1    
   202  101  224 1    
   203  102  103 2    
   204  102  104 am   BACKBONE|DICT|INTERRES
   205  104  105 1    
   206  104  225 1    
   207  105  106 1    
   208  105  107 1    
   209  105  226 1    
   210  106  227 1    
   211  106  228 1    
   212  106  229 1    
   213  107  108 2    
   214  107  109 am   BACKBONE|DICT|INTERRES
   215  109  110 1    
   216  109  230 1    
   217  110  111 1    
   218  110  112 1    
   219  110  231 1    
   220  111  232 1    
   221  111  233 1    
   222  111  234 1    
   223  112  113 2    
   224  112  114 am   BACKBONE|DICT|INTERRES
   225  114  115 1    
   226  114  235 1    
   227  115  116 1    
   228  115  117 1    
   229  115  236 1    
   230  116  237 1    
   231  116  238 1    
   232  116  239 1    
   233  117  118 2    
   234  117  119 am   BACKBONE|DICT|INTERRES
   235  119  120 1    
   236  119  240 1    
   237  120  121 1    
   238  120  124 1    
   239  120  241 1    
   240  121  122 am   BACKBONE|DICT|INTERRES
   241  121  123 2    
   242  122  242 1    
   243  122  243 1    
   244  124  125 1    
   245  124  244 1    
   246  124  245 1    
   247  125  126 1    
   248  126  246 1    
   249  126  247 1    
@<TRIPOS>SUBSTRUCTURE
     1 UNK         1 GROUP             0       ****    0 ROOT    
