@<TRIPOS>MOLECULE
3R540
247   249    1
SMALL
USER_CHARGES


@<TRIPOS>ATOM
      1 CA         -6.2034  -15.4130  -46.5019 C.3       0 UNK        -0.1800 
      2 C          -5.0701  -14.4928  -46.9319 C.2       0 UNK         0.5000 
      3 O          -5.2563  -13.2774  -47.0060 O.2       0 UNK        -0.5000 
      4 N          -3.8921  -15.0644  -47.2071 N.am      1 UNK        -0.5000 
      5 CA         -2.6728  -14.3668  -47.6330 C.3       1 UNK         0.1400 
      6 C6         -1.7253  -15.3007  -48.4277 C.3       23 UNK        -0.0398 
      7 S7         -2.5113  -15.8761  -49.9738 S.3       23 UNK        -0.2404 
      8 C8         -1.5384  -15.0068  -51.2425 C.3       23 UNK        -0.0205 
      9 C9         -0.3899  -15.8713  -51.7360 C.ar      23 UNK        -0.0193 
     10 C10        -0.5274  -16.6068  -52.9161 C.ar      23 UNK        -0.1150 
     11 C11         0.5063  -17.4318  -53.3685 C.ar      23 UNK        -0.0193 
     12 C12         1.6854  -17.5209  -52.6206 C.ar      23 UNK        -0.1150 
     13 C13         1.8368  -16.7858  -51.4405 C.ar      23 UNK        -0.0193 
     14 C14         0.8001  -15.9545  -51.0091 C.ar      23 UNK        -0.1150 
     15 C15         3.1220  -16.8865  -50.6336 C.3       23 UNK        -0.0205 
     16 S16         3.2882  -18.4927  -49.7926 S.3       23 UNK        -0.2404 
     17 C17         2.0176  -18.4006  -48.4837 C.3       23 UNK        -0.0398 
     18 CA          1.2326  -19.7356  -48.3452 C.3       11 UNK         0.1400 
     19 N           1.2036  -20.2214  -46.9622 N.am      11 UNK        -0.5000 
     20 C           0.9552  -21.4900  -46.6065 C.2       10 UNK         0.5000 
     21 O           0.8065  -22.4055  -47.4146 O.2       10 UNK        -0.5000 
     22 CA          0.8321  -21.7953  -45.1009 C.3       10 UNK         0.1400 
     23 CB          2.1355  -22.4151  -44.5754 C.3       10 UNK        -0.1800 
     24 N           0.4888  -20.6269  -44.2862 N.am      10 UNK        -0.5000 
     25 C          -0.6758  -19.9661  -44.3427 C.2       9 UNK         0.5000 
     26 O          -1.6079  -20.2941  -45.0766 O.2       9 UNK        -0.5000 
     27 CA         -0.7897  -18.6840  -43.4964 C.3       9 UNK         0.1400 
     28 CB         -1.0852  -19.0160  -42.0268 C.3       9 UNK        -0.1800 
     29 N           0.4108  -17.8505  -43.5766 N.am      9 UNK        -0.5000 
     30 C           0.8808  -17.2932  -44.7028 C.2       8 UNK         0.5000 
     31 O           0.3403  -17.4053  -45.8030 O.2       8 UNK        -0.5000 
     32 CA          2.2172  -16.5429  -44.5838 C.3       8 UNK         0.1400 
     33 CB          2.0165  -15.1392  -43.9892 C.3       8 UNK        -0.1800 
     34 N           3.1755  -17.2944  -43.7717 N.am      8 UNK        -0.5000 
     35 C           3.7948  -18.4129  -44.1780 C.2       7 UNK         0.5000 
     36 O           3.6580  -18.9002  -45.2991 O.2       7 UNK        -0.5000 
     37 CA          4.6968  -19.1237  -43.1514 C.3       7 UNK         0.1400 
     38 CB          6.1114  -18.5257  -43.1711 C.3       7 UNK        -0.1800 
     39 N           4.1682  -19.0661  -41.7879 N.am      7 UNK        -0.5000 
     40 C           3.0390  -19.6650  -41.3835 C.2       6 UNK         0.5000 
     41 O           2.3324  -20.3560  -42.1144 O.2       6 UNK        -0.5000 
     42 CA          2.5931  -19.3975  -39.9340 C.3       6 UNK         0.1400 
     43 CB          3.2392  -20.4080  -38.9751 C.3       6 UNK        -0.1800 
     44 N           2.8870  -18.0354  -39.4787 N.am      6 UNK        -0.5000 
     45 C           2.4131  -16.9238  -40.0544 C.2       5 UNK         0.5000 
     46 O           1.6813  -16.9244  -41.0514 O.2       5 UNK        -0.5000 
     47 CA          2.8728  -15.5928  -39.4464 C.3       5 UNK         0.1400 
     48 CB          4.3146  -15.2623  -39.8678 C.3       5 UNK        -0.1800 
     49 N           1.9787  -14.5565  -39.9353 N.am      5 UNK        -0.5000 
     50 C           1.5608  -13.4779  -39.2689 C.2       4 UNK         0.5000 
     51 O           1.9729  -13.1576  -38.1532 O.2       4 UNK        -0.5000 
     52 CA          0.4937  -12.6121  -39.9688 C.3       4 UNK         0.1400 
     53 CB          1.1257  -11.3313  -40.5357 C.3       4 UNK        -0.1800 
     54 N          -0.2000  -13.3101  -41.0560 N.am      4 UNK        -0.5000 
     55 C          -1.1021  -14.2904  -40.8997 C.2       3 UNK         0.5000 
     56 O          -1.4487  -14.7250  -39.8005 O.2       3 UNK        -0.5000 
     57 CA         -1.6983  -14.8829  -42.1965 C.3       3 UNK         0.1400 
     58 CB         -3.0676  -15.5587  -41.9811 C.3       3 UNK        -0.1800 
     59 N          -1.7669  -13.9211  -43.3035 N.am      3 UNK        -0.5000 
     60 C          -2.4232  -12.7519  -43.3355 C.2       2 UNK         0.5000 
     61 O          -3.0893  -12.3080  -42.4001 O.2       2 UNK        -0.5000 
     62 CA         -2.3196  -11.9355  -44.6370 C.3       2 UNK         0.1400 
     63 CB         -0.9506  -11.2366  -44.7525 C.3       2 UNK        -0.1800 
     64 N          -2.6458  -12.7048  -45.8438 N.am      2 UNK        -0.5000 
     65 C          -1.9829  -13.7199  -46.4144 C.2       1 UNK         0.5000 
     66 O          -0.9180  -14.1692  -45.9884 O.2       1 UNK        -0.5000 
     67 C          -0.1856  -19.6537  -48.9533 C.2       11 UNK         0.5000 
     68 O          -0.3196  -19.7622  -50.1704 O.2       11 UNK        -0.5000 
     69 N          -1.2148  -19.5120  -48.1026 N.am      12 UNK        -0.5000 
     70 CA         -2.6162  -19.6760  -48.4819 C.3       12 UNK         0.1400 
     71 CB         -3.5135  -18.7929  -47.6006 C.3       12 UNK        -0.1800 
     72 C          -3.0313  -21.1512  -48.3849 C.2       12 UNK         0.5000 
     73 O          -3.5115  -21.7126  -49.3709 O.2       12 UNK        -0.5000 
     74 N          -2.8039  -21.7433  -47.2030 N.am      13 UNK        -0.5000 
     75 CA         -3.1745  -23.0963  -46.7781 C.3       13 UNK         0.1400 
     76 CB         -2.4931  -24.1634  -47.6596 C.3       13 UNK        -0.1800 
     77 C          -4.7000  -23.3133  -46.6799 C.2       13 UNK         0.5000 
     78 O          -5.4921  -22.4030  -46.9423 O.2       13 UNK        -0.5000 
     79 N          -5.0876  -24.5285  -46.2687 N.am      14 UNK        -0.5000 
     80 CA         -6.4764  -24.9737  -46.1509 C.3       14 UNK         0.1400 
     81 CB         -6.5047  -26.3953  -45.5698 C.3       14 UNK        -0.1800 
     82 C          -7.1994  -24.9280  -47.5081 C.2       14 UNK         0.5000 
     83 O          -6.6366  -25.3723  -48.5110 O.2       14 UNK        -0.5000 
     84 N          -8.4102  -24.3531  -47.5155 N.am      15 UNK        -0.5000 
     85 CA         -9.2745  -24.1314  -48.6844 C.3       15 UNK         0.1400 
     86 CB         -9.7987  -25.4785  -49.2253 C.3       15 UNK        -0.1800 
     87 C          -8.6316  -23.2644  -49.7935 C.2       15 UNK         0.5000 
     88 O          -9.0652  -23.3338  -50.9446 O.2       15 UNK        -0.5000 
     89 N          -7.6064  -22.4754  -49.4300 N.am      16 UNK        -0.5000 
     90 CA         -6.7584  -21.6580  -50.3038 C.3       16 UNK         0.1400 
     91 CB         -7.5734  -20.5172  -50.9496 C.3       16 UNK        -0.1800 
     92 C          -5.9643  -22.4904  -51.3379 C.2       16 UNK         0.5000 
     93 O          -5.6521  -21.9859  -52.4174 O.2       16 UNK        -0.5000 
     94 N          -5.6529  -23.7529  -51.0046 N.am      17 UNK        -0.5000 
     95 CA         -5.0108  -24.7158  -51.9012 C.3       17 UNK         0.1400 
     96 CB         -4.9705  -26.0945  -51.2268 C.3       17 UNK        -0.1800 
     97 C          -3.6035  -24.3057  -52.3699 C.2       17 UNK         0.5000 
     98 O          -3.2834  -24.4883  -53.5454 O.2       17 UNK        -0.5000 
     99 N          -2.7935  -23.7403  -51.4643 N.am      18 UNK        -0.5000 
    100 CA        -1.4478  -23.2664  -51.7890 C.3       18 UNK         0.1400 
    101 CB        -0.5779  -23.1860  -50.5280 C.3       18 UNK        -0.1800 
    102 C         -1.4816  -21.9301  -52.5459 C.2       18 UNK         0.5000 
    103 O         -0.6427  -21.7295  -53.4231 O.2       18 UNK        -0.5000 
    104 N         -2.4789  -21.0804  -52.2529 N.am      19 UNK        -0.5000 
    105 CA        -2.7472  -19.8449  -52.9926 C.3       19 UNK         0.1400 
    106 CB        -3.7872  -18.9832  -52.2602 C.3       19 UNK        -0.1800 
    107 C         -3.1796  -20.1116  -54.4458 C.2       19 UNK         0.5000 
    108 O         -2.7575  -19.3895  -55.3486 O.2       19 UNK        -0.5000 
    109 N         -3.9970  -21.1534  -54.6470 N.am      20 UNK        -0.5000 
    110 CA        -4.4313  -21.6219  -55.9610 C.3       20 UNK         0.1400 
    111 CB        -5.5762  -22.6320  -55.7886 C.3       20 UNK        -0.1800 
    112 C         -3.2806  -22.2307  -56.7846 C.2       20 UNK         0.5000 
    113 O         -3.1950  -21.9703  -57.9854 O.2       20 UNK        -0.5000 
    114 N         -2.4250  -23.0297  -56.1317 N.am      21 UNK        -0.5000 
    115 CA        -1.2820  -23.6969  -56.7539 C.3       21 UNK         0.1400 
    116 CB        -0.8113  -24.8495  -55.8516 C.3       21 UNK        -0.1800 
    117 C         -0.1256  -22.7287  -57.0658 C.2       21 UNK         0.5000 
    118 O          0.2935  -22.6290  -58.2194 O.2       21 UNK        -0.5000 
    119 N          0.3727  -22.0479  -56.0262 N.am      22 UNK        -0.5000 
    120 CA         1.5178  -21.1218  -56.0429 C.3       22 UNK         0.1400 
    121 C          2.8888  -21.7409  -56.4605 C.2       22 UNK         0.5000 
    122 N          3.0683  -23.0537  -56.3778 N.am      22 UNK        -0.7600 
    123 O          3.8156  -21.0288  -56.8377 O.2       22 UNK        -0.5000 
    124 C124        1.1849  -19.7767  -56.7566 C.3       23 UNK        -0.0398 
    125 S125        1.7032  -18.3349  -55.7611 S.3       23 UNK        -0.2404 
    126 C126        0.2905  -18.2828  -54.6135 C.3       23 UNK        -0.0205 
    127 H127       -7.0477  -15.3115  -47.1836 H         1 UNK         0.0600 
    128 H128       -6.5395  -15.1501  -45.4989 H         1 UNK         0.0600 
    129 H129       -5.8961  -16.4592  -46.4949 H         1 UNK         0.0600 
    130 H130       -3.8017  -16.0643  -47.1117 H         1 UNK         0.3000 
    131 H131       -2.9553  -13.5500  -48.3013 H         1 UNK         0.0600 
    132 H132       -1.4408  -16.1701  -47.8320 H         1 UNK         0.0800 
    133 H133       -0.7943  -14.7839  -48.6614 H         1 UNK         0.0800 
    134 H134       -1.1655  -14.0552  -50.8615 H         1 UNK         0.0800 
    135 H135       -2.2000  -14.7573  -52.0734 H         1 UNK         0.0800 
    136 H136       -1.4539  -16.5550  -53.4709 H         1 UNK         0.1150 
    137 H137        2.4809  -18.1765  -52.9453 H         1 UNK         0.1150 
    138 H138        0.9140  -15.3857  -50.0981 H         1 UNK         0.1150 
    139 H139        3.9719  -16.7530  -51.3044 H         1 UNK         0.0800 
    140 H140        3.1873  -16.0842  -49.8969 H         1 UNK         0.0800 
    141 H141        1.3531  -17.5518  -48.6540 H         1 UNK         0.0800 
    142 H142        2.5453  -18.1626  -47.5605 H         1 UNK         0.0800 
    143 H143        1.7542  -20.5037  -48.9209 H         1 UNK         0.0600 
    144 H144        1.3318  -19.5280  -46.2376 H         1 UNK         0.3000 
    145 H145        0.0334  -22.5308  -44.9841 H         1 UNK         0.0600 
    146 H146        2.0325  -22.7276  -43.5362 H         1 UNK         0.0600 
    147 H147        2.4119  -23.2980  -45.1532 H         1 UNK         0.0600 
    148 H148        2.9654  -21.7099  -44.6337 H         1 UNK         0.0600 
    149 H149        1.1899  -20.3301  -43.6115 H         1 UNK         0.3000 
    150 H150       -1.6244  -18.0990  -43.8885 H         1 UNK         0.0600 
    151 H151       -2.0212  -19.5678  -41.9334 H         1 UNK         0.0600 
    152 H152       -1.1776  -18.1111  -41.4262 H         1 UNK         0.0600 
    153 H153       -0.2985  -19.6280  -41.5858 H         1 UNK         0.0600 
    154 H154        0.9217  -17.7002  -42.7119 H         1 UNK         0.3000 
    155 H155        2.6305  -16.4273  -45.5881 H         1 UNK         0.0600 
    156 H156        1.5563  -15.1728  -43.0029 H         1 UNK         0.0600 
    157 H157        1.3713  -14.5371  -44.6292 H         1 UNK         0.0600 
    158 H158        2.9651  -14.6099  -43.8984 H         1 UNK         0.0600 
    159 H159        3.2944  -16.9946  -42.8153 H         1 UNK         0.3000 
    160 H160        4.7657  -20.1740  -43.4424 H         1 UNK         0.0600 
    161 H161        6.1121  -17.4800  -42.8609 H         1 UNK         0.0600 
    162 H162        6.5402  -18.5714  -44.1732 H         1 UNK         0.0600 
    163 H163        6.7806  -19.0738  -42.5076 H         1 UNK         0.0600 
    164 H164        4.6861  -18.5156  -41.1193 H         1 UNK         0.3000 
    165 H165        1.5106  -19.5331  -39.8930 H         1 UNK         0.0600 
    166 H166        2.8611  -20.2861  -37.9599 H         1 UNK         0.0600 
    167 H167        3.0194  -21.4318  -39.2811 H         1 UNK         0.0600 
    168 H168        4.3241  -20.2998  -38.9455 H         1 UNK         0.0600 
    169 H169        3.4873  -17.9520  -38.6708 H         1 UNK         0.3000 
    170 H170        2.8058  -15.6648  -38.3588 H         1 UNK         0.0600 
    171 H171        5.0144  -16.0184  -39.5102 H         1 UNK         0.0600 
    172 H172        4.4142  -15.2062  -40.9527 H         1 UNK         0.0600 
    173 H173        4.6344  -14.3055  -39.4546 H         1 UNK         0.0600 
    174 H174        1.5290  -14.7866  -40.8109 H         1 UNK         0.3000 
    175 H175       -0.2448  -12.3280  -39.2163 H         1 UNK         0.0600 
    176 H176        1.8689  -11.5545  -41.3023 H         1 UNK         0.0600 
    177 H177        0.3707  -10.6809  -40.9781 H         1 UNK         0.0600 
    178 H178        1.6246  -10.7608  -39.7510 H         1 UNK         0.0600 
    179 H179        0.0135  -13.0062  -41.9943 H         1 UNK         0.3000 
    180 H180       -0.9998  -15.6572  -42.5133 H         1 UNK         0.0600 
    181 H181       -3.4384  -15.9983  -42.9072 H         1 UNK         0.0600 
    182 H182       -3.8153  -14.8513  -41.6219 H         1 UNK         0.0600 
    183 H183       -2.9993  -16.3625  -41.2474 H         1 UNK         0.0600 
    184 H184       -1.2725  -14.1799  -44.1549 H         1 UNK         0.3000 
    185 H185       -3.0780  -11.1532  -44.5769 H         1 UNK         0.0600 
    186 H186       -0.7729  -10.5895  -43.8926 H         1 UNK         0.0600 
    187 H187       -0.1251  -11.9473  -44.7976 H         1 UNK         0.0600 
    188 H188       -0.9027  -10.6116  -45.6441 H         1 UNK         0.0600 
    189 H189       -3.5594  -12.5021  -46.2392 H         1 UNK         0.3000 
    190 H190       -1.0177  -19.4485  -47.1125 H         1 UNK         0.3000 
    191 H191       -2.7493  -19.3581  -49.5139 H         1 UNK         0.0600 
    192 H192       -4.5613  -18.9013  -47.8837 H         1 UNK         0.0600 
    193 H193       -3.2540  -17.7440  -47.7137 H         1 UNK         0.0600 
    194 H194       -3.4324  -19.0434  -46.5430 H         1 UNK         0.0600 
    195 H195       -2.4146  -21.1665  -46.4602 H         1 UNK         0.3000 
    196 H196       -2.7812  -23.1991  -45.7657 H         1 UNK         0.0600 
    197 H197       -2.9290  -24.2063  -48.6569 H         1 UNK         0.0600 
    198 H198       -1.4273  -23.9633  -47.7625 H         1 UNK         0.0600 
    199 H199       -2.5858  -25.1585  -47.2245 H         1 UNK         0.0600 
    200 H200       -4.3829  -25.2278  -46.0885 H         1 UNK         0.3000 
    201 H201       -6.9829  -24.3041  -45.4526 H         1 UNK         0.0600 
    202 H202       -5.9873  -27.1048  -46.2172 H         1 UNK         0.0600 
    203 H203       -7.5301  -26.7477  -45.4507 H         1 UNK         0.0600 
    204 H204       -6.0336  -26.4307  -44.5873 H         1 UNK         0.0600 
    205 H205       -8.7743  -23.9986  -46.6416 H         1 UNK         0.3000 
    206 H206      -10.1339  -23.5646  -48.3237 H         1 UNK         0.0600 
    207 H207      -10.2534  -26.0722  -48.4324 H         1 UNK         0.0600 
    208 H208      -10.5611  -25.3255  -49.9900 H         1 UNK         0.0600 
    209 H209       -9.0013  -26.0720  -49.6738 H         1 UNK         0.0600 
    210 H210       -7.3083  -22.5091  -48.4629 H         1 UNK         0.3000 
    211 H211       -6.0202  -21.1941  -49.6506 H         1 UNK         0.0600 
    212 H212       -6.9232  -19.8103  -51.4644 H         1 UNK         0.0600 
    213 H213       -8.1282  -19.9549  -50.1987 H         1 UNK         0.0600 
    214 H214       -8.2865  -20.8925  -51.6838 H         1 UNK         0.0600 
    215 H215       -5.9540  -24.1087  -50.1042 H         1 UNK         0.3000 
    216 H216       -5.6370  -24.7961  -52.7921 H         1 UNK         0.0600 
    217 H217       -4.4126  -26.0673  -50.2897 H         1 UNK         0.0600 
    218 H218       -4.4958  -26.8345  -51.8726 H         1 UNK         0.0600 
    219 H219       -5.9760  -26.4540  -51.0069 H         1 UNK         0.0600 
    220 H220       -3.1550  -23.5101  -50.5466 H         1 UNK         0.3000 
    221 H221       -0.9774  -23.9982  -52.4492 H         1 UNK         0.0600 
    222 H222       -0.4827  -24.1615  -50.0517 H         1 UNK         0.0600 
    223 H223       -0.9821  -22.4918  -49.7953 H         1 UNK         0.0600 
    224 H224        0.4287  -22.8440  -50.7713 H         1 UNK         0.0600 
    225 H225       -3.1160  -21.3249  -51.5054 H         1 UNK         0.3000 
    226 H226       -1.8216  -19.2722  -53.0233 H         1 UNK         0.0600 
    227 H227       -4.6259  -19.5745  -51.8976 H         1 UNK         0.0600 
    228 H228       -3.3392  -18.4702  -51.4124 H         1 UNK         0.0600 
    229 H229       -4.1885  -18.2056  -52.9115 H         1 UNK         0.0600 
    230 H230       -4.3732  -21.6402  -53.8380 H         1 UNK         0.3000 
    231 H231       -4.8189  -20.7635  -56.5135 H         1 UNK         0.0600 
    232 H232       -5.2610  -23.5064  -55.2186 H         1 UNK         0.0600 
    233 H233       -5.9375  -22.9823  -56.7562 H         1 UNK         0.0600 
    234 H234       -6.4220  -22.1828  -55.2677 H         1 UNK         0.0600 
    235 H235       -2.5965  -23.2318  -55.1537 H         1 UNK         0.3000 
    236 H236       -1.6134  -24.1325  -57.6990 H         1 UNK         0.0600 
    237 H237       -1.6035  -25.5852  -55.7110 H         1 UNK         0.0600 
    238 H238        0.0400  -25.3697  -56.2924 H         1 UNK         0.0600 
    239 H239       -0.5090  -24.4969  -54.8651 H         1 UNK         0.0600 
    240 H240       -0.0663  -22.1512  -55.1136 H         1 UNK         0.3000 
    241 H241        1.6651  -20.9120  -54.9832 H         1 UNK         0.0600 
    242 H242        3.9574  -23.4499  -56.6400 H         1 UNK         0.3800 
    243 H243        2.3264  -23.6544  -56.0572 H         1 UNK         0.3800 
    244 H244        0.1122  -19.6874  -56.9372 H         1 UNK         0.0800 
    245 H245        1.6455  -19.7196  -57.7441 H         1 UNK         0.0800 
    246 H246       -0.5795  -17.9304  -55.1688 H         1 UNK         0.0800 
    247 H247        0.0643  -19.2966  -54.2863 H         1 UNK         0.0800 
@<TRIPOS>BOND
     1    1    2 1    
     2    1  127 1    
     3    1  128 1    
     4    1  129 1    
     5    2    3 2    
     6    2    4 am   BACKBONE|DICT|INTERRES
     7    4    5 1    
     8    4  130 1    
     9    5    6 1    
    10    5   65 1    
    11    5  131 1    
    12    6    7 1    
    13    6  132 1    
    14    6  133 1    
    15    7    8 1    
    16    8    9 1    
    17    8  134 1    
    18    8  135 1    
    19    9   10 ar   
    20    9   14 ar   
    21   10   11 ar   
    22   10  136 1    
    23   11   12 ar   
    24   11  126 1    
    25   12   13 ar   
    26   12  137 1    
    27   13   14 ar   
    28   13   15 1    
    29   14  138 1    
    30   15   16 1    
    31   15  139 1    
    32   15  140 1    
    33   16   17 1    
    34   17   18 1    
    35   17  141 1    
    36   17  142 1    
    37   18   19 1    
    38   18   67 1    
    39   18  143 1    
    40   19   20 am   BACKBONE|DICT|INTERRES
    41   19  144 1    
    42   20   21 2    
    43   20   22 1    
    44   22   23 1    
    45   22   24 1    
    46   22  145 1    
    47   23  146 1    
    48   23  147 1    
    49   23  148 1    
    50   24   25 am   BACKBONE|DICT|INTERRES
    51   24  149 1    
    52   25   26 2    
    53   25   27 1    
    54   27   28 1    
    55   27   29 1    
    56   27  150 1    
    57   28  151 1    
    58   28  152 1    
    59   28  153 1    
    60   29   30 am   BACKBONE|DICT|INTERRES
    61   29  154 1    
    62   30   31 2    
    63   30   32 1    
    64   32   33 1    
    65   32   34 1    
    66   32  155 1    
    67   33  156 1    
    68   33  157 1    
    69   33  158 1    
    70   34   35 am   BACKBONE|DICT|INTERRES
    71   34  159 1    
    72   35   36 2    
    73   35   37 1    
    74   37   38 1    
    75   37   39 1    
    76   37  160 1    
    77   38  161 1    
    78   38  162 1    
    79   38  163 1    
    80   39   40 am   BACKBONE|DICT|INTERRES
    81   39  164 1    
    82   40   41 2    
    83   40   42 1    
    84   42   43 1    
    85   42   44 1    
    86   42  165 1    
    87   43  166 1    
    88   43  167 1    
    89   43  168 1    
    90   44   45 am   BACKBONE|DICT|INTERRES
    91   44  169 1    
    92   45   46 2    
    93   45   47 1    
    94   47   48 1    
    95   47   49 1    
    96   47  170 1    
    97   48  171 1    
    98   48  172 1    
    99   48  173 1    
   100   49   50 am   BACKBONE|DICT|INTERRES
   101   49  174 1    
   102   50   51 2    
   103   50   52 1    
   104   52   53 1    
   105   52   54 1    
   106   52  175 1    
   107   53  176 1    
   108   53  177 1    
   109   53  178 1    
   110   54   55 am   BACKBONE|DICT|INTERRES
   111   54  179 1    
   112   55   56 2    
   113   55   57 1    
   114   57   58 1    
   115   57   59 1    
   116   57  180 1    
   117   58  181 1    
   118   58  182 1    
   119   58  183 1    
   120   59   60 am   BACKBONE|DICT|INTERRES
   121   59  184 1    
   122   60   61 2    
   123   60   62 1    
   124   62   63 1    
   125   62   64 1    
   126   62  185 1    
   127   63  186 1    
   128   63  187 1    
   129   63  188 1    
   130   64   65 am   BACKBONE|DICT|INTERRES
   131   64  189 1    
   132   65   66 2    
   133   67   68 2    
   134   67   69 am   BACKBONE|DICT|INTERRES
   135   69   70 1    
   136   69  190 1    
   137   70   71 1    
   138   70   72 1    
   139   70  191 1    
   140   71  192 1    
   141   71  193 1    
   142   71  194 1    
   143   72   73 2    
   144   72   74 am   BACKBONE|DICT|INTERRES
   145   74   75 1    
   146   74  195 1    
   147   75   76 1    
   148   75   77 1    
   149   75  196 1    
   150   76  197 1    
   151   76  198 1    
   152   76  199 1    
   153   77   78 2    
   154   77   79 am   BACKBONE|DICT|INTERRES
   155   79   80 1    
   156   79  200 1    
   157   80   81 1    
   158   80   82 1    
   159   80  201 1    
   160   81  202 1    
   161   81  203 1    
   162   81  204 1    
   163   82   83 2    
   164   82   84 am   BACKBONE|DICT|INTERRES
   165   84   85 1    
   166   84  205 1    
   167   85   86 1    
   168   85   87 1    
   169   85  206 1    
   170   86  207 1    
   171   86  208 1    
   172   86  209 1    
   173   87   88 2    
   174   87   89 am   BACKBONE|DICT|INTERRES
   175   89   90 1    
   176   89  210 1    
   177   90   91 1    
   178   90   92 1    
   179   90  211 1    
   180   91  212 1    
   181   91  213 1    
   182   91  214 1    
   183   92   93 2    
   184   92   94 am   BACKBONE|DICT|INTERRES
   185   94   95 1    
   186   94  215 1    
   187   95   96 1    
   188   95   97 1    
   189   95  216 1    
   190   96  217 1    
   191   96  218 1    
   192   96  219 1    
   193   97   98 2    
   194   97   99 am   BACKBONE|DICT|INTERRES
   195   99  100 1    
   196   99  220 1    
   197  100  101 1    
   198  100  102 1    
   199  100  221 1    
   200  101  222 1    
   201  101  223 1    
   202  101  224 1    
   203  102  103 2    
   204  102  104 am   BACKBONE|DICT|INTERRES
   205  104  105 1    
   206  104  225 1    
   207  105  106 1    
   208  105  107 1    
   209  105  226 1    
   210  106  227 1    
   211  106  228 1    
   212  106  229 1    
   213  107  108 2    
   214  107  109 am   BACKBONE|DICT|INTERRES
   215  109  110 1    
   216  109  230 1    
   217  110  111 1    
   218  110  112 1    
   219  110  231 1    
   220  111  232 1    
   221  111  233 1    
   222  111  234 1    
   223  112  113 2    
   224  112  114 am   BACKBONE|DICT|INTERRES
   225  114  115 1    
   226  114  235 1    
   227  115  116 1    
   228  115  117 1    
   229  115  236 1    
   230  116  237 1    
   231  116  238 1    
   232  116  239 1    
   233  117  118 2    
   234  117  119 am   BACKBONE|DICT|INTERRES
   235  119  120 1    
   236  119  240 1    
   237  120  121 1    
   238  120  124 1    
   239  120  241 1    
   240  121  122 am   BACKBONE|DICT|INTERRES
   241  121  123 2    
   242  122  242 1    
   243  122  243 1    
   244  124  125 1    
   245  124  244 1    
   246  124  245 1    
   247  125  126 1    
   248  126  246 1    
   249  126  247 1    
@<TRIPOS>SUBSTRUCTURE
     1 UNK         1 GROUP             0       ****    0 ROOT    
