@<TRIPOS>MOLECULE
3R540
247   249    1
SMALL
USER_CHARGES


@<TRIPOS>ATOM
      1 CA         -5.3075  -16.0944  -45.9678 C.3       0 UNK        -0.1800 
      2 C          -4.1618  -15.1077  -46.1372 C.2       0 UNK         0.5000 
      3 O          -4.3933  -13.9450  -46.4712 O.2       0 UNK        -0.5000 
      4 N          -2.9260  -15.5586  -45.8917 N.am      1 UNK        -0.5000 
      5 CA         -1.6894  -14.7729  -45.9886 C.3       1 UNK         0.1400 
      6 C6         -0.4522  -15.6753  -46.2246 C.3       23 UNK        -0.0398 
      7 S7         -0.5879  -16.7240  -47.7094 S.3       23 UNK        -0.2404 
      8 C8          0.3363  -15.7437  -48.9291 C.3       23 UNK        -0.0205 
      9 C9          0.7246  -16.5892  -50.1312 C.ar      23 UNK        -0.0193 
     10 C10        -0.1303  -16.7033  -51.2321 C.ar      23 UNK        -0.1150 
     11 C11         0.2410  -17.4716  -52.3409 C.ar      23 UNK        -0.0193 
     12 C12         1.4805  -18.1180  -52.3449 C.ar      23 UNK        -0.1150 
     13 C13         2.3304  -18.0332  -51.2403 C.ar      23 UNK        -0.0193 
     14 C14         1.9515  -17.2577  -50.1410 C.ar      23 UNK        -0.1150 
     15 C15         3.6544  -18.7844  -51.2335 C.3       23 UNK        -0.0205 
     16 S16         3.4316  -20.5768  -50.9803 S.3       23 UNK        -0.2404 
     17 C17         2.7367  -20.6234  -49.2927 C.3       23 UNK        -0.0398 
     18 CA          1.8522  -21.8592  -48.9938 C.3       11 UNK         0.1400 
     19 N           1.6898  -22.0008  -47.5478 N.am      11 UNK        -0.5000 
     20 C           1.4130  -23.1436  -46.9088 C.2       10 UNK         0.5000 
     21 O           1.3522  -24.2373  -47.4685 O.2       10 UNK        -0.5000 
     22 CA          1.1455  -23.0525  -45.3919 C.3       10 UNK         0.1400 
     23 CB          2.3742  -23.5213  -44.5989 C.3       10 UNK        -0.1800 
     24 N           0.7731  -21.7092  -44.9347 N.am      10 UNK        -0.5000 
     25 C          -0.3293  -21.0423  -45.3074 C.2       9 UNK         0.5000 
     26 O          -1.1995  -21.5233  -46.0311 O.2       9 UNK        -0.5000 
     27 CA         -0.4692  -19.5787  -44.8510 C.3       9 UNK         0.1400 
     28 CB         -1.4233  -19.4773  -43.6540 C.3       9 UNK        -0.1800 
     29 N           0.8032  -18.9266  -44.5280 N.am      9 UNK        -0.5000 
     30 C           1.8053  -18.7368  -45.4000 C.2       8 UNK         0.5000 
     31 O           1.7846  -19.1453  -46.5606 O.2       8 UNK        -0.5000 
     32 CA          3.0527  -18.0014  -44.8865 C.3       8 UNK         0.1400 
     33 CB          2.9688  -16.5056  -45.2225 C.3       8 UNK        -0.1800 
     34 N           3.2896  -18.1680  -43.4499 N.am      8 UNK        -0.5000 
     35 C           3.6818  -19.3167  -42.8810 C.2       7 UNK         0.5000 
     36 O           3.7598  -20.3822  -43.4936 O.2       7 UNK        -0.5000 
     37 CA          4.0589  -19.2792  -41.3925 C.3       7 UNK         0.1400 
     38 CB          5.4667  -18.6907  -41.2036 C.3       7 UNK        -0.1800 
     39 N           3.1026  -18.5165  -40.5887 N.am      7 UNK        -0.5000 
     40 C           2.6187  -18.9253  -39.4056 C.2       6 UNK         0.5000 
     41 O           2.9123  -20.0028  -38.8852 O.2       6 UNK        -0.5000 
     42 CA          1.6554  -17.9821  -38.6526 C.3       6 UNK         0.1400 
     43 CB          2.3942  -17.2615  -37.5140 C.3       6 UNK        -0.1800 
     44 N           1.0189  -16.9788  -39.5045 N.am      6 UNK        -0.5000 
     45 C           0.1290  -17.2423  -40.4688 C.2       5 UNK         0.5000 
     46 O          -0.3182  -18.3664  -40.6924 O.2       5 UNK        -0.5000 
     47 CA         -0.3126  -16.0639  -41.3583 C.3       5 UNK         0.1400 
     48 CB         -1.7266  -15.6035  -40.9760 C.3       5 UNK        -0.1800 
     49 N           0.5855  -14.9012  -41.3633 N.am      5 UNK        -0.5000 
     50 C           1.8712  -14.9062  -41.7427 C.2       4 UNK         0.5000 
     51 O           2.5063  -15.9388  -41.9681 O.2       4 UNK        -0.5000 
     52 CA          2.5440  -13.5334  -41.9065 C.3       4 UNK         0.1400 
     53 CB          3.8821  -13.6114  -42.6705 C.3       4 UNK        -0.1800 
     54 N           1.6392  -12.5910  -42.5689 N.am      4 UNK        -0.5000 
     55 C           1.7308  -11.2569  -42.4719 C.2       3 UNK         0.5000 
     56 O           2.5604  -10.6845  -41.7633 O.2       3 UNK        -0.5000 
     57 CA          0.7525  -10.4023  -43.3058 C.3       3 UNK         0.1400 
     58 CB          1.4239   -9.9477  -44.6110 C.3       3 UNK        -0.1800 
     59 N          -0.5041  -11.0751  -43.6344 N.am      3 UNK        -0.5000 
     60 C          -1.4488  -11.4147  -42.7486 C.2       2 UNK         0.5000 
     61 O          -1.3783  -11.1585  -41.5461 O.2       2 UNK        -0.5000 
     62 CA         -2.6753  -12.1825  -43.2836 C.3       2 UNK         0.1400 
     63 CB         -3.8419  -11.2129  -43.5269 C.3       2 UNK        -0.1800 
     64 N          -2.4728  -12.9829  -44.4992 N.am      2 UNK        -0.5000 
     65 C          -1.5123  -13.8878  -44.7341 C.2       1 UNK         0.5000 
     66 O          -0.5403  -14.0554  -43.9979 O.2       1 UNK        -0.5000 
     67 C           0.4862  -21.7847  -49.7217 C.2       11 UNK         0.5000 
     68 O           0.4382  -22.0288  -50.9276 O.2       11 UNK        -0.5000 
     69 N          -0.5936  -21.4505  -48.9988 N.am      12 UNK        -0.5000 
     70 CA         -1.8999  -21.1335  -49.5646 C.3       12 UNK         0.1400 
     71 CB         -1.9998  -19.6093  -49.7642 C.3       12 UNK        -0.1800 
     72 C          -3.0208  -21.7238  -48.6936 C.2       12 UNK         0.5000 
     73 O          -3.2802  -22.9258  -48.7704 O.2       12 UNK        -0.5000 
     74 N          -3.6816  -20.8662  -47.9045 N.am      13 UNK        -0.5000 
     75 CA         -4.9275  -21.1242  -47.1821 C.3       13 UNK         0.1400 
     76 CB         -5.3266  -19.8538  -46.4173 C.3       13 UNK        -0.1800 
     77 C          -4.9193  -22.3359  -46.2334 C.2       13 UNK         0.5000 
     78 O          -5.9217  -23.0477  -46.1708 O.2       13 UNK        -0.5000 
     79 N          -3.8033  -22.5770  -45.5322 N.am      14 UNK        -0.5000 
     80 CA         -3.6670  -23.6989  -44.5960 C.3       14 UNK         0.1400 
     81 CB         -2.5658  -23.3968  -43.5698 C.3       14 UNK        -0.1800 
     82 C          -3.4162  -25.0422  -45.3087 C.2       14 UNK         0.5000 
     83 O          -3.6730  -26.0928  -44.7204 O.2       14 UNK        -0.5000 
     84 N          -2.9637  -24.9885  -46.5690 N.am      15 UNK        -0.5000 
     85 CA         -2.8758  -26.1331  -47.4784 C.3       15 UNK         0.1400 
     86 CB         -1.6430  -25.9545  -48.3799 C.3       15 UNK        -0.1800 
     87 C          -4.1594  -26.3008  -48.3210 C.2       15 UNK         0.5000 
     88 O          -4.2270  -27.2226  -49.1347 O.2       15 UNK        -0.5000 
     89 N          -5.1418  -25.4064  -48.1226 N.am      16 UNK        -0.5000 
     90 CA         -6.4182  -25.2865  -48.8337 C.3       16 UNK         0.1400 
     91 CB         -7.2981  -26.5340  -48.6091 C.3       16 UNK        -0.1800 
     92 C          -6.2639  -24.9171  -50.3250 C.2       16 UNK         0.5000 
     93 O          -7.1644  -25.1973  -51.1186 O.2       16 UNK        -0.5000 
     94 N          -5.1409  -24.2819  -50.6847 N.am      17 UNK        -0.5000 
     95 CA         -4.8692  -23.7905  -52.0306 C.3       17 UNK         0.1400 
     96 CB         -3.3607  -23.8821  -52.3123 C.3       17 UNK        -0.1800 
     97 C          -5.3852  -22.3500  -52.1706 C.2       17 UNK         0.5000 
     98 O          -5.0408  -21.4921  -51.3549 O.2       17 UNK        -0.5000 
     99 N          -6.1978  -22.1152  -53.2067 N.am      18 UNK        -0.5000 
    100 CA        -6.6691  -20.7927  -53.6192 C.3       18 UNK         0.1400 
    101 CB        -7.8860  -20.9816  -54.5404 C.3       18 UNK        -0.1800 
    102 C         -5.5617  -20.0065  -54.3463 C.2       18 UNK         0.5000 
    103 O         -4.5385  -20.5881  -54.7128 O.2       18 UNK        -0.5000 
    104 N         -5.8089  -18.7135  -54.6018 N.am      19 UNK        -0.5000 
    105 CA        -4.8968  -17.7882  -55.2899 C.3       19 UNK         0.1400 
    106 CB        -5.5839  -16.4230  -55.4444 C.3       19 UNK        -0.1800 
    107 C         -4.3906  -18.2935  -56.6568 C.2       19 UNK         0.5000 
    108 O         -3.2125  -18.1309  -56.9765 O.2       19 UNK        -0.5000 
    109 N         -5.2855  -18.9402  -57.4151 N.am      20 UNK        -0.5000 
    110 CA        -4.9909  -19.5593  -58.7075 C.3       20 UNK         0.1400 
    111 CB        -6.3171  -19.8503  -59.4271 C.3       20 UNK        -0.1800 
    112 C         -4.1445  -20.8447  -58.6021 C.2       20 UNK         0.5000 
    113 O         -3.5104  -21.2228  -59.5880 O.2       20 UNK        -0.5000 
    114 N         -4.1554  -21.4986  -57.4324 N.am      21 UNK        -0.5000 
    115 CA        -3.3976  -22.7167  -57.1584 C.3       21 UNK         0.1400 
    116 CB        -4.2000  -23.6270  -56.2145 C.3       21 UNK        -0.1800 
    117 C         -2.0132  -22.3931  -56.5752 C.2       21 UNK         0.5000 
    118 O         -1.0281  -22.9847  -57.0195 O.2       21 UNK        -0.5000 
    119 N         -1.9506  -21.4672  -55.6059 N.am      22 UNK        -0.5000 
    120 CA        -0.6850  -21.0160  -55.0024 C.3       22 UNK         0.1400 
    121 C          0.1618  -20.0767  -55.9080 C.2       22 UNK         0.5000 
    122 N         -0.4310  -19.3422  -56.8424 N.am      22 UNK        -0.7600 
    123 O          1.3803  -20.0224  -55.7676 O.2       22 UNK        -0.5000 
    124 C124       -0.8571  -20.4586  -53.5651 C.3       23 UNK        -0.0398 
    125 S125       -1.8805  -18.9528  -53.4063 S.3       23 UNK        -0.2404 
    126 C126       -0.6821  -17.5829  -53.5456 C.3       23 UNK        -0.0205 
    127 H127       -6.0983  -15.6522  -45.3618 H         1 UNK         0.0600 
    128 H128       -4.9801  -17.0108  -45.4770 H         1 UNK         0.0600 
    129 H129       -5.7258  -16.3544  -46.9401 H         1 UNK         0.0600 
    130 H130       -2.8026  -16.5203  -45.6127 H         1 UNK         0.3000 
    131 H131       -1.7701  -14.0994  -46.8446 H         1 UNK         0.0600 
    132 H132        0.4526  -15.0699  -46.2960 H         1 UNK         0.0800 
    133 H133       -0.3018  -16.3381  -45.3710 H         1 UNK         0.0800 
    134 H134       -0.2689  -14.8921  -49.2432 H         1 UNK         0.0800 
    135 H135        1.2368  -15.3322  -48.4710 H         1 UNK         0.0800 
    136 H136       -1.0854  -16.1972  -51.2244 H         1 UNK         0.1150 
    137 H137        1.7797  -18.7055  -53.2018 H         1 UNK         0.1150 
    138 H138        2.6056  -17.1847  -49.2832 H         1 UNK         0.1150 
    139 H139        4.1640  -18.6231  -52.1845 H         1 UNK         0.0800 
    140 H140        4.3179  -18.3921  -50.4612 H         1 UNK         0.0800 
    141 H141        2.1721  -19.7144  -49.0916 H         1 UNK         0.0800 
    142 H142        3.5853  -20.5997  -48.6072 H         1 UNK         0.0800 
    143 H143        2.3716  -22.7450  -49.3658 H         1 UNK         0.0600 
    144 H144        1.7213  -21.1361  -47.0173 H         1 UNK         0.3000 
    145 H145        0.3206  -23.7320  -45.1752 H         1 UNK         0.0600 
    146 H146        2.1731  -23.5301  -43.5275 H         1 UNK         0.0600 
    147 H147        2.6613  -24.5344  -44.8836 H         1 UNK         0.0600 
    148 H148        3.2348  -22.8742  -44.7735 H         1 UNK         0.0600 
    149 H149        1.4509  -21.2291  -44.3584 H         1 UNK         0.3000 
    150 H150       -0.9146  -19.0305  -45.6834 H         1 UNK         0.0600 
    151 H151       -2.3948  -19.9141  -43.8895 H         1 UNK         0.0600 
    152 H152       -1.5967  -18.4391  -43.3711 H         1 UNK         0.0600 
    153 H153       -1.0304  -20.0037  -42.7833 H         1 UNK         0.0600 
    154 H154        0.9230  -18.5960  -43.5819 H         1 UNK         0.3000 
    155 H155        3.9116  -18.4159  -45.4188 H         1 UNK         0.0600 
    156 H156        3.8982  -15.9961  -44.9691 H         1 UNK         0.0600 
    157 H157        2.7952  -16.3523  -46.2886 H         1 UNK         0.0600 
    158 H158        2.1584  -16.0154  -44.6828 H         1 UNK         0.0600 
    159 H159        3.1974  -17.3277  -42.8835 H         1 UNK         0.3000 
    160 H160        4.0836  -20.3192  -41.0601 H         1 UNK         0.0600 
    161 H161        5.5061  -17.6405  -41.4959 H         1 UNK         0.0600 
    162 H162        6.2010  -19.2288  -41.8045 H         1 UNK         0.0600 
    163 H163        5.7846  -18.7600  -40.1632 H         1 UNK         0.0600 
    164 H164        2.8077  -17.6175  -40.9558 H         1 UNK         0.3000 
    165 H165        0.8696  -18.6005  -38.2138 H         1 UNK         0.0600 
    166 H166        1.7113  -16.6492  -36.9248 H         1 UNK         0.0600 
    167 H167        2.8562  -17.9771  -36.8324 H         1 UNK         0.0600 
    168 H168        3.1849  -16.6138  -37.8949 H         1 UNK         0.0600 
    169 H169        1.3341  -16.0260  -39.3986 H         1 UNK         0.3000 
    170 H170       -0.3477  -16.4415  -42.3822 H         1 UNK         0.0600 
    171 H171       -2.4247  -16.4418  -40.9658 H         1 UNK         0.0600 
    172 H172       -1.7466  -15.1449  -39.9868 H         1 UNK         0.0600 
    173 H173       -2.1084  -14.8788  -41.6929 H         1 UNK         0.0600 
    174 H174        0.1494  -14.0064  -41.1950 H         1 UNK         0.3000 
    175 H175        2.7477  -13.1782  -40.8945 H         1 UNK         0.0600 
    176 H176        4.5663  -14.3207  -42.2033 H         1 UNK         0.0600 
    177 H177        3.7316  -13.9257  -43.7031 H         1 UNK         0.0600 
    178 H178        4.3876  -12.6460  -42.6875 H         1 UNK         0.0600 
    179 H179        0.9115  -13.0041  -43.1479 H         1 UNK         0.3000 
    180 H180        0.5137   -9.5134  -42.7182 H         1 UNK         0.0600 
    181 H181        1.6680  -10.7949  -45.2533 H         1 UNK         0.0600 
    182 H182        2.3522   -9.4121  -44.4077 H         1 UNK         0.0600 
    183 H183        0.7782   -9.2732  -45.1737 H         1 UNK         0.0600 
    184 H184       -0.6411  -11.3382  -44.5988 H         1 UNK         0.3000 
    185 H185       -2.9792  -12.8747  -42.4975 H         1 UNK         0.0600 
    186 H186       -4.0538  -10.6199  -42.6360 H         1 UNK         0.0600 
    187 H187       -3.6226  -10.5193  -44.3396 H         1 UNK         0.0600 
    188 H188       -4.7557  -11.7503  -43.7817 H         1 UNK         0.0600 
    189 H189       -3.2333  -12.9588  -45.1716 H         1 UNK         0.3000 
    190 H190       -0.5200  -21.3743  -47.9910 H         1 UNK         0.3000 
    191 H191       -2.0058  -21.5932  -50.5464 H         1 UNK         0.0600 
    192 H192       -1.8822  -19.0654  -48.8281 H         1 UNK         0.0600 
    193 H193       -2.9584  -19.3302  -50.2039 H         1 UNK         0.0600 
    194 H194       -1.2218  -19.2595  -50.4417 H         1 UNK         0.0600 
    195 H195       -3.3683  -19.9075  -47.9047 H         1 UNK         0.3000 
    196 H196       -5.6920  -21.3174  -47.9376 H         1 UNK         0.0600 
    197 H197       -6.2644  -19.9970  -45.8787 H         1 UNK         0.0600 
    198 H198       -5.4707  -19.0144  -47.0975 H         1 UNK         0.0600 
    199 H199       -4.5675  -19.5711  -45.6867 H         1 UNK         0.0600 
    200 H200       -2.9747  -22.0107  -45.6982 H         1 UNK         0.3000 
    201 H201       -4.6037  -23.7987  -44.0431 H         1 UNK         0.0600 
    202 H202       -2.7354  -22.4409  -43.0743 H         1 UNK         0.0600 
    203 H203       -1.5821  -23.3683  -44.0307 H         1 UNK         0.0600 
    204 H204       -2.5372  -24.1642  -42.7955 H         1 UNK         0.0600 
    205 H205       -2.8115  -24.0806  -46.9931 H         1 UNK         0.3000 
    206 H206       -2.7425  -27.0532  -46.9061 H         1 UNK         0.0600 
    207 H207       -0.7318  -25.8980  -47.7855 H         1 UNK         0.0600 
    208 H208       -1.5288  -26.7968  -49.0631 H         1 UNK         0.0600 
    209 H209       -1.7058  -25.0492  -48.9842 H         1 UNK         0.0600 
    210 H210       -4.9784  -24.6877  -47.4304 H         1 UNK         0.3000 
    211 H211       -6.9333  -24.4415  -48.3754 H         1 UNK         0.0600 
    212 H212       -6.8945  -27.4125  -49.1130 H         1 UNK         0.0600 
    213 H213       -8.3070  -26.3751  -48.9915 H         1 UNK         0.0600 
    214 H214       -7.3888  -26.7665  -47.5481 H         1 UNK         0.0600 
    215 H215       -4.4794  -24.0061  -49.9652 H         1 UNK         0.3000 
    216 H216       -5.3756  -24.4206  -52.7652 H         1 UNK         0.0600 
    217 H217       -2.7715  -23.4276  -51.5189 H         1 UNK         0.0600 
    218 H218       -3.0972  -23.3822  -53.2451 H         1 UNK         0.0600 
    219 H219       -3.0444  -24.9217  -52.3982 H         1 UNK         0.0600 
    220 H220       -6.4219  -22.8765  -53.8297 H         1 UNK         0.3000 
    221 H221       -6.9726  -20.2290  -52.7346 H         1 UNK         0.0600 
    222 H222       -8.6731  -21.5473  -54.0411 H         1 UNK         0.0600 
    223 H223       -7.6204  -21.5138  -55.4550 H         1 UNK         0.0600 
    224 H224       -8.3170  -20.0232  -54.8318 H         1 UNK         0.0600 
    225 H225       -6.6802  -18.3166  -54.2813 H         1 UNK         0.3000 
    226 H226       -4.0272  -17.6468  -54.6499 H         1 UNK         0.0600 
    227 H227       -5.8475  -16.0018  -54.4741 H         1 UNK         0.0600 
    228 H228       -4.9247  -15.7077  -55.9383 H         1 UNK         0.0600 
    229 H229       -6.4953  -16.4949  -56.0392 H         1 UNK         0.0600 
    230 H230       -6.2287  -19.0362  -57.0689 H         1 UNK         0.3000 
    231 H231       -4.4260  -18.8439  -59.3091 H         1 UNK         0.0600 
    232 H232       -6.9344  -20.5519  -58.8644 H         1 UNK         0.0600 
    233 H233       -6.1408  -20.2850  -60.4119 H         1 UNK         0.0600 
    234 H234       -6.8945  -18.9376  -59.5756 H         1 UNK         0.0600 
    235 H235       -4.6241  -21.0792  -56.6379 H         1 UNK         0.3000 
    236 H236       -3.2456  -23.2687  -58.0885 H         1 UNK         0.0600 
    237 H237       -4.4029  -23.1457  -55.2597 H         1 UNK         0.0600 
    238 H238       -5.1561  -23.9061  -56.6573 H         1 UNK         0.0600 
    239 H239       -3.6557  -24.5490  -56.0064 H         1 UNK         0.0600 
    240 H240       -2.8043  -21.0266  -55.2710 H         1 UNK         0.3000 
    241 H241       -0.0706  -21.9108  -54.8815 H         1 UNK         0.0600 
    242 H242        0.1302  -18.7462  -57.4289 H         1 UNK         0.3800 
    243 H243       -1.4404  -19.2934  -56.9073 H         1 UNK         0.3800 
    244 H244        0.1145  -20.3004  -53.1006 H         1 UNK         0.0800 
    245 H245       -1.3327  -21.2248  -52.9521 H         1 UNK         0.0800 
    246 H246       -1.2413  -16.6530  -53.6578 H         1 UNK         0.0800 
    247 H247       -0.0975  -17.6830  -54.4593 H         1 UNK         0.0800 
@<TRIPOS>BOND
     1    1    2 1    
     2    1  127 1    
     3    1  128 1    
     4    1  129 1    
     5    2    3 2    
     6    2    4 am   BACKBONE|DICT|INTERRES
     7    4    5 1    
     8    4  130 1    
     9    5    6 1    
    10    5   65 1    
    11    5  131 1    
    12    6    7 1    
    13    6  132 1    
    14    6  133 1    
    15    7    8 1    
    16    8    9 1    
    17    8  134 1    
    18    8  135 1    
    19    9   10 ar   
    20    9   14 ar   
    21   10   11 ar   
    22   10  136 1    
    23   11   12 ar   
    24   11  126 1    
    25   12   13 ar   
    26   12  137 1    
    27   13   14 ar   
    28   13   15 1    
    29   14  138 1    
    30   15   16 1    
    31   15  139 1    
    32   15  140 1    
    33   16   17 1    
    34   17   18 1    
    35   17  141 1    
    36   17  142 1    
    37   18   19 1    
    38   18   67 1    
    39   18  143 1    
    40   19   20 am   BACKBONE|DICT|INTERRES
    41   19  144 1    
    42   20   21 2    
    43   20   22 1    
    44   22   23 1    
    45   22   24 1    
    46   22  145 1    
    47   23  146 1    
    48   23  147 1    
    49   23  148 1    
    50   24   25 am   BACKBONE|DICT|INTERRES
    51   24  149 1    
    52   25   26 2    
    53   25   27 1    
    54   27   28 1    
    55   27   29 1    
    56   27  150 1    
    57   28  151 1    
    58   28  152 1    
    59   28  153 1    
    60   29   30 am   BACKBONE|DICT|INTERRES
    61   29  154 1    
    62   30   31 2    
    63   30   32 1    
    64   32   33 1    
    65   32   34 1    
    66   32  155 1    
    67   33  156 1    
    68   33  157 1    
    69   33  158 1    
    70   34   35 am   BACKBONE|DICT|INTERRES
    71   34  159 1    
    72   35   36 2    
    73   35   37 1    
    74   37   38 1    
    75   37   39 1    
    76   37  160 1    
    77   38  161 1    
    78   38  162 1    
    79   38  163 1    
    80   39   40 am   BACKBONE|DICT|INTERRES
    81   39  164 1    
    82   40   41 2    
    83   40   42 1    
    84   42   43 1    
    85   42   44 1    
    86   42  165 1    
    87   43  166 1    
    88   43  167 1    
    89   43  168 1    
    90   44   45 am   BACKBONE|DICT|INTERRES
    91   44  169 1    
    92   45   46 2    
    93   45   47 1    
    94   47   48 1    
    95   47   49 1    
    96   47  170 1    
    97   48  171 1    
    98   48  172 1    
    99   48  173 1    
   100   49   50 am   BACKBONE|DICT|INTERRES
   101   49  174 1    
   102   50   51 2    
   103   50   52 1    
   104   52   53 1    
   105   52   54 1    
   106   52  175 1    
   107   53  176 1    
   108   53  177 1    
   109   53  178 1    
   110   54   55 am   BACKBONE|DICT|INTERRES
   111   54  179 1    
   112   55   56 2    
   113   55   57 1    
   114   57   58 1    
   115   57   59 1    
   116   57  180 1    
   117   58  181 1    
   118   58  182 1    
   119   58  183 1    
   120   59   60 am   BACKBONE|DICT|INTERRES
   121   59  184 1    
   122   60   61 2    
   123   60   62 1    
   124   62   63 1    
   125   62   64 1    
   126   62  185 1    
   127   63  186 1    
   128   63  187 1    
   129   63  188 1    
   130   64   65 am   BACKBONE|DICT|INTERRES
   131   64  189 1    
   132   65   66 2    
   133   67   68 2    
   134   67   69 am   BACKBONE|DICT|INTERRES
   135   69   70 1    
   136   69  190 1    
   137   70   71 1    
   138   70   72 1    
   139   70  191 1    
   140   71  192 1    
   141   71  193 1    
   142   71  194 1    
   143   72   73 2    
   144   72   74 am   BACKBONE|DICT|INTERRES
   145   74   75 1    
   146   74  195 1    
   147   75   76 1    
   148   75   77 1    
   149   75  196 1    
   150   76  197 1    
   151   76  198 1    
   152   76  199 1    
   153   77   78 2    
   154   77   79 am   BACKBONE|DICT|INTERRES
   155   79   80 1    
   156   79  200 1    
   157   80   81 1    
   158   80   82 1    
   159   80  201 1    
   160   81  202 1    
   161   81  203 1    
   162   81  204 1    
   163   82   83 2    
   164   82   84 am   BACKBONE|DICT|INTERRES
   165   84   85 1    
   166   84  205 1    
   167   85   86 1    
   168   85   87 1    
   169   85  206 1    
   170   86  207 1    
   171   86  208 1    
   172   86  209 1    
   173   87   88 2    
   174   87   89 am   BACKBONE|DICT|INTERRES
   175   89   90 1    
   176   89  210 1    
   177   90   91 1    
   178   90   92 1    
   179   90  211 1    
   180   91  212 1    
   181   91  213 1    
   182   91  214 1    
   183   92   93 2    
   184   92   94 am   BACKBONE|DICT|INTERRES
   185   94   95 1    
   186   94  215 1    
   187   95   96 1    
   188   95   97 1    
   189   95  216 1    
   190   96  217 1    
   191   96  218 1    
   192   96  219 1    
   193   97   98 2    
   194   97   99 am   BACKBONE|DICT|INTERRES
   195   99  100 1    
   196   99  220 1    
   197  100  101 1    
   198  100  102 1    
   199  100  221 1    
   200  101  222 1    
   201  101  223 1    
   202  101  224 1    
   203  102  103 2    
   204  102  104 am   BACKBONE|DICT|INTERRES
   205  104  105 1    
   206  104  225 1    
   207  105  106 1    
   208  105  107 1    
   209  105  226 1    
   210  106  227 1    
   211  106  228 1    
   212  106  229 1    
   213  107  108 2    
   214  107  109 am   BACKBONE|DICT|INTERRES
   215  109  110 1    
   216  109  230 1    
   217  110  111 1    
   218  110  112 1    
   219  110  231 1    
   220  111  232 1    
   221  111  233 1    
   222  111  234 1    
   223  112  113 2    
   224  112  114 am   BACKBONE|DICT|INTERRES
   225  114  115 1    
   226  114  235 1    
   227  115  116 1    
   228  115  117 1    
   229  115  236 1    
   230  116  237 1    
   231  116  238 1    
   232  116  239 1    
   233  117  118 2    
   234  117  119 am   BACKBONE|DICT|INTERRES
   235  119  120 1    
   236  119  240 1    
   237  120  121 1    
   238  120  124 1    
   239  120  241 1    
   240  121  122 am   BACKBONE|DICT|INTERRES
   241  121  123 2    
   242  122  242 1    
   243  122  243 1    
   244  124  125 1    
   245  124  244 1    
   246  124  245 1    
   247  125  126 1    
   248  126  246 1    
   249  126  247 1    
@<TRIPOS>SUBSTRUCTURE
     1 UNK         1 GROUP             0       ****    0 ROOT    
