@<TRIPOS>MOLECULE
3R540
247   249    1
SMALL
USER_CHARGES


@<TRIPOS>ATOM
      1 CA          4.9385   -8.9993  -49.1074 C.3       0 UNK        -0.1800 
      2 C           4.2086   -9.9820  -48.2028 C.2       0 UNK         0.5000 
      3 O           3.7292   -9.5925  -47.1382 O.2       0 UNK        -0.5000 
      4 N           4.1271  -11.2526  -48.6216 N.am      1 UNK        -0.5000 
      5 CA          3.4373  -12.3344  -47.9054 C.3       1 UNK         0.1400 
      6 C6          3.8127  -13.7241  -48.4889 C.3       23 UNK        -0.0398 
      7 S7          3.9916  -15.0121  -47.2127 S.3       23 UNK        -0.2404 
      8 C8          2.3848  -15.8596  -47.2791 C.3       23 UNK        -0.0205 
      9 C9          2.2197  -16.7102  -48.5303 C.ar      23 UNK        -0.0193 
     10 C10         1.3939  -16.2798  -49.5725 C.ar      23 UNK        -0.1150 
     11 C11         1.2192  -17.0630  -50.7159 C.ar      23 UNK        -0.0193 
     12 C12         1.8967  -18.2806  -50.8209 C.ar      23 UNK        -0.1150 
     13 C13         2.7144  -18.7321  -49.7808 C.ar      23 UNK        -0.0193 
     14 C14         2.8708  -17.9433  -48.6360 C.ar      23 UNK        -0.1150 
     15 C15         3.4211  -20.0744  -49.9009 C.3       23 UNK        -0.0205 
     16 S16         2.2558  -21.4680  -49.7603 S.3       23 UNK        -0.2404 
     17 C17         1.7442  -21.3400  -48.0146 C.3       23 UNK        -0.0398 
     18 CA          1.5733  -22.7236  -47.3393 C.3       11 UNK         0.1400 
     19 N           1.7079  -22.6315  -45.8851 N.am      11 UNK        -0.5000 
     20 C           1.8085  -23.6746  -45.0495 C.2       10 UNK         0.5000 
     21 O           1.8932  -24.8465  -45.4165 O.2       10 UNK        -0.5000 
     22 CA          1.7766  -23.3511  -43.5450 C.3       10 UNK         0.1400 
     23 CB          3.1750  -22.9722  -43.0336 C.3       10 UNK        -0.1800 
     24 N           0.8350  -22.2754  -43.2326 N.am      10 UNK        -0.5000 
     25 C          -0.4982  -22.3797  -43.3299 C.2       9 UNK         0.5000 
     26 O          -1.0867  -23.4140  -43.6507 O.2       9 UNK        -0.5000 
     27 CA         -1.3005  -21.0921  -43.0676 C.3       9 UNK         0.1400 
     28 CB         -1.4805  -20.8577  -41.5605 C.3       9 UNK        -0.1800 
     29 N          -0.6721  -19.9158  -43.6719 N.am      9 UNK        -0.5000 
     30 C          -0.5758  -19.7103  -44.9935 C.2       8 UNK         0.5000 
     31 O          -1.0307  -20.4774  -45.8368 O.2       8 UNK        -0.5000 
     32 CA          0.2028  -18.4721  -45.4616 C.3       8 UNK         0.1400 
     33 CB         -0.7392  -17.2672  -45.5925 C.3       8 UNK        -0.1800 
     34 N           1.3228  -18.1437  -44.5785 N.am      8 UNK        -0.5000 
     35 C           2.3980  -18.9294  -44.4044 C.2       7 UNK         0.5000 
     36 O           2.5351  -20.0143  -44.9685 O.2       7 UNK        -0.5000 
     37 CA          3.4981  -18.4526  -43.4354 C.3       7 UNK         0.1400 
     38 CB          4.6731  -17.8557  -44.2242 C.3       7 UNK        -0.1800 
     39 N           3.0410  -17.4700  -42.4537 N.am      7 UNK        -0.5000 
     40 C           2.1158  -17.6859  -41.5085 C.2       6 UNK         0.5000 
     41 O           1.5864  -18.7799  -41.3078 O.2       6 UNK        -0.5000 
     42 CA          1.6668  -16.4562  -40.6912 C.3       6 UNK         0.1400 
     43 CB          2.4353  -16.3871  -39.3631 C.3       6 UNK        -0.1800 
     44 N           1.8042  -15.1711  -41.3938 N.am      6 UNK        -0.5000 
     45 C           1.2245  -14.8651  -42.5633 C.2       5 UNK         0.5000 
     46 O           0.5668  -15.6704  -43.2247 O.2       5 UNK        -0.5000 
     47 CA          1.4689  -13.4460  -43.1109 C.3       5 UNK         0.1400 
     48 CB          2.8034  -13.3922  -43.8684 C.3       5 UNK        -0.1800 
     49 N           0.4015  -13.0249  -44.0190 N.am      5 UNK        -0.5000 
     50 C          -0.8648  -12.7884  -43.6447 C.2       4 UNK         0.5000 
     51 O          -1.2401  -12.7973  -42.4711 O.2       4 UNK        -0.5000 
     52 CA         -1.8893  -12.4948  -44.7521 C.3       4 UNK         0.1400 
     53 CB         -2.0357  -10.9779  -44.9511 C.3       4 UNK        -0.1800 
     54 N          -1.5027  -13.0988  -46.0263 N.am      4 UNK        -0.5000 
     55 C          -2.2003  -14.0287  -46.6949 C.2       3 UNK         0.5000 
     56 O          -3.2379  -14.5401  -46.2720 O.2       3 UNK        -0.5000 
     57 CA         -1.6376  -14.4522  -48.0736 C.3       3 UNK         0.1400 
     58 CB         -2.7231  -14.9358  -49.0554 C.3       3 UNK        -0.1800 
     59 N          -0.7911  -13.4166  -48.6798 N.am      3 UNK        -0.5000 
     60 C          -1.1420  -12.1676  -49.0172 C.2       2 UNK         0.5000 
     61 O          -2.3081  -11.7762  -49.0736 O.2       2 UNK        -0.5000 
     62 CA          0.0059  -11.1697  -49.2949 C.3       2 UNK         0.1400 
     63 CB         -0.2142   -9.8446  -48.5376 C.3       2 UNK        -0.1800 
     64 N           1.3725  -11.6561  -49.0345 N.am      2 UNK        -0.5000 
     65 C           1.9071  -12.1161  -47.8888 C.2       1 UNK         0.5000 
     66 O           1.2560  -12.3611  -46.8691 O.2       1 UNK        -0.5000 
     67 C           0.2414  -23.3929  -47.7423 C.2       11 UNK         0.5000 
     68 O           0.2401  -24.2704  -48.6063 O.2       11 UNK        -0.5000 
     69 N          -0.8591  -22.9737  -47.0981 N.am      12 UNK        -0.5000 
     70 CA         -2.2105  -23.4768  -47.3205 C.3       12 UNK         0.1400 
     71 CB         -3.2321  -22.6435  -46.5328 C.3       12 UNK        -0.1800 
     72 C          -2.3669  -24.9649  -46.9947 C.2       12 UNK         0.5000 
     73 O          -2.8388  -25.7119  -47.8524 O.2       12 UNK        -0.5000 
     74 N          -1.9834  -25.3545  -45.7695 N.am      13 UNK        -0.5000 
     75 CA         -2.0828  -26.7093  -45.2184 C.3       13 UNK         0.1400 
     76 CB         -0.9643  -27.5938  -45.8135 C.3       13 UNK        -0.1800 
     77 C          -3.5086  -27.2895  -45.3815 C.2       13 UNK         0.5000 
     78 O          -4.4670  -26.6613  -44.9275 O.2       13 UNK        -0.5000 
     79 N          -3.6297  -28.4408  -46.0540 N.am      14 UNK        -0.5000 
     80 CA         -4.9004  -29.0604  -46.4376 C.3       14 UNK         0.1400 
     81 CB         -4.7627  -30.5836  -46.2782 C.3       14 UNK        -0.1800 
     82 C          -5.3246  -28.7072  -47.8803 C.2       14 UNK         0.5000 
     83 O          -6.4378  -29.0543  -48.2771 O.2       14 UNK        -0.5000 
     84 N          -4.4429  -28.0532  -48.6509 N.am      15 UNK        -0.5000 
     85 CA         -4.6583  -27.7067  -50.0588 C.3       15 UNK         0.1400 
     86 CB         -3.2933  -27.6047  -50.7589 C.3       15 UNK        -0.1800 
     87 C          -5.4528  -26.4010  -50.2498 C.2       15 UNK         0.5000 
     88 O          -6.0255  -26.2008  -51.3211 O.2       15 UNK        -0.5000 
     89 N          -5.4561  -25.5375  -49.2226 N.am      16 UNK        -0.5000 
     90 CA         -6.0856  -24.2113  -49.1738 C.3       16 UNK         0.1400 
     91 CB         -7.6175  -24.3084  -49.3302 C.3       16 UNK        -0.1800 
     92 C          -5.4470  -23.2011  -50.1513 C.2       16 UNK         0.5000 
     93 O          -6.1294  -22.2996  -50.6438 O.2       16 UNK        -0.5000 
     94 N          -4.1360  -23.3547  -50.3982 N.am      17 UNK        -0.5000 
     95 CA         -3.3261  -22.5676  -51.3373 C.3       17 UNK         0.1400 
     96 CB         -1.8707  -23.0562  -51.2984 C.3       17 UNK        -0.1800 
     97 C          -3.3841  -21.0415  -51.1297 C.2       17 UNK         0.5000 
     98 O          -3.3190  -20.3077  -52.1151 O.2       17 UNK        -0.5000 
     99 N          -3.5883  -20.5933  -49.8810 N.am      18 UNK        -0.5000 
    100 CA        -3.7956  -19.1875  -49.5092 C.3       18 UNK         0.1400 
    101 CB        -3.9001  -19.0711  -47.9813 C.3       18 UNK        -0.1800 
    102 C         -5.0088  -18.5184  -50.1922 C.2       18 UNK         0.5000 
    103 O         -5.0433  -17.2917  -50.2836 O.2       18 UNK        -0.5000 
    104 N         -5.9611  -19.3255  -50.6761 N.am      19 UNK        -0.5000 
    105 CA        -7.0344  -18.9008  -51.5679 C.3       19 UNK         0.1400 
    106 CB        -8.3859  -19.3370  -50.9791 C.3       19 UNK        -0.1800 
    107 C         -6.8281  -19.5032  -52.9676 C.2       19 UNK         0.5000 
    108 O         -6.8791  -18.7728  -53.9577 O.2       19 UNK        -0.5000 
    109 N         -6.6071  -20.8245  -53.0264 N.am      20 UNK        -0.5000 
    110 CA        -6.6241  -21.6213  -54.2542 C.3       20 UNK         0.1400 
    111 CB        -6.6639  -23.1120  -53.8818 C.3       20 UNK        -0.1800 
    112 C         -5.4709  -21.3420  -55.2359 C.2       20 UNK         0.5000 
    113 O         -5.6699  -21.5025  -56.4411 O.2       20 UNK        -0.5000 
    114 N         -4.2988  -20.9480  -54.7227 N.am      21 UNK        -0.5000 
    115 CA        -3.1089  -20.6476  -55.5198 C.3       21 UNK         0.1400 
    116 CB        -1.9023  -21.4224  -54.9644 C.3       21 UNK        -0.1800 
    117 C         -2.8249  -19.1392  -55.5346 C.2       21 UNK         0.5000 
    118 O         -2.5106  -18.5984  -56.5959 O.2       21 UNK        -0.5000 
    119 N         -2.9390  -18.4852  -54.3704 N.am      22 UNK        -0.5000 
    120 CA        -2.6780  -17.0441  -54.2097 C.3       22 UNK         0.1400 
    121 C         -3.7601  -16.1176  -54.8380 C.2       22 UNK         0.5000 
    122 N         -4.9790  -16.5829  -55.0869 N.am      22 UNK        -0.7600 
    123 O         -3.4845  -14.9523  -55.1097 O.2       22 UNK        -0.5000 
    124 C124       -2.4282  -16.6410  -52.7346 C.3       23 UNK        -0.0398 
    125 S125       -1.1937  -17.6757  -51.8765 S.3       23 UNK        -0.2404 
    126 C126        0.2770  -16.6080  -51.8211 C.3       23 UNK        -0.0205 
    127 H127        5.3169   -9.4810  -50.0094 H         1 UNK         0.0600 
    128 H128        5.7831   -8.5581  -48.5781 H         1 UNK         0.0600 
    129 H129        4.2658   -8.1960  -49.4079 H         1 UNK         0.0600 
    130 H130        4.5576  -11.5052  -49.4999 H         1 UNK         0.3000 
    131 H131        3.7789  -12.2860  -46.8689 H         1 UNK         0.0600 
    132 H132        4.7878  -13.6713  -48.9753 H         1 UNK         0.0800 
    133 H133        3.1275  -14.0467  -49.2738 H         1 UNK         0.0800 
    134 H134        2.3117  -16.5000  -46.4031 H         1 UNK         0.0800 
    135 H135        1.5796  -15.1308  -47.1867 H         1 UNK         0.0800 
    136 H136        0.8788  -15.3365  -49.4962 H         1 UNK         0.1150 
    137 H137        1.7617  -18.8934  -51.7013 H         1 UNK         0.1150 
    138 H138        3.5003  -18.2851  -47.8260 H         1 UNK         0.1150 
    139 H139        3.9198  -20.1293  -50.8696 H         1 UNK         0.0800 
    140 H140        4.2054  -20.1735  -49.1488 H         1 UNK         0.0800 
    141 H141        0.8354  -20.7393  -47.9484 H         1 UNK         0.0800 
    142 H142        2.5129  -20.7740  -47.4882 H         1 UNK         0.0800 
    143 H143        2.3832  -23.3717  -47.6817 H         1 UNK         0.0600 
    144 H144        1.7320  -21.6956  -45.4915 H         1 UNK         0.3000 
    145 H145        1.4524  -24.2504  -43.0168 H         1 UNK         0.0600 
    146 H146        3.1665  -22.7923  -41.9585 H         1 UNK         0.0600 
    147 H147        3.8886  -23.7751  -43.2230 H         1 UNK         0.0600 
    148 H148        3.5562  -22.0744  -43.5208 H         1 UNK         0.0600 
    149 H149        1.2314  -21.3800  -42.9872 H         1 UNK         0.3000 
    150 H150       -2.2896  -21.2170  -43.5132 H         1 UNK         0.0600 
    151 H151       -1.9637  -21.7136  -41.0876 H         1 UNK         0.0600 
    152 H152       -2.1058  -19.9854  -41.3697 H         1 UNK         0.0600 
    153 H153       -0.5248  -20.7006  -41.0587 H         1 UNK         0.0600 
    154 H154       -0.2384  -19.2529  -43.0441 H         1 UNK         0.3000 
    155 H155        0.6132  -18.6879  -46.4503 H         1 UNK         0.0600 
    156 H156       -1.2586  -17.0570  -44.6568 H         1 UNK         0.0600 
    157 H157       -1.4986  -17.4468  -46.3545 H         1 UNK         0.0600 
    158 H158       -0.1948  -16.3678  -45.8756 H         1 UNK         0.0600 
    159 H159        1.2413  -17.2767  -44.0543 H         1 UNK         0.3000 
    160 H160        3.8559  -19.3298  -42.8925 H         1 UNK         0.0600 
    161 H161        4.3803  -16.9514  -44.7588 H         1 UNK         0.0600 
    162 H162        5.0509  -18.5648  -44.9622 H         1 UNK         0.0600 
    163 H163        5.5033  -17.6022  -43.5648 H         1 UNK         0.0600 
    164 H164        3.4125  -16.5363  -42.5442 H         1 UNK         0.3000 
    165 H165        0.6071  -16.5921  -40.4658 H         1 UNK         0.0600 
    166 H166        2.0564  -15.5859  -38.7283 H         1 UNK         0.0600 
    167 H167        2.3336  -17.3178  -38.8032 H         1 UNK         0.0600 
    168 H168        3.5004  -16.2150  -39.5233 H         1 UNK         0.0600 
    169 H169        2.3472  -14.4629  -40.9208 H         1 UNK         0.3000 
    170 H170        1.5063  -12.7462  -42.2736 H         1 UNK         0.0600 
    171 H171        3.6398  -13.6474  -43.2167 H         1 UNK         0.0600 
    172 H172        2.8115  -14.0919  -44.7034 H         1 UNK         0.0600 
    173 H173        2.9933  -12.3950  -44.2663 H         1 UNK         0.0600 
    174 H174        0.6445  -12.9744  -45.0005 H         1 UNK         0.3000 
    175 H175       -2.8509  -12.8899  -44.4182 H         1 UNK         0.0600 
    176 H176       -1.0901  -10.5176  -45.2396 H         1 UNK         0.0600 
    177 H177       -2.7690  -10.7509  -45.7253 H         1 UNK         0.0600 
    178 H178       -2.3702  -10.4939  -44.0327 H         1 UNK         0.0600 
    179 H179       -0.6444  -12.7525  -46.4420 H         1 UNK         0.3000 
    180 H180       -0.9830  -15.3014  -47.8794 H         1 UNK         0.0600 
    181 H181       -2.2878  -15.2305  -50.0097 H         1 UNK         0.0600 
    182 H182       -3.4713  -14.1673  -49.2490 H         1 UNK         0.0600 
    183 H183       -3.2467  -15.8063  -48.6593 H         1 UNK         0.0600 
    184 H184        0.2013  -13.5906  -48.6432 H         1 UNK         0.3000 
    185 H185       -0.0411  -10.9533  -50.3630 H         1 UNK         0.0600 
    186 H186       -1.1711   -9.3907  -48.7979 H         1 UNK         0.0600 
    187 H187       -0.2044   -9.9925  -47.4577 H         1 UNK         0.0600 
    188 H188        0.5622   -9.1191  -48.7807 H         1 UNK         0.0600 
    189 H189        2.0121  -11.5198  -49.8049 H         1 UNK         0.3000 
    190 H190       -0.7797  -22.1964  -46.4469 H         1 UNK         0.3000 
    191 H191       -2.4252  -23.3524  -48.3787 H         1 UNK         0.0600 
    192 H192       -4.2435  -23.0282  -46.6623 H         1 UNK         0.0600 
    193 H193       -3.2346  -21.6084  -46.8649 H         1 UNK         0.0600 
    194 H194       -3.0187  -22.6472  -45.4641 H         1 UNK         0.0600 
    195 H195       -1.6407  -24.6464  -45.1263 H         1 UNK         0.3000 
    196 H196       -1.9063  -26.6225  -44.1455 H         1 UNK         0.0600 
    197 H197       -1.0646  -27.7139  -46.8930 H         1 UNK         0.0600 
    198 H198        0.0151  -27.1527  -45.6261 H         1 UNK         0.0600 
    199 H199       -0.9572  -28.5858  -45.3602 H         1 UNK         0.0600 
    200 H200       -2.7912  -28.8905  -46.3927 H         1 UNK         0.3000 
    201 H201       -5.6982  -28.7229  -45.7729 H         1 UNK         0.0600 
    202 H202       -3.9925  -30.9897  -46.9351 H         1 UNK         0.0600 
    203 H203       -5.6988  -31.0900  -46.5173 H         1 UNK         0.0600 
    204 H204       -4.5046  -30.8503  -45.2532 H         1 UNK         0.0600 
    205 H205       -3.5854  -27.7119  -48.2346 H         1 UNK         0.3000 
    206 H206       -5.2234  -28.5081  -50.5396 H         1 UNK         0.0600 
    207 H207       -2.7419  -28.5422  -50.6852 H         1 UNK         0.0600 
    208 H208       -3.4136  -27.3822  -51.8199 H         1 UNK         0.0600 
    209 H209       -2.6741  -26.8171  -50.3280 H         1 UNK         0.0600 
    210 H210       -4.8899  -25.7886  -48.4206 H         1 UNK         0.3000 
    211 H211       -5.8906  -23.8239  -48.1741 H         1 UNK         0.0600 
    212 H212       -8.0921  -23.3485  -49.1232 H         1 UNK         0.0600 
    213 H213       -8.0400  -25.0346  -48.6358 H         1 UNK         0.0600 
    214 H214       -7.9065  -24.6004  -50.3401 H         1 UNK         0.0600 
    215 H215       -3.6759  -24.1455  -49.9706 H         1 UNK         0.3000 
    216 H216       -3.7166  -22.7709  -52.3354 H         1 UNK         0.0600 
    217 H217       -1.3833  -22.8087  -50.3561 H         1 UNK         0.0600 
    218 H218       -1.2833  -22.5915  -52.0907 H         1 UNK         0.0600 
    219 H219       -1.8061  -24.1353  -51.4396 H         1 UNK         0.0600 
    220 H220       -3.6546  -21.2690  -49.1368 H         1 UNK         0.3000 
    221 H221       -2.9109  -18.6325  -49.8201 H         1 UNK         0.0600 
    222 H222       -4.0869  -18.0402  -47.6773 H         1 UNK         0.0600 
    223 H223       -2.9712  -19.3784  -47.5016 H         1 UNK         0.0600 
    224 H224       -4.7114  -19.6819  -47.5841 H         1 UNK         0.0600 
    225 H225       -5.8563  -20.3262  -50.5494 H         1 UNK         0.3000 
    226 H226       -7.0476  -17.8142  -51.6755 H         1 UNK         0.0600 
    227 H227       -8.5649  -18.8581  -50.0164 H         1 UNK         0.0600 
    228 H228       -9.2082  -19.0585  -51.6394 H         1 UNK         0.0600 
    229 H229       -8.4347  -20.4163  -50.8277 H         1 UNK         0.0600 
    230 H230       -6.5523  -21.3524  -52.1589 H         1 UNK         0.3000 
    231 H231       -7.5526  -21.3861  -54.7788 H         1 UNK         0.0600 
    232 H232       -5.7673  -23.4200  -53.3445 H         1 UNK         0.0600 
    233 H233       -6.7414  -23.7363  -54.7728 H         1 UNK         0.0600 
    234 H234       -7.5235  -23.3397  -53.2510 H         1 UNK         0.0600 
    235 H235       -4.2196  -20.7862  -53.7241 H         1 UNK         0.3000 
    236 H236       -3.2511  -20.9658  -56.5547 H         1 UNK         0.0600 
    237 H237       -2.1096  -22.4911  -54.9086 H         1 UNK         0.0600 
    238 H238       -1.0314  -21.2922  -55.6077 H         1 UNK         0.0600 
    239 H239       -1.6206  -21.0815  -53.9685 H         1 UNK         0.0600 
    240 H240       -3.1364  -19.0082  -53.5223 H         1 UNK         0.3000 
    241 H241       -1.7536  -16.8310  -54.7502 H         1 UNK         0.0600 
    242 H242       -5.6642  -15.9694  -55.4980 H         1 UNK         0.3800 
    243 H243       -5.2483  -17.5238  -54.8325 H         1 UNK         0.3800 
    244 H244       -3.3583  -16.7133  -52.1717 H         1 UNK         0.0800 
    245 H245       -2.1264  -15.5943  -52.6725 H         1 UNK         0.0800 
    246 H246        0.7884  -16.6409  -52.7840 H         1 UNK         0.0800 
    247 H247       -0.0227  -15.5717  -51.6586 H         1 UNK         0.0800 
@<TRIPOS>BOND
     1    1    2 1    
     2    1  127 1    
     3    1  128 1    
     4    1  129 1    
     5    2    3 2    
     6    2    4 am   BACKBONE|DICT|INTERRES
     7    4    5 1    
     8    4  130 1    
     9    5    6 1    
    10    5   65 1    
    11    5  131 1    
    12    6    7 1    
    13    6  132 1    
    14    6  133 1    
    15    7    8 1    
    16    8    9 1    
    17    8  134 1    
    18    8  135 1    
    19    9   10 ar   
    20    9   14 ar   
    21   10   11 ar   
    22   10  136 1    
    23   11   12 ar   
    24   11  126 1    
    25   12   13 ar   
    26   12  137 1    
    27   13   14 ar   
    28   13   15 1    
    29   14  138 1    
    30   15   16 1    
    31   15  139 1    
    32   15  140 1    
    33   16   17 1    
    34   17   18 1    
    35   17  141 1    
    36   17  142 1    
    37   18   19 1    
    38   18   67 1    
    39   18  143 1    
    40   19   20 am   BACKBONE|DICT|INTERRES
    41   19  144 1    
    42   20   21 2    
    43   20   22 1    
    44   22   23 1    
    45   22   24 1    
    46   22  145 1    
    47   23  146 1    
    48   23  147 1    
    49   23  148 1    
    50   24   25 am   BACKBONE|DICT|INTERRES
    51   24  149 1    
    52   25   26 2    
    53   25   27 1    
    54   27   28 1    
    55   27   29 1    
    56   27  150 1    
    57   28  151 1    
    58   28  152 1    
    59   28  153 1    
    60   29   30 am   BACKBONE|DICT|INTERRES
    61   29  154 1    
    62   30   31 2    
    63   30   32 1    
    64   32   33 1    
    65   32   34 1    
    66   32  155 1    
    67   33  156 1    
    68   33  157 1    
    69   33  158 1    
    70   34   35 am   BACKBONE|DICT|INTERRES
    71   34  159 1    
    72   35   36 2    
    73   35   37 1    
    74   37   38 1    
    75   37   39 1    
    76   37  160 1    
    77   38  161 1    
    78   38  162 1    
    79   38  163 1    
    80   39   40 am   BACKBONE|DICT|INTERRES
    81   39  164 1    
    82   40   41 2    
    83   40   42 1    
    84   42   43 1    
    85   42   44 1    
    86   42  165 1    
    87   43  166 1    
    88   43  167 1    
    89   43  168 1    
    90   44   45 am   BACKBONE|DICT|INTERRES
    91   44  169 1    
    92   45   46 2    
    93   45   47 1    
    94   47   48 1    
    95   47   49 1    
    96   47  170 1    
    97   48  171 1    
    98   48  172 1    
    99   48  173 1    
   100   49   50 am   BACKBONE|DICT|INTERRES
   101   49  174 1    
   102   50   51 2    
   103   50   52 1    
   104   52   53 1    
   105   52   54 1    
   106   52  175 1    
   107   53  176 1    
   108   53  177 1    
   109   53  178 1    
   110   54   55 am   BACKBONE|DICT|INTERRES
   111   54  179 1    
   112   55   56 2    
   113   55   57 1    
   114   57   58 1    
   115   57   59 1    
   116   57  180 1    
   117   58  181 1    
   118   58  182 1    
   119   58  183 1    
   120   59   60 am   BACKBONE|DICT|INTERRES
   121   59  184 1    
   122   60   61 2    
   123   60   62 1    
   124   62   63 1    
   125   62   64 1    
   126   62  185 1    
   127   63  186 1    
   128   63  187 1    
   129   63  188 1    
   130   64   65 am   BACKBONE|DICT|INTERRES
   131   64  189 1    
   132   65   66 2    
   133   67   68 2    
   134   67   69 am   BACKBONE|DICT|INTERRES
   135   69   70 1    
   136   69  190 1    
   137   70   71 1    
   138   70   72 1    
   139   70  191 1    
   140   71  192 1    
   141   71  193 1    
   142   71  194 1    
   143   72   73 2    
   144   72   74 am   BACKBONE|DICT|INTERRES
   145   74   75 1    
   146   74  195 1    
   147   75   76 1    
   148   75   77 1    
   149   75  196 1    
   150   76  197 1    
   151   76  198 1    
   152   76  199 1    
   153   77   78 2    
   154   77   79 am   BACKBONE|DICT|INTERRES
   155   79   80 1    
   156   79  200 1    
   157   80   81 1    
   158   80   82 1    
   159   80  201 1    
   160   81  202 1    
   161   81  203 1    
   162   81  204 1    
   163   82   83 2    
   164   82   84 am   BACKBONE|DICT|INTERRES
   165   84   85 1    
   166   84  205 1    
   167   85   86 1    
   168   85   87 1    
   169   85  206 1    
   170   86  207 1    
   171   86  208 1    
   172   86  209 1    
   173   87   88 2    
   174   87   89 am   BACKBONE|DICT|INTERRES
   175   89   90 1    
   176   89  210 1    
   177   90   91 1    
   178   90   92 1    
   179   90  211 1    
   180   91  212 1    
   181   91  213 1    
   182   91  214 1    
   183   92   93 2    
   184   92   94 am   BACKBONE|DICT|INTERRES
   185   94   95 1    
   186   94  215 1    
   187   95   96 1    
   188   95   97 1    
   189   95  216 1    
   190   96  217 1    
   191   96  218 1    
   192   96  219 1    
   193   97   98 2    
   194   97   99 am   BACKBONE|DICT|INTERRES
   195   99  100 1    
   196   99  220 1    
   197  100  101 1    
   198  100  102 1    
   199  100  221 1    
   200  101  222 1    
   201  101  223 1    
   202  101  224 1    
   203  102  103 2    
   204  102  104 am   BACKBONE|DICT|INTERRES
   205  104  105 1    
   206  104  225 1    
   207  105  106 1    
   208  105  107 1    
   209  105  226 1    
   210  106  227 1    
   211  106  228 1    
   212  106  229 1    
   213  107  108 2    
   214  107  109 am   BACKBONE|DICT|INTERRES
   215  109  110 1    
   216  109  230 1    
   217  110  111 1    
   218  110  112 1    
   219  110  231 1    
   220  111  232 1    
   221  111  233 1    
   222  111  234 1    
   223  112  113 2    
   224  112  114 am   BACKBONE|DICT|INTERRES
   225  114  115 1    
   226  114  235 1    
   227  115  116 1    
   228  115  117 1    
   229  115  236 1    
   230  116  237 1    
   231  116  238 1    
   232  116  239 1    
   233  117  118 2    
   234  117  119 am   BACKBONE|DICT|INTERRES
   235  119  120 1    
   236  119  240 1    
   237  120  121 1    
   238  120  124 1    
   239  120  241 1    
   240  121  122 am   BACKBONE|DICT|INTERRES
   241  121  123 2    
   242  122  242 1    
   243  122  243 1    
   244  124  125 1    
   245  124  244 1    
   246  124  245 1    
   247  125  126 1    
   248  126  246 1    
   249  126  247 1    
@<TRIPOS>SUBSTRUCTURE
     1 UNK         1 GROUP             0       ****    0 ROOT    
