@<TRIPOS>MOLECULE
3R540
247   249    1
SMALL
USER_CHARGES


@<TRIPOS>ATOM
      1 CA          3.7405  -13.3057  -52.6368 C.3       0 UNK        -0.1800 
      2 C           3.5544  -13.1640  -51.1328 C.2       0 UNK         0.5000 
      3 O           4.2185  -12.3359  -50.5095 O.2       0 UNK        -0.5000 
      4 N           2.6572  -13.9715  -50.5523 N.am      1 UNK        -0.5000 
      5 CA          2.3205  -13.9670  -49.1224 C.3       1 UNK         0.1400 
      6 C6          1.5473  -15.2421  -48.6970 C.3       23 UNK        -0.0398 
      7 S7          2.5932  -16.7377  -48.7731 S.3       23 UNK        -0.2404 
      8 C8          2.2966  -17.3524  -50.4633 C.3       23 UNK        -0.0205 
      9 C9          1.2932  -18.4936  -50.4949 C.ar      23 UNK        -0.0193 
     10 C10        -0.0764  -18.2327  -50.5711 C.ar      23 UNK        -0.1150 
     11 C11        -0.9987  -19.2822  -50.6291 C.ar      23 UNK        -0.0193 
     12 C12        -0.5366  -20.6030  -50.6124 C.ar      23 UNK        -0.1150 
     13 C13         0.8313  -20.8795  -50.5276 C.ar      23 UNK        -0.0193 
     14 C14         1.7401  -19.8168  -50.4806 C.ar      23 UNK        -0.1150 
     15 C15         1.3112  -22.3285  -50.4923 C.3       23 UNK        -0.0205 
     16 S16         2.6203  -22.6441  -49.2560 S.3       23 UNK        -0.2404 
     17 C17         1.8086  -22.1027  -47.7121 C.3       23 UNK        -0.0398 
     18 CA          1.3426  -23.2640  -46.8060 C.3       11 UNK         0.1400 
     19 N           0.9491  -22.7758  -45.4840 N.am      11 UNK        -0.5000 
     20 C           0.6418  -23.5484  -44.4341 C.2       10 UNK         0.5000 
     21 O           0.7263  -24.7764  -44.4403 O.2       10 UNK        -0.5000 
     22 CA          0.0893  -22.8278  -43.1904 C.3       10 UNK         0.1400 
     23 CB          1.2252  -22.2163  -42.3573 C.3       10 UNK        -0.1800 
     24 N          -0.8866  -21.7917  -43.5374 N.am      10 UNK        -0.5000 
     25 C          -2.0669  -22.0391  -44.1245 C.2       9 UNK         0.5000 
     26 O          -2.4788  -23.1730  -44.3693 O.2       9 UNK        -0.5000 
     27 CA         -2.9141  -20.8236  -44.5443 C.3       9 UNK         0.1400 
     28 CB         -3.7186  -20.2860  -43.3520 C.3       9 UNK        -0.1800 
     29 N          -2.1232  -19.7434  -45.1372 N.am      9 UNK        -0.5000 
     30 C          -1.4166  -19.8502  -46.2721 C.2       8 UNK         0.5000 
     31 O          -1.3674  -20.8779  -46.9432 O.2       8 UNK        -0.5000 
     32 CA         -0.5628  -18.6362  -46.6863 C.3       8 UNK         0.1400 
     33 CB         -1.4274  -17.5077  -47.2626 C.3       8 UNK        -0.1800 
     34 N           0.2208  -18.1114  -45.5711 N.am      8 UNK        -0.5000 
     35 C           1.1496  -18.8010  -44.8954 C.2       7 UNK         0.5000 
     36 O           1.5002  -19.9465  -45.1771 O.2       7 UNK        -0.5000 
     37 CA          1.7394  -18.1100  -43.6561 C.3       7 UNK         0.1400 
     38 CB          2.8623  -17.1403  -44.0541 C.3       7 UNK        -0.1800 
     39 N           0.7083  -17.3990  -42.8973 N.am      7 UNK        -0.5000 
     40 C          -0.2660  -18.0053  -42.2025 C.2       6 UNK         0.5000 
     41 O          -0.3667  -19.2272  -42.0920 O.2       6 UNK        -0.5000 
     42 CA         -1.3274  -17.0947  -41.5569 C.3       6 UNK         0.1400 
     43 CB         -0.8202  -16.5314  -40.2212 C.3       6 UNK        -0.1800 
     44 N          -1.7258  -15.9902  -42.4311 N.am      6 UNK        -0.5000 
     45 C          -2.4016  -16.1406  -43.5796 C.2       5 UNK         0.5000 
     46 O          -2.8088  -17.2253  -43.9886 O.2       5 UNK        -0.5000 
     47 CA         -2.6202  -14.8792  -44.4369 C.3       5 UNK         0.1400 
     48 CB         -3.9557  -14.2084  -44.0871 C.3       5 UNK        -0.1800 
     49 N          -1.5407  -13.8990  -44.3109 N.am      5 UNK        -0.5000 
     50 C          -0.2609  -14.1092  -44.6411 C.2       4 UNK         0.5000 
     51 O           0.1540  -15.1764  -45.0976 O.2       4 UNK        -0.5000 
     52 CA          0.6995  -12.9267  -44.4063 C.3       4 UNK         0.1400 
     53 CB          2.1714  -13.2978  -44.6608 C.3       4 UNK        -0.1800 
     54 N           0.3351  -11.7723  -45.2301 N.am      4 UNK        -0.5000 
     55 C          -0.6546  -10.9097  -44.9528 C.2       3 UNK         0.5000 
     56 O          -1.3645  -11.0025  -43.9496 O.2       3 UNK        -0.5000 
     57 CA         -0.9119   -9.7570  -45.9439 C.3       3 UNK         0.1400 
     58 CB         -0.3097   -8.4483  -45.4099 C.3       3 UNK        -0.1800 
     59 N          -0.3865  -10.0030  -47.2863 N.am      3 UNK        -0.5000 
     60 C          -0.8998  -10.8703  -48.1684 C.2       2 UNK         0.5000 
     61 O          -1.9043  -11.5481  -47.9523 O.2       2 UNK        -0.5000 
     62 CA         -0.1626  -11.0161  -49.5181 C.3       2 UNK         0.1400 
     63 CB          0.7235   -9.8021  -49.8759 C.3       2 UNK        -0.1800 
     64 N           0.6278  -12.2492  -49.6051 N.am      2 UNK        -0.5000 
     65 C           1.5530  -12.6858  -48.7345 C.2       1 UNK         0.5000 
     66 O           1.8425  -12.1036  -47.6894 O.2       1 UNK        -0.5000 
     67 C           0.2224  -24.1019  -47.4581 C.2       11 UNK         0.5000 
     68 O           0.5016  -25.1842  -47.9706 O.2       11 UNK        -0.5000 
     69 N          -1.0264  -23.6217  -47.3889 N.am      12 UNK        -0.5000 
     70 CA         -2.2062  -24.3160  -47.9019 C.3       12 UNK         0.1400 
     71 CB         -3.4282  -23.3916  -47.8427 C.3       12 UNK        -0.1800 
     72 C          -2.4963  -25.6495  -47.1932 C.2       12 UNK         0.5000 
     73 O          -2.9334  -26.5950  -47.8482 O.2       12 UNK        -0.5000 
     74 N          -2.2345  -25.7085  -45.8811 N.am      13 UNK        -0.5000 
     75 CA         -2.3261  -26.9263  -45.0785 C.3       13 UNK         0.1400 
     76 CB         -2.3100  -26.5581  -43.5869 C.3       13 UNK        -0.1800 
     77 C          -1.2078  -27.9332  -45.4093 C.2       13 UNK         0.5000 
     78 O          -1.4728  -29.1348  -45.4615 O.2       13 UNK        -0.5000 
     79 N           0.0163  -27.4303  -45.6220 N.am      14 UNK        -0.5000 
     80 CA          1.1945  -28.2290  -45.9603 C.3       14 UNK         0.1400 
     81 CB          2.4603  -27.3868  -45.7348 C.3       14 UNK        -0.1800 
     82 C           1.1570  -28.7802  -47.3981 C.2       14 UNK         0.5000 
     83 O           1.4647  -29.9552  -47.6048 O.2       14 UNK        -0.5000 
     84 N           0.7949  -27.9210  -48.3565 N.am      15 UNK        -0.5000 
     85 CA          0.7186  -28.2111  -49.7831 C.3       15 UNK         0.1400 
     86 CB          1.6887  -27.2750  -50.5338 C.3       15 UNK        -0.1800 
     87 C          -0.7461  -28.0858  -50.2353 C.2       15 UNK         0.5000 
     88 O          -1.5330  -28.9972  -49.9739 O.2       15 UNK        -0.5000 
     89 N          -1.0888  -26.9827  -50.9092 N.am      16 UNK        -0.5000 
     90 CA         -2.4227  -26.6621  -51.4044 C.3       16 UNK         0.1400 
     91 CB         -2.6658  -27.3638  -52.7524 C.3       16 UNK        -0.1800 
     92 C          -2.5401  -25.1385  -51.5456 C.2       16 UNK         0.5000 
     93 O          -1.5193  -24.4554  -51.6704 O.2       16 UNK        -0.5000 
     94 N          -3.7779  -24.6320  -51.5009 N.am      17 UNK        -0.5000 
     95 CA         -4.0980  -23.2118  -51.6475 C.3       17 UNK         0.1400 
     96 CB         -5.5586  -22.9830  -51.2282 C.3       17 UNK        -0.1800 
     97 C          -3.8650  -22.7058  -53.0839 C.2       17 UNK         0.5000 
     98 O          -3.9780  -23.4787  -54.0387 O.2       17 UNK        -0.5000 
     99 N          -3.5757  -21.4062  -53.2008 N.am      18 UNK        -0.5000 
    100 CA        -3.2575  -20.7181  -54.4554 C.3       18 UNK         0.1400 
    101 CB        -1.7342  -20.4979  -54.5247 C.3       18 UNK        -0.1800 
    102 C         -4.0475  -19.4011  -54.6052 C.2       18 UNK         0.5000 
    103 O         -3.6087  -18.5118  -55.3362 O.2       18 UNK        -0.5000 
    104 N         -5.1926  -19.2986  -53.9099 N.am      19 UNK        -0.5000 
    105 CA        -6.0654  -18.1196  -53.8058 C.3       19 UNK         0.1400 
    106 CB        -6.7165  -17.7955  -55.1689 C.3       19 UNK        -0.1800 
    107 C         -5.3485  -16.9125  -53.1574 C.2       19 UNK         0.5000 
    108 O         -4.4186  -17.1162  -52.3746 O.2       19 UNK        -0.5000 
    109 N         -5.8053  -15.6856  -53.4519 N.am      20 UNK        -0.5000 
    110 CA        -5.2786  -14.4075  -52.9549 C.3       20 UNK         0.1400 
    111 CB        -3.9129  -14.1022  -53.6112 C.3       20 UNK        -0.1800 
    112 C         -5.2540  -14.3578  -51.4118 C.2       20 UNK         0.5000 
    113 O         -6.3176  -14.2644  -50.7971 O.2       20 UNK        -0.5000 
    114 N         -4.0594  -14.4805  -50.8153 N.am      21 UNK        -0.5000 
    115 CA        -3.8193  -14.5612  -49.3706 C.3       21 UNK         0.1400 
    116 CB        -2.3037  -14.6165  -49.1316 C.3       21 UNK        -0.1800 
    117 C         -4.5109  -15.7585  -48.6839 C.2       21 UNK         0.5000 
    118 O         -4.8034  -15.6826  -47.4906 O.2       21 UNK        -0.5000 
    119 N         -4.7761  -16.8235  -49.4515 N.am      22 UNK        -0.5000 
    120 CA        -5.5656  -17.9917  -49.0360 C.3       22 UNK         0.1400 
    121 C         -7.1061  -17.7589  -49.0948 C.2       22 UNK         0.5000 
    122 N         -7.6077  -16.6349  -49.5952 N.am      22 UNK        -0.7600 
    123 O         -7.8700  -18.6197  -48.6676 O.2       22 UNK        -0.5000 
    124 C124       -5.1694  -19.2600  -49.8378 C.3       23 UNK        -0.0398 
    125 S125       -3.4783  -19.8348  -49.4800 S.3       23 UNK        -0.2404 
    126 C126       -2.4855  -18.9748  -50.7408 C.3       23 UNK        -0.0205 
    127 H127        3.1047  -14.0874  -53.0533 H         1 UNK         0.0600 
    128 H128        4.7770  -13.5541  -52.8647 H         1 UNK         0.0600 
    129 H129        3.4962  -12.3673  -53.1347 H         1 UNK         0.0600 
    130 H130        2.1543  -14.6324  -51.1241 H         1 UNK         0.3000 
    131 H131        3.2584  -13.9467  -48.5623 H         1 UNK         0.0600 
    132 H132        1.2065  -15.1508  -47.6638 H         1 UNK         0.0800 
    133 H133        0.6502  -15.3832  -49.3001 H         1 UNK         0.0800 
    134 H134        1.9584  -16.5498  -51.1173 H         1 UNK         0.0800 
    135 H135        3.2487  -17.6887  -50.8767 H         1 UNK         0.0800 
    136 H136       -0.4224  -17.2099  -50.5951 H         1 UNK         0.1150 
    137 H137       -1.2449  -21.4182  -50.6576 H         1 UNK         0.1150 
    138 H138        2.8003  -20.0198  -50.4269 H         1 UNK         0.1150 
    139 H139        0.4764  -23.0023  -50.2921 H         1 UNK         0.0800 
    140 H140        1.6887  -22.5943  -51.4802 H         1 UNK         0.0800 
    141 H141        2.5397  -21.4971  -47.1751 H         1 UNK         0.0800 
    142 H142        0.9811  -21.4284  -47.9297 H         1 UNK         0.0800 
    143 H143        2.1954  -23.9285  -46.6524 H         1 UNK         0.0600 
    144 H144        0.8887  -21.7665  -45.3786 H         1 UNK         0.3000 
    145 H145       -0.4188  -23.5728  -42.5745 H         1 UNK         0.0600 
    146 H146        0.8427  -21.7672  -41.4405 H         1 UNK         0.0600 
    147 H147        1.9509  -22.9777  -42.0691 H         1 UNK         0.0600 
    148 H148        1.7610  -21.4436  -42.9086 H         1 UNK         0.0600 
    149 H149       -0.6374  -20.8332  -43.3161 H         1 UNK         0.3000 
    150 H150       -3.6229  -21.1624  -45.3023 H         1 UNK         0.0600 
    151 H151       -4.3198  -21.0746  -42.8978 H         1 UNK         0.0600 
    152 H152       -4.4018  -19.4955  -43.6631 H         1 UNK         0.0600 
    153 H153       -3.0675  -19.8801  -42.5774 H         1 UNK         0.0600 
    154 H154       -2.1579  -18.8453  -44.6613 H         1 UNK         0.3000 
    155 H155        0.1370  -18.9593  -47.4603 H         1 UNK         0.0600 
    156 H156       -0.8268  -16.6253  -47.4771 H         1 UNK         0.0600 
    157 H157       -2.2260  -17.2159  -46.5829 H         1 UNK         0.0600 
    158 H158       -1.8971  -17.8130  -48.1940 H         1 UNK         0.0600 
    159 H159        0.0360  -17.1527  -45.2933 H         1 UNK         0.3000 
    160 H160        2.1681  -18.8798  -43.0109 H         1 UNK         0.0600 
    161 H161        2.5135  -16.3798  -44.7528 H         1 UNK         0.0600 
    162 H162        3.6787  -17.6751  -44.5410 H         1 UNK         0.0600 
    163 H163        3.2782  -16.6345  -43.1827 H         1 UNK         0.0600 
    164 H164        0.6878  -16.3947  -42.9920 H         1 UNK         0.3000 
    165 H165       -2.2108  -17.7045  -41.3557 H         1 UNK         0.0600 
    166 H166        0.0500  -15.8881  -40.3571 H         1 UNK         0.0600 
    167 H167       -1.5937  -15.9490  -39.7202 H         1 UNK         0.0600 
    168 H168       -0.5311  -17.3362  -39.5438 H         1 UNK         0.0600 
    169 H169       -1.4350  -15.0621  -42.1620 H         1 UNK         0.3000 
    170 H170       -2.6620  -15.1902  -45.4821 H         1 UNK         0.0600 
    171 H171       -4.7844  -14.9083  -44.2039 H         1 UNK         0.0600 
    172 H172       -3.9693  -13.8477  -43.0579 H         1 UNK         0.0600 
    173 H173       -4.1539  -13.3614  -44.7443 H         1 UNK         0.0600 
    174 H174       -1.7924  -12.9741  -43.9773 H         1 UNK         0.3000 
    175 H175        0.6164  -12.6443  -43.3548 H         1 UNK         0.0600 
    176 H176        2.8242  -12.4329  -44.5432 H         1 UNK         0.0600 
    177 H177        2.5065  -14.0540  -43.9506 H         1 UNK         0.0600 
    178 H178        2.3258  -13.7005  -45.6619 H         1 UNK         0.0600 
    179 H179        0.8458  -11.6727  -46.1036 H         1 UNK         0.3000 
    180 H180       -1.9937   -9.6282  -46.0191 H         1 UNK         0.0600 
    181 H181       -0.5493   -7.6082  -46.0621 H         1 UNK         0.0600 
    182 H182       -0.7029   -8.2116  -44.4203 H         1 UNK         0.0600 
    183 H183        0.7761   -8.5103  -45.3255 H         1 UNK         0.0600 
    184 H184        0.4613   -9.5147  -47.5356 H         1 UNK         0.3000 
    185 H185       -0.9399  -11.0898  -50.2802 H         1 UNK         0.0600 
    186 H186        1.1091   -9.8918  -50.8916 H         1 UNK         0.0600 
    187 H187        0.1563   -8.8714  -49.8304 H         1 UNK         0.0600 
    188 H188        1.5820   -9.7050  -49.2104 H         1 UNK         0.0600 
    189 H189        0.4744  -12.7991  -50.4374 H         1 UNK         0.3000 
    190 H190       -1.1743  -22.6853  -47.0159 H         1 UNK         0.3000 
    191 H191       -2.0030  -24.5425  -48.9457 H         1 UNK         0.0600 
    192 H192       -3.2562  -22.4842  -48.4176 H         1 UNK         0.0600 
    193 H193       -3.6662  -23.1013  -46.8199 H         1 UNK         0.0600 
    194 H194       -4.3087  -23.8811  -48.2595 H         1 UNK         0.0600 
    195 H195       -1.9541  -24.8592  -45.4015 H         1 UNK         0.3000 
    196 H196       -3.2825  -27.4065  -45.2961 H         1 UNK         0.0600 
    197 H197       -2.4076  -27.4482  -42.9642 H         1 UNK         0.0600 
    198 H198       -3.1367  -25.8928  -43.3370 H         1 UNK         0.0600 
    199 H199       -1.3834  -26.0586  -43.3033 H         1 UNK         0.0600 
    200 H200        0.1605  -26.4327  -45.5062 H         1 UNK         0.3000 
    201 H201        1.2341  -29.0811  -45.2784 H         1 UNK         0.0600 
    202 H202        2.5366  -27.0612  -44.6972 H         1 UNK         0.0600 
    203 H203        2.4701  -26.4967  -46.3647 H         1 UNK         0.0600 
    204 H204        3.3586  -27.9617  -45.9630 H         1 UNK         0.0600 
    205 H205        0.5671  -26.9623  -48.0946 H         1 UNK         0.3000 
    206 H206        1.0240  -29.2394  -49.9865 H         1 UNK         0.0600 
    207 H207        2.7195  -27.4715  -50.2388 H         1 UNK         0.0600 
    208 H208        1.6289  -27.4277  -51.6121 H         1 UNK         0.0600 
    209 H209        1.4882  -26.2220  -50.3313 H         1 UNK         0.0600 
    210 H210       -0.4089  -26.2456  -51.0498 H         1 UNK         0.3000 
    211 H211       -3.1653  -26.9970  -50.6768 H         1 UNK         0.0600 
    212 H212       -1.9300  -27.0615  -53.4986 H         1 UNK         0.0600 
    213 H213       -3.6531  -27.1225  -53.1480 H         1 UNK         0.0600 
    214 H214       -2.6141  -28.4478  -52.6506 H         1 UNK         0.0600 
    215 H215       -4.5636  -25.2618  -51.4316 H         1 UNK         0.3000 
    216 H216       -3.4508  -22.6482  -50.9722 H         1 UNK         0.0600 
    217 H217       -5.8315  -21.9307  -51.3098 H         1 UNK         0.0600 
    218 H218       -5.7245  -23.2787  -50.1924 H         1 UNK         0.0600 
    219 H219       -6.2497  -23.5491  -51.8540 H         1 UNK         0.0600 
    220 H220       -3.5139  -20.8449  -52.3641 H         1 UNK         0.3000 
    221 H221       -3.5486  -21.3365  -55.3068 H         1 UNK         0.0600 
    222 H222       -1.1952  -21.4403  -54.4255 H         1 UNK         0.0600 
    223 H223       -1.3874  -19.8311  -53.7344 H         1 UNK         0.0600 
    224 H224       -1.4410  -20.0585  -55.4788 H         1 UNK         0.0600 
    225 H225       -5.4717  -20.0957  -53.3581 H         1 UNK         0.3000 
    226 H226       -6.8640  -18.3977  -53.1168 H         1 UNK         0.0600 
    227 H227       -7.1452  -18.6904  -55.6203 H         1 UNK         0.0600 
    228 H228       -7.5290  -17.0764  -55.0615 H         1 UNK         0.0600 
    229 H229       -5.9973  -17.3798  -55.8756 H         1 UNK         0.0600 
    230 H230       -6.5986  -15.6131  -54.0727 H         1 UNK         0.3000 
    231 H231       -5.9778  -13.6333  -53.2740 H         1 UNK         0.0600 
    232 H232       -3.5136  -13.1478  -53.2653 H         1 UNK         0.0600 
    233 H233       -4.0129  -14.0325  -54.6944 H         1 UNK         0.0600 
    234 H234       -3.1689  -14.8720  -53.4029 H         1 UNK         0.0600 
    235 H235       -3.2521  -14.5980  -51.4093 H         1 UNK         0.3000 
    236 H236       -4.2083  -13.6473  -48.9171 H         1 UNK         0.0600 
    237 H237       -1.8684  -15.5302  -49.5359 H         1 UNK         0.0600 
    238 H238       -1.8013  -13.7705  -49.5983 H         1 UNK         0.0600 
    239 H239       -2.0752  -14.5789  -48.0655 H         1 UNK         0.0600 
    240 H240       -4.5196  -16.7935  -50.4335 H         1 UNK         0.3000 
    241 H241       -5.3425  -18.1892  -47.9856 H         1 UNK         0.0600 
    242 H242       -7.0124  -15.8876  -49.9368 H         1 UNK         0.3800 
    243 H243       -8.6076  -16.5122  -49.6112 H         1 UNK         0.3800 
    244 H244       -5.8294  -20.0902  -49.5808 H         1 UNK         0.0800 
    245 H245       -5.2912  -19.1043  -50.9087 H         1 UNK         0.0800 
    246 H246       -2.8319  -19.2353  -51.7379 H         1 UNK         0.0800 
    247 H247       -2.6424  -17.9026  -50.6346 H         1 UNK         0.0800 
@<TRIPOS>BOND
     1    1    2 1    
     2    1  127 1    
     3    1  128 1    
     4    1  129 1    
     5    2    3 2    
     6    2    4 am   BACKBONE|DICT|INTERRES
     7    4    5 1    
     8    4  130 1    
     9    5    6 1    
    10    5   65 1    
    11    5  131 1    
    12    6    7 1    
    13    6  132 1    
    14    6  133 1    
    15    7    8 1    
    16    8    9 1    
    17    8  134 1    
    18    8  135 1    
    19    9   10 ar   
    20    9   14 ar   
    21   10   11 ar   
    22   10  136 1    
    23   11   12 ar   
    24   11  126 1    
    25   12   13 ar   
    26   12  137 1    
    27   13   14 ar   
    28   13   15 1    
    29   14  138 1    
    30   15   16 1    
    31   15  139 1    
    32   15  140 1    
    33   16   17 1    
    34   17   18 1    
    35   17  141 1    
    36   17  142 1    
    37   18   19 1    
    38   18   67 1    
    39   18  143 1    
    40   19   20 am   BACKBONE|DICT|INTERRES
    41   19  144 1    
    42   20   21 2    
    43   20   22 1    
    44   22   23 1    
    45   22   24 1    
    46   22  145 1    
    47   23  146 1    
    48   23  147 1    
    49   23  148 1    
    50   24   25 am   BACKBONE|DICT|INTERRES
    51   24  149 1    
    52   25   26 2    
    53   25   27 1    
    54   27   28 1    
    55   27   29 1    
    56   27  150 1    
    57   28  151 1    
    58   28  152 1    
    59   28  153 1    
    60   29   30 am   BACKBONE|DICT|INTERRES
    61   29  154 1    
    62   30   31 2    
    63   30   32 1    
    64   32   33 1    
    65   32   34 1    
    66   32  155 1    
    67   33  156 1    
    68   33  157 1    
    69   33  158 1    
    70   34   35 am   BACKBONE|DICT|INTERRES
    71   34  159 1    
    72   35   36 2    
    73   35   37 1    
    74   37   38 1    
    75   37   39 1    
    76   37  160 1    
    77   38  161 1    
    78   38  162 1    
    79   38  163 1    
    80   39   40 am   BACKBONE|DICT|INTERRES
    81   39  164 1    
    82   40   41 2    
    83   40   42 1    
    84   42   43 1    
    85   42   44 1    
    86   42  165 1    
    87   43  166 1    
    88   43  167 1    
    89   43  168 1    
    90   44   45 am   BACKBONE|DICT|INTERRES
    91   44  169 1    
    92   45   46 2    
    93   45   47 1    
    94   47   48 1    
    95   47   49 1    
    96   47  170 1    
    97   48  171 1    
    98   48  172 1    
    99   48  173 1    
   100   49   50 am   BACKBONE|DICT|INTERRES
   101   49  174 1    
   102   50   51 2    
   103   50   52 1    
   104   52   53 1    
   105   52   54 1    
   106   52  175 1    
   107   53  176 1    
   108   53  177 1    
   109   53  178 1    
   110   54   55 am   BACKBONE|DICT|INTERRES
   111   54  179 1    
   112   55   56 2    
   113   55   57 1    
   114   57   58 1    
   115   57   59 1    
   116   57  180 1    
   117   58  181 1    
   118   58  182 1    
   119   58  183 1    
   120   59   60 am   BACKBONE|DICT|INTERRES
   121   59  184 1    
   122   60   61 2    
   123   60   62 1    
   124   62   63 1    
   125   62   64 1    
   126   62  185 1    
   127   63  186 1    
   128   63  187 1    
   129   63  188 1    
   130   64   65 am   BACKBONE|DICT|INTERRES
   131   64  189 1    
   132   65   66 2    
   133   67   68 2    
   134   67   69 am   BACKBONE|DICT|INTERRES
   135   69   70 1    
   136   69  190 1    
   137   70   71 1    
   138   70   72 1    
   139   70  191 1    
   140   71  192 1    
   141   71  193 1    
   142   71  194 1    
   143   72   73 2    
   144   72   74 am   BACKBONE|DICT|INTERRES
   145   74   75 1    
   146   74  195 1    
   147   75   76 1    
   148   75   77 1    
   149   75  196 1    
   150   76  197 1    
   151   76  198 1    
   152   76  199 1    
   153   77   78 2    
   154   77   79 am   BACKBONE|DICT|INTERRES
   155   79   80 1    
   156   79  200 1    
   157   80   81 1    
   158   80   82 1    
   159   80  201 1    
   160   81  202 1    
   161   81  203 1    
   162   81  204 1    
   163   82   83 2    
   164   82   84 am   BACKBONE|DICT|INTERRES
   165   84   85 1    
   166   84  205 1    
   167   85   86 1    
   168   85   87 1    
   169   85  206 1    
   170   86  207 1    
   171   86  208 1    
   172   86  209 1    
   173   87   88 2    
   174   87   89 am   BACKBONE|DICT|INTERRES
   175   89   90 1    
   176   89  210 1    
   177   90   91 1    
   178   90   92 1    
   179   90  211 1    
   180   91  212 1    
   181   91  213 1    
   182   91  214 1    
   183   92   93 2    
   184   92   94 am   BACKBONE|DICT|INTERRES
   185   94   95 1    
   186   94  215 1    
   187   95   96 1    
   188   95   97 1    
   189   95  216 1    
   190   96  217 1    
   191   96  218 1    
   192   96  219 1    
   193   97   98 2    
   194   97   99 am   BACKBONE|DICT|INTERRES
   195   99  100 1    
   196   99  220 1    
   197  100  101 1    
   198  100  102 1    
   199  100  221 1    
   200  101  222 1    
   201  101  223 1    
   202  101  224 1    
   203  102  103 2    
   204  102  104 am   BACKBONE|DICT|INTERRES
   205  104  105 1    
   206  104  225 1    
   207  105  106 1    
   208  105  107 1    
   209  105  226 1    
   210  106  227 1    
   211  106  228 1    
   212  106  229 1    
   213  107  108 2    
   214  107  109 am   BACKBONE|DICT|INTERRES
   215  109  110 1    
   216  109  230 1    
   217  110  111 1    
   218  110  112 1    
   219  110  231 1    
   220  111  232 1    
   221  111  233 1    
   222  111  234 1    
   223  112  113 2    
   224  112  114 am   BACKBONE|DICT|INTERRES
   225  114  115 1    
   226  114  235 1    
   227  115  116 1    
   228  115  117 1    
   229  115  236 1    
   230  116  237 1    
   231  116  238 1    
   232  116  239 1    
   233  117  118 2    
   234  117  119 am   BACKBONE|DICT|INTERRES
   235  119  120 1    
   236  119  240 1    
   237  120  121 1    
   238  120  124 1    
   239  120  241 1    
   240  121  122 am   BACKBONE|DICT|INTERRES
   241  121  123 2    
   242  122  242 1    
   243  122  243 1    
   244  124  125 1    
   245  124  244 1    
   246  124  245 1    
   247  125  126 1    
   248  126  246 1    
   249  126  247 1    
@<TRIPOS>SUBSTRUCTURE
     1 UNK         1 GROUP             0       ****    0 ROOT    
