@<TRIPOS>MOLECULE
3R540
247   249    1
SMALL
USER_CHARGES


@<TRIPOS>ATOM
      1 CA          5.8782  -12.9696  -45.1522 C.3       0 UNK        -0.1800 
      2 C           4.5094  -12.9832  -45.8151 C.2       0 UNK         0.5000 
      3 O           3.5763  -12.3552  -45.3097 O.2       0 UNK        -0.5000 
      4 N           4.3848  -13.6768  -46.9567 N.am      1 UNK        -0.5000 
      5 CA          3.1283  -13.8625  -47.6983 C.3       1 UNK         0.1400 
      6 C6          3.2485  -14.8280  -48.9028 C.3       23 UNK        -0.0398 
      7 S7          4.2046  -16.3612  -48.6136 S.3       23 UNK        -0.2404 
      8 C8          2.9226  -17.6642  -48.5378 C.3       23 UNK        -0.0205 
      9 C9          2.2784  -18.0875  -49.8641 C.ar      23 UNK        -0.0193 
     10 C10         2.2063  -17.2439  -50.9790 C.ar      23 UNK        -0.1150 
     11 C11         1.4921  -17.6160  -52.1188 C.ar      23 UNK        -0.0193 
     12 C12         0.9105  -18.8829  -52.1778 C.ar      23 UNK        -0.1150 
     13 C13         1.0200  -19.7724  -51.1068 C.ar      23 UNK        -0.0193 
     14 C14         1.6852  -19.3536  -49.9445 C.ar      23 UNK        -0.1150 
     15 C15         0.3863  -21.1560  -51.2625 C.3       23 UNK        -0.0205 
     16 S16         0.9792  -22.4305  -50.0981 S.3       23 UNK        -0.2404 
     17 C17        -0.2950  -22.3214  -48.8039 C.3       23 UNK        -0.0398 
     18 CA         -0.2087  -23.5121  -47.8239 C.3       11 UNK         0.1400 
     19 N           0.9867  -23.4428  -46.9805 N.am      11 UNK        -0.5000 
     20 C           1.3992  -24.4008  -46.1401 C.2       10 UNK         0.5000 
     21 O           0.8442  -25.4938  -46.0309 O.2       10 UNK        -0.5000 
     22 CA          2.5879  -24.0572  -45.2188 C.3       10 UNK         0.1400 
     23 CB          3.8996  -24.5738  -45.8272 C.3       10 UNK        -0.1800 
     24 N           2.7279  -22.6263  -44.9123 N.am      10 UNK        -0.5000 
     25 C           1.7793  -21.8558  -44.3604 C.2       9 UNK         0.5000 
     26 O           0.6542  -22.2739  -44.0763 O.2       9 UNK        -0.5000 
     27 CA          2.1390  -20.3705  -44.1501 C.3       9 UNK         0.1400 
     28 CB          2.3322  -19.6617  -45.5025 C.3       9 UNK        -0.1800 
     29 N           1.1027  -19.6556  -43.4090 N.am      9 UNK        -0.5000 
     30 C           0.7991  -19.8122  -42.1157 C.2       8 UNK         0.5000 
     31 O           1.4691  -20.4977  -41.3417 O.2       8 UNK        -0.5000 
     32 CA         -0.4765  -19.1141  -41.5894 C.3       8 UNK         0.1400 
     33 CB         -0.1305  -17.8028  -40.8567 C.3       8 UNK        -0.1800 
     34 N          -1.5402  -18.9071  -42.5893 N.am      8 UNK        -0.5000 
     35 C          -1.5322  -18.1020  -43.6609 C.2       7 UNK         0.5000 
     36 O          -0.5870  -17.3689  -43.9559 O.2       7 UNK        -0.5000 
     37 CA         -2.7813  -18.1490  -44.5634 C.3       7 UNK         0.1400 
     38 CB         -3.8719  -17.2025  -44.0411 C.3       7 UNK        -0.1800 
     39 N          -2.4587  -17.7923  -45.9437 N.am      7 UNK        -0.5000 
     40 C          -1.6983  -18.5276  -46.7681 C.2       6 UNK         0.5000 
     41 O          -1.2914  -19.6567  -46.4912 O.2       6 UNK        -0.5000 
     42 CA         -1.3319  -17.9096  -48.1328 C.3       6 UNK         0.1400 
     43 CB         -2.0263  -18.6603  -49.2699 C.3       6 UNK        -0.1800 
     44 N          -1.6515  -16.4804  -48.2311 N.am      6 UNK        -0.5000 
     45 C          -0.8868  -15.5241  -47.6889 C.2       5 UNK         0.5000 
     46 O           0.2102  -15.7610  -47.1795 O.2       5 UNK        -0.5000 
     47 CA         -1.4111  -14.0695  -47.7092 C.3       5 UNK         0.1400 
     48 CB         -2.9511  -13.9486  -47.7370 C.3       5 UNK        -0.1800 
     49 N          -0.8258  -13.3077  -46.5969 N.am      5 UNK        -0.5000 
     50 C          -1.0243  -13.5308  -45.2881 C.2       4 UNK         0.5000 
     51 O          -1.9451  -14.2157  -44.8431 O.2       4 UNK        -0.5000 
     52 CA         -0.0087  -12.9310  -44.2970 C.3       4 UNK         0.1400 
     53 CB          0.9745  -14.0169  -43.8305 C.3       4 UNK        -0.1800 
     54 N           0.7629  -11.8019  -44.8191 N.am      4 UNK        -0.5000 
     55 C           0.3064  -10.5434  -44.8761 C.2       3 UNK         0.5000 
     56 O          -0.8538  -10.2253  -44.6132 O.2       3 UNK        -0.5000 
     57 CA          1.3177   -9.4539  -45.2692 C.3       3 UNK         0.1400 
     58 CB          2.2231   -9.1059  -44.0767 C.3       3 UNK        -0.1800 
     59 N           2.1499   -9.8867  -46.3886 N.am      3 UNK        -0.5000 
     60 C           1.9961   -9.4782  -47.6555 C.2       2 UNK         0.5000 
     61 O           1.1782   -8.6277  -48.0088 O.2       2 UNK        -0.5000 
     62 CA          2.8994  -10.1387  -48.7179 C.3       2 UNK         0.1400 
     63 CB          4.1430   -9.2752  -48.9781 C.3       2 UNK        -0.1800 
     64 N           3.3274  -11.4934  -48.3620 N.am      2 UNK        -0.5000 
     65 C           2.5029  -12.5360  -48.1850 C.2       1 UNK         0.5000 
     66 O           1.2899  -12.4720  -48.3683 O.2       1 UNK        -0.5000 
     67 C          -1.5183  -23.6350  -47.0181 C.2       11 UNK         0.5000 
     68 O          -2.4777  -24.2002  -47.5428 O.2       11 UNK        -0.5000 
     69 N          -1.5532  -23.1344  -45.7752 N.am      12 UNK        -0.5000 
     70 CA         -2.6992  -23.2800  -44.8784 C.3       12 UNK         0.1400 
     71 CB         -2.5968  -22.2530  -43.7421 C.3       12 UNK        -0.1800 
     72 C          -2.7957  -24.7083  -44.3159 C.2       12 UNK         0.5000 
     73 O          -3.8962  -25.2505  -44.2198 O.2       12 UNK        -0.5000 
     74 N          -1.6386  -25.3005  -43.9870 N.am      13 UNK        -0.5000 
     75 CA         -1.5154  -26.6727  -43.4925 C.3       13 UNK         0.1400 
     76 CB         -0.1247  -26.8679  -42.8687 C.3       13 UNK        -0.1800 
     77 C          -1.7742  -27.7129  -44.5970 C.2       13 UNK         0.5000 
     78 O          -2.4480  -28.7131  -44.3487 O.2       13 UNK        -0.5000 
     79 N          -1.2589  -27.4410  -45.8037 N.am      14 UNK        -0.5000 
     80 CA         -1.4547  -28.2572  -47.0041 C.3       14 UNK         0.1400 
     81 CB         -0.3832  -27.8721  -48.0367 C.3       14 UNK        -0.1800 
     82 C          -2.8607  -28.1168  -47.6232 C.2       14 UNK         0.5000 
     83 O          -3.2273  -28.9351  -48.4667 O.2       14 UNK        -0.5000 
     84 N          -3.5982  -27.0693  -47.2235 N.am      15 UNK        -0.5000 
     85 CA         -4.9097  -26.6385  -47.7251 C.3       15 UNK         0.1400 
     86 CB         -5.9847  -27.7232  -47.5096 C.3       15 UNK        -0.1800 
     87 C          -4.8768  -26.1099  -49.1763 C.2       15 UNK         0.5000 
     88 O          -5.9281  -25.9570  -49.7993 O.2       15 UNK        -0.5000 
     89 N          -3.6760  -25.7839  -49.6738 N.am      16 UNK        -0.5000 
     90 CA         -3.4342  -25.1386  -50.9637 C.3       16 UNK         0.1400 
     91 CB         -1.9331  -25.1942  -51.2822 C.3       16 UNK        -0.1800 
     92 C          -3.9358  -23.6843  -50.9934 C.2       16 UNK         0.5000 
     93 O          -4.3237  -23.2021  -52.0574 O.2       16 UNK        -0.5000 
     94 N          -3.9724  -23.0329  -49.8200 N.am      17 UNK        -0.5000 
     95 CA         -4.4678  -21.6699  -49.6009 C.3       17 UNK         0.1400 
     96 CB         -4.2353  -21.2867  -48.1304 C.3       17 UNK        -0.1800 
     97 C          -5.9486  -21.4568  -49.9787 C.2       17 UNK         0.5000 
     98 O          -6.3628  -20.3142  -50.1665 O.2       17 UNK        -0.5000 
     99 N          -6.7194  -22.5469  -50.0994 N.am      18 UNK        -0.5000 
    100 CA        -8.0978  -22.5363  -50.5887 C.3       18 UNK         0.1400 
    101 CB        -8.7485  -23.8901  -50.2666 C.3       18 UNK        -0.1800 
    102 C         -8.2049  -22.2328  -52.0982 C.2       18 UNK         0.5000 
    103 O         -9.2578  -21.7703  -52.5394 O.2       18 UNK        -0.5000 
    104 N         -7.1324  -22.4996  -52.8569 N.am      19 UNK        -0.5000 
    105 CA        -7.0441  -22.2651  -54.2972 C.3       19 UNK         0.1400 
    106 CB        -6.6673  -23.5793  -55.0014 C.3       19 UNK        -0.1800 
    107 C         -6.0166  -21.1649  -54.6001 C.2       19 UNK         0.5000 
    108 O         -6.3491  -20.1818  -55.2631 O.2       19 UNK        -0.5000 
    109 N         -4.7918  -21.3337  -54.0893 N.am      20 UNK        -0.5000 
    110 CA        -3.6753  -20.4055  -54.2339 C.3       20 UNK         0.1400 
    111 CB        -2.3748  -21.2196  -54.3717 C.3       20 UNK        -0.1800 
    112 C         -3.6505  -19.4588  -53.0242 C.2       20 UNK         0.5000 
    113 O         -2.7453  -19.5434  -52.1973 O.2       20 UNK        -0.5000 
    114 N         -4.6781  -18.6060  -52.9191 N.am      21 UNK        -0.5000 
    115 CA        -4.9112  -17.7097  -51.7825 C.3       21 UNK         0.1400 
    116 CB        -6.3286  -17.1282  -51.8888 C.3       21 UNK        -0.1800 
    117 C         -3.8738  -16.5807  -51.6339 C.2       21 UNK         0.5000 
    118 O         -3.6648  -16.1011  -50.5187 O.2       21 UNK        -0.5000 
    119 N         -3.2412  -16.1854  -52.7475 N.am      22 UNK        -0.5000 
    120 CA        -2.1962  -15.1479  -52.8206 C.3       22 UNK         0.1400 
    121 C         -2.7031  -13.6891  -52.5842 C.2       22 UNK         0.5000 
    122 N         -4.0025  -13.4243  -52.6479 N.am      22 UNK        -0.7600 
    123 O         -1.9141  -12.7742  -52.3667 O.2       22 UNK        -0.5000 
    124 C124       -0.9494  -15.5125  -51.9624 C.3       23 UNK        -0.0398 
    125 S125        0.6323  -15.0295  -52.7420 S.3       23 UNK        -0.2404 
    126 C126        1.3187  -16.6375  -53.2744 C.3       23 UNK        -0.0205 
    127 H127        5.8096  -13.3831  -44.1461 H         1 UNK         0.0600 
    128 H128        6.2476  -11.9469  -45.0774 H         1 UNK         0.0600 
    129 H129        6.6062  -13.5559  -45.7132 H         1 UNK         0.0600 
    130 H130        5.1809  -14.1796  -47.3238 H         1 UNK         0.3000 
    131 H131        2.4225  -14.3037  -46.9926 H         1 UNK         0.0600 
    132 H132        2.2386  -15.0889  -49.2227 H         1 UNK         0.0800 
    133 H133        3.7181  -14.3263  -49.7515 H         1 UNK         0.0800 
    134 H134        2.1409  -17.3527  -47.8460 H         1 UNK         0.0800 
    135 H135        3.3923  -18.5389  -48.0865 H         1 UNK         0.0800 
    136 H136        2.6682  -16.2717  -50.9740 H         1 UNK         0.1150 
    137 H137        0.3629  -19.1800  -53.0615 H         1 UNK         0.1150 
    138 H138        1.7424  -20.0075  -49.0874 H         1 UNK         0.1150 
    139 H139       -0.6983  -21.0597  -51.1997 H         1 UNK         0.0800 
    140 H140        0.5950  -21.5216  -52.2691 H         1 UNK         0.0800 
    141 H141       -1.2656  -22.3009  -49.3019 H         1 UNK         0.0800 
    142 H142       -0.1975  -21.3720  -48.2756 H         1 UNK         0.0800 
    143 H143       -0.1305  -24.4294  -48.4102 H         1 UNK         0.0600 
    144 H144        1.5060  -22.5787  -47.0089 H         1 UNK         0.3000 
    145 H145        2.4209  -24.5778  -44.2737 H         1 UNK         0.0600 
    146 H146        4.7359  -24.4328  -45.1422 H         1 UNK         0.0600 
    147 H147        3.8363  -25.6412  -46.0441 H         1 UNK         0.0600 
    148 H148        4.1385  -24.0628  -46.7608 H         1 UNK         0.0600 
    149 H149        3.6240  -22.2134  -45.1275 H         1 UNK         0.3000 
    150 H150        3.0698  -20.3189  -43.5822 H         1 UNK         0.0600 
    151 H151        1.4357  -19.7230  -46.1209 H         1 UNK         0.0600 
    152 H152        3.1535  -20.1009  -46.0693 H         1 UNK         0.0600 
    153 H153        2.5670  -18.6059  -45.3640 H         1 UNK         0.0600 
    154 H154        0.5110  -19.0325  -43.9464 H         1 UNK         0.3000 
    155 H155       -0.9061  -19.7926  -40.8508 H         1 UNK         0.0600 
    156 H156        0.3514  -17.0800  -41.5155 H         1 UNK         0.0600 
    157 H157        0.5542  -17.9909  -40.0289 H         1 UNK         0.0600 
    158 H158       -1.0229  -17.3356  -40.4404 H         1 UNK         0.0600 
    159 H159       -2.3583  -19.4818  -42.4456 H         1 UNK         0.3000 
    160 H160       -3.1818  -19.1633  -44.5650 H         1 UNK         0.0600 
    161 H161       -3.5287  -16.1684  -44.0133 H         1 UNK         0.0600 
    162 H162       -4.1731  -17.4734  -43.0285 H         1 UNK         0.0600 
    163 H163       -4.7638  -17.2434  -44.6666 H         1 UNK         0.0600 
    164 H164       -2.6914  -16.8533  -46.2289 H         1 UNK         0.3000 
    165 H165       -0.2569  -18.0418  -48.2623 H         1 UNK         0.0600 
    166 H166       -1.7027  -18.2699  -50.2332 H         1 UNK         0.0600 
    167 H167       -1.7775  -19.7207  -49.2566 H         1 UNK         0.0600 
    168 H168       -3.1108  -18.5730  -49.2100 H         1 UNK         0.0600 
    169 H169       -2.5098  -16.2353  -48.7134 H         1 UNK         0.3000 
    170 H170       -1.0334  -13.6179  -48.6268 H         1 UNK         0.0600 
    171 H171       -3.3510  -14.2627  -48.7002 H         1 UNK         0.0600 
    172 H172       -3.4288  -14.5562  -46.9681 H         1 UNK         0.0600 
    173 H173       -3.2656  -12.9157  -47.5878 H         1 UNK         0.0600 
    174 H174       -0.0236  -12.7490  -46.8652 H         1 UNK         0.3000 
    175 H175       -0.5695  -12.5927  -43.4229 H         1 UNK         0.0600 
    176 H176        0.4448  -14.8512  -43.3688 H         1 UNK         0.0600 
    177 H177        1.5522  -14.4197  -44.6633 H         1 UNK         0.0600 
    178 H178        1.6754  -13.6280  -43.0918 H         1 UNK         0.0600 
    179 H179        1.7417  -11.9839  -45.0237 H         1 UNK         0.3000 
    180 H180        0.7548   -8.5562  -45.5334 H         1 UNK         0.0600 
    181 H181        2.8248   -9.9595  -43.7615 H         1 UNK         0.0600 
    182 H182        1.6322   -8.7844  -43.2181 H         1 UNK         0.0600 
    183 H183        2.9038   -8.2918  -44.3259 H         1 UNK         0.0600 
    184 H184        2.8291  -10.6123  -46.1903 H         1 UNK         0.3000 
    185 H185        2.3245  -10.2022  -49.6441 H         1 UNK         0.0600 
    186 H186        3.8613   -8.2632  -49.2722 H         1 UNK         0.0600 
    187 H187        4.7707   -9.1960  -48.0896 H         1 UNK         0.0600 
    188 H188        4.7499   -9.6888  -49.7837 H         1 UNK         0.0600 
    189 H189        4.3126  -11.6280  -48.1872 H         1 UNK         0.3000 
    190 H190       -0.7264  -22.6940  -45.3816 H         1 UNK         0.3000 
    191 H191       -3.6104  -23.0706  -45.4427 H         1 UNK         0.0600 
    192 H192       -2.4130  -21.2568  -44.1388 H         1 UNK         0.0600 
    193 H193       -3.5210  -22.2175  -43.1644 H         1 UNK         0.0600 
    194 H194       -1.7865  -22.4877  -43.0510 H         1 UNK         0.0600 
    195 H195       -0.7799  -24.7876  -44.1276 H         1 UNK         0.3000 
    196 H196       -2.2620  -26.8229  -42.7097 H         1 UNK         0.0600 
    197 H197       -0.0188  -27.8744  -42.4621 H         1 UNK         0.0600 
    198 H198        0.0415  -26.1678  -42.0498 H         1 UNK         0.0600 
    199 H199        0.6722  -26.7245  -43.5990 H         1 UNK         0.0600 
    200 H200       -0.6465  -26.6341  -45.8990 H         1 UNK         0.3000 
    201 H201       -1.3143  -29.3067  -46.7376 H         1 UNK         0.0600 
    202 H202       -0.4585  -28.4915  -48.9314 H         1 UNK         0.0600 
    203 H203        0.6205  -28.0061  -47.6327 H         1 UNK         0.0600 
    204 H204       -0.4815  -26.8320  -48.3484 H         1 UNK         0.0600 
    205 H205       -3.1824  -26.4512  -46.5405 H         1 UNK         0.3000 
    206 H206       -5.1869  -25.7817  -47.1092 H         1 UNK         0.0600 
    207 H207       -5.9854  -28.0778  -46.4788 H         1 UNK         0.0600 
    208 H208       -6.9810  -27.3315  -47.7175 H         1 UNK         0.0600 
    209 H209       -5.8328  -28.5832  -48.1620 H         1 UNK         0.0600 
    210 H210       -2.8844  -25.8662  -49.0519 H         1 UNK         0.3000 
    211 H211       -3.9741  -25.6944  -51.7330 H         1 UNK         0.0600 
    212 H212       -1.3427  -24.6602  -50.5381 H         1 UNK         0.0600 
    213 H213       -1.7228  -24.7418  -52.2523 H         1 UNK         0.0600 
    214 H214       -1.5753  -26.2233  -51.3187 H         1 UNK         0.0600 
    215 H215       -3.6279  -23.5214  -48.9993 H         1 UNK         0.3000 
    216 H216       -3.8773  -21.0009  -50.2285 H         1 UNK         0.0600 
    217 H217       -4.5936  -20.2773  -47.9240 H         1 UNK         0.0600 
    218 H218       -3.1764  -21.3060  -47.8767 H         1 UNK         0.0600 
    219 H219       -4.7550  -21.9648  -47.4527 H         1 UNK         0.0600 
    220 H220       -6.3090  -23.4539  -49.9247 H         1 UNK         0.3000 
    221 H221       -8.6459  -21.7575  -50.0543 H         1 UNK         0.0600 
    222 H222       -8.2461  -24.7099  -50.7817 H         1 UNK         0.0600 
    223 H223       -8.7198  -24.0988  -49.1970 H         1 UNK         0.0600 
    224 H224       -9.7955  -23.9031  -50.5724 H         1 UNK         0.0600 
    225 H225       -6.2904  -22.8393  -52.4057 H         1 UNK         0.3000 
    226 H226       -8.0053  -21.9357  -54.6971 H         1 UNK         0.0600 
    227 H227       -6.5630  -23.4307  -56.0769 H         1 UNK         0.0600 
    228 H228       -5.7247  -23.9847  -54.6312 H         1 UNK         0.0600 
    229 H229       -7.4363  -24.3371  -54.8510 H         1 UNK         0.0600 
    230 H230       -4.6165  -22.1286  -53.4781 H         1 UNK         0.3000 
    231 H231       -3.7933  -19.8014  -55.1358 H         1 UNK         0.0600 
    232 H232       -2.2013  -21.8560  -53.5026 H         1 UNK         0.0600 
    233 H233       -1.5109  -20.5621  -54.4757 H         1 UNK         0.0600 
    234 H234       -2.4043  -21.8605  -55.2529 H         1 UNK         0.0600 
    235 H235       -5.3933  -18.6297  -53.6335 H         1 UNK         0.3000 
    236 H236       -4.8572  -18.3064  -50.8712 H         1 UNK         0.0600 
    237 H237       -7.0781  -17.9202  -51.8798 H         1 UNK         0.0600 
    238 H238       -6.5456  -16.4694  -51.0468 H         1 UNK         0.0600 
    239 H239       -6.4602  -16.5494  -52.8037 H         1 UNK         0.0600 
    240 H240       -3.4870  -16.6312  -53.6191 H         1 UNK         0.3000 
    241 H241       -1.8909  -15.1612  -53.8673 H         1 UNK         0.0600 
    242 H242       -4.6678  -14.1570  -52.8331 H         1 UNK         0.3800 
    243 H243       -4.3227  -12.4796  -52.5037 H         1 UNK         0.3800 
    244 H244       -1.0077  -15.0596  -50.9716 H         1 UNK         0.0800 
    245 H245       -0.9275  -16.5860  -51.7787 H         1 UNK         0.0800 
    246 H246        0.6683  -17.0565  -54.0439 H         1 UNK         0.0800 
    247 H247        2.2884  -16.4710  -53.7447 H         1 UNK         0.0800 
@<TRIPOS>BOND
     1    1    2 1    
     2    1  127 1    
     3    1  128 1    
     4    1  129 1    
     5    2    3 2    
     6    2    4 am   BACKBONE|DICT|INTERRES
     7    4    5 1    
     8    4  130 1    
     9    5    6 1    
    10    5   65 1    
    11    5  131 1    
    12    6    7 1    
    13    6  132 1    
    14    6  133 1    
    15    7    8 1    
    16    8    9 1    
    17    8  134 1    
    18    8  135 1    
    19    9   10 ar   
    20    9   14 ar   
    21   10   11 ar   
    22   10  136 1    
    23   11   12 ar   
    24   11  126 1    
    25   12   13 ar   
    26   12  137 1    
    27   13   14 ar   
    28   13   15 1    
    29   14  138 1    
    30   15   16 1    
    31   15  139 1    
    32   15  140 1    
    33   16   17 1    
    34   17   18 1    
    35   17  141 1    
    36   17  142 1    
    37   18   19 1    
    38   18   67 1    
    39   18  143 1    
    40   19   20 am   BACKBONE|DICT|INTERRES
    41   19  144 1    
    42   20   21 2    
    43   20   22 1    
    44   22   23 1    
    45   22   24 1    
    46   22  145 1    
    47   23  146 1    
    48   23  147 1    
    49   23  148 1    
    50   24   25 am   BACKBONE|DICT|INTERRES
    51   24  149 1    
    52   25   26 2    
    53   25   27 1    
    54   27   28 1    
    55   27   29 1    
    56   27  150 1    
    57   28  151 1    
    58   28  152 1    
    59   28  153 1    
    60   29   30 am   BACKBONE|DICT|INTERRES
    61   29  154 1    
    62   30   31 2    
    63   30   32 1    
    64   32   33 1    
    65   32   34 1    
    66   32  155 1    
    67   33  156 1    
    68   33  157 1    
    69   33  158 1    
    70   34   35 am   BACKBONE|DICT|INTERRES
    71   34  159 1    
    72   35   36 2    
    73   35   37 1    
    74   37   38 1    
    75   37   39 1    
    76   37  160 1    
    77   38  161 1    
    78   38  162 1    
    79   38  163 1    
    80   39   40 am   BACKBONE|DICT|INTERRES
    81   39  164 1    
    82   40   41 2    
    83   40   42 1    
    84   42   43 1    
    85   42   44 1    
    86   42  165 1    
    87   43  166 1    
    88   43  167 1    
    89   43  168 1    
    90   44   45 am   BACKBONE|DICT|INTERRES
    91   44  169 1    
    92   45   46 2    
    93   45   47 1    
    94   47   48 1    
    95   47   49 1    
    96   47  170 1    
    97   48  171 1    
    98   48  172 1    
    99   48  173 1    
   100   49   50 am   BACKBONE|DICT|INTERRES
   101   49  174 1    
   102   50   51 2    
   103   50   52 1    
   104   52   53 1    
   105   52   54 1    
   106   52  175 1    
   107   53  176 1    
   108   53  177 1    
   109   53  178 1    
   110   54   55 am   BACKBONE|DICT|INTERRES
   111   54  179 1    
   112   55   56 2    
   113   55   57 1    
   114   57   58 1    
   115   57   59 1    
   116   57  180 1    
   117   58  181 1    
   118   58  182 1    
   119   58  183 1    
   120   59   60 am   BACKBONE|DICT|INTERRES
   121   59  184 1    
   122   60   61 2    
   123   60   62 1    
   124   62   63 1    
   125   62   64 1    
   126   62  185 1    
   127   63  186 1    
   128   63  187 1    
   129   63  188 1    
   130   64   65 am   BACKBONE|DICT|INTERRES
   131   64  189 1    
   132   65   66 2    
   133   67   68 2    
   134   67   69 am   BACKBONE|DICT|INTERRES
   135   69   70 1    
   136   69  190 1    
   137   70   71 1    
   138   70   72 1    
   139   70  191 1    
   140   71  192 1    
   141   71  193 1    
   142   71  194 1    
   143   72   73 2    
   144   72   74 am   BACKBONE|DICT|INTERRES
   145   74   75 1    
   146   74  195 1    
   147   75   76 1    
   148   75   77 1    
   149   75  196 1    
   150   76  197 1    
   151   76  198 1    
   152   76  199 1    
   153   77   78 2    
   154   77   79 am   BACKBONE|DICT|INTERRES
   155   79   80 1    
   156   79  200 1    
   157   80   81 1    
   158   80   82 1    
   159   80  201 1    
   160   81  202 1    
   161   81  203 1    
   162   81  204 1    
   163   82   83 2    
   164   82   84 am   BACKBONE|DICT|INTERRES
   165   84   85 1    
   166   84  205 1    
   167   85   86 1    
   168   85   87 1    
   169   85  206 1    
   170   86  207 1    
   171   86  208 1    
   172   86  209 1    
   173   87   88 2    
   174   87   89 am   BACKBONE|DICT|INTERRES
   175   89   90 1    
   176   89  210 1    
   177   90   91 1    
   178   90   92 1    
   179   90  211 1    
   180   91  212 1    
   181   91  213 1    
   182   91  214 1    
   183   92   93 2    
   184   92   94 am   BACKBONE|DICT|INTERRES
   185   94   95 1    
   186   94  215 1    
   187   95   96 1    
   188   95   97 1    
   189   95  216 1    
   190   96  217 1    
   191   96  218 1    
   192   96  219 1    
   193   97   98 2    
   194   97   99 am   BACKBONE|DICT|INTERRES
   195   99  100 1    
   196   99  220 1    
   197  100  101 1    
   198  100  102 1    
   199  100  221 1    
   200  101  222 1    
   201  101  223 1    
   202  101  224 1    
   203  102  103 2    
   204  102  104 am   BACKBONE|DICT|INTERRES
   205  104  105 1    
   206  104  225 1    
   207  105  106 1    
   208  105  107 1    
   209  105  226 1    
   210  106  227 1    
   211  106  228 1    
   212  106  229 1    
   213  107  108 2    
   214  107  109 am   BACKBONE|DICT|INTERRES
   215  109  110 1    
   216  109  230 1    
   217  110  111 1    
   218  110  112 1    
   219  110  231 1    
   220  111  232 1    
   221  111  233 1    
   222  111  234 1    
   223  112  113 2    
   224  112  114 am   BACKBONE|DICT|INTERRES
   225  114  115 1    
   226  114  235 1    
   227  115  116 1    
   228  115  117 1    
   229  115  236 1    
   230  116  237 1    
   231  116  238 1    
   232  116  239 1    
   233  117  118 2    
   234  117  119 am   BACKBONE|DICT|INTERRES
   235  119  120 1    
   236  119  240 1    
   237  120  121 1    
   238  120  124 1    
   239  120  241 1    
   240  121  122 am   BACKBONE|DICT|INTERRES
   241  121  123 2    
   242  122  242 1    
   243  122  243 1    
   244  124  125 1    
   245  124  244 1    
   246  124  245 1    
   247  125  126 1    
   248  126  246 1    
   249  126  247 1    
@<TRIPOS>SUBSTRUCTURE
     1 UNK         1 GROUP             0       ****    0 ROOT    
