@<TRIPOS>MOLECULE
3R540
247   249    1
SMALL
USER_CHARGES


@<TRIPOS>ATOM
      1 CA          6.8189  -17.2892  -44.9400 C.3       0 UNK        -0.1800 
      2 C           6.0748  -16.1528  -45.6267 C.2       0 UNK         0.5000 
      3 O           6.7044  -15.3387  -46.2998 O.2       0 UNK        -0.5000 
      4 N           4.7496  -16.0950  -45.4294 N.am      1 UNK        -0.5000 
      5 CA          3.7678  -15.1561  -46.0038 C.3       1 UNK         0.1400 
      6 C6          3.3258  -15.4728  -47.4645 C.3       23 UNK        -0.0398 
      7 S7          4.6000  -15.3906  -48.7697 S.3       23 UNK        -0.2404 
      8 C8          3.5869  -15.2113  -50.2767 C.3       23 UNK        -0.0205 
      9 C9          2.4935  -16.2676  -50.3832 C.ar      23 UNK        -0.0193 
     10 C10         1.1558  -15.9087  -50.1930 C.ar      23 UNK        -0.1150 
     11 C11         0.1407  -16.8667  -50.2594 C.ar      23 UNK        -0.0193 
     12 C12         0.4799  -18.1989  -50.5244 C.ar      23 UNK        -0.1150 
     13 C13         1.8133  -18.5766  -50.7009 C.ar      23 UNK        -0.0193 
     14 C14         2.8157  -17.6027  -50.6466 C.ar      23 UNK        -0.1150 
     15 C15         2.1687  -20.0437  -50.8937 C.3       23 UNK        -0.0205 
     16 S16         2.8869  -20.7191  -49.3645 S.3       23 UNK        -0.2404 
     17 C17         2.6257  -22.5209  -49.5379 C.3       23 UNK        -0.0398 
     18 CA          1.5642  -23.1057  -48.5673 C.3       11 UNK         0.1400 
     19 N           1.7615  -22.6704  -47.1805 N.am      11 UNK        -0.5000 
     20 C           1.0710  -23.0925  -46.1133 C.2       10 UNK         0.5000 
     21 O           0.2565  -24.0148  -46.1585 O.2       10 UNK        -0.5000 
     22 CA          1.2489  -22.3044  -44.7988 C.3       10 UNK         0.1400 
     23 CB          2.4304  -22.8395  -43.9696 C.3       10 UNK        -0.1800 
     24 N           1.3199  -20.8471  -44.9892 N.am      10 UNK        -0.5000 
     25 C           2.2922  -20.1207  -45.5616 C.2       9 UNK         0.5000 
     26 O           3.3494  -20.5923  -45.9777 O.2       9 UNK        -0.5000 
     27 CA          2.0202  -18.6182  -45.7271 C.3       9 UNK         0.1400 
     28 CB          0.9829  -18.3604  -46.8311 C.3       9 UNK        -0.1800 
     29 N           1.5585  -18.0080  -44.4868 N.am      9 UNK        -0.5000 
     30 C           2.3314  -17.7668  -43.4215 C.2       8 UNK         0.5000 
     31 O           3.5540  -17.9100  -43.4222 O.2       8 UNK        -0.5000 
     32 CA          1.6228  -17.2597  -42.1541 C.3       8 UNK         0.1400 
     33 CB          1.6136  -15.7230  -42.1207 C.3       8 UNK        -0.1800 
     34 N           0.2504  -17.7629  -42.0597 N.am      8 UNK        -0.5000 
     35 C          -0.0731  -19.0085  -41.6800 C.2       7 UNK         0.5000 
     36 O           0.7477  -19.8398  -41.2923 O.2       7 UNK        -0.5000 
     37 CA         -1.5617  -19.3986  -41.7627 C.3       7 UNK         0.1400 
     38 CB         -2.2737  -19.0876  -40.4377 C.3       7 UNK        -0.1800 
     39 N          -2.2659  -18.7243  -42.8546 N.am      7 UNK        -0.5000 
     40 C          -2.0941  -19.0001  -44.1545 C.2       6 UNK         0.5000 
     41 O          -1.3519  -19.8888  -44.5747 O.2       6 UNK        -0.5000 
     42 CA         -2.8372  -18.0936  -45.1551 C.3       6 UNK         0.1400 
     43 CB         -4.2172  -18.6758  -45.4967 C.3       6 UNK        -0.1800 
     44 N          -2.9773  -16.7070  -44.7012 N.am      6 UNK        -0.5000 
     45 C          -1.9410  -15.8819  -44.5033 C.2       5 UNK         0.5000 
     46 O          -0.7638  -16.2300  -44.6219 O.2       5 UNK        -0.5000 
     47 CA         -2.2689  -14.4568  -44.0305 C.3       5 UNK         0.1400 
     48 CB         -2.3222  -14.4090  -42.4955 C.3       5 UNK        -0.1800 
     49 N          -1.2617  -13.5045  -44.4914 N.am      5 UNK        -0.5000 
     50 C          -1.1400  -13.0507  -45.7454 C.2       4 UNK         0.5000 
     51 O          -1.9208  -13.3541  -46.6487 O.2       4 UNK        -0.5000 
     52 CA          0.0562  -12.1235  -46.0640 C.3       4 UNK         0.1400 
     53 CB         -0.3988  -10.8099  -46.7315 C.3       4 UNK        -0.1800 
     54 N           0.9624  -11.8568  -44.9356 N.am      4 UNK        -0.5000 
     55 C           0.7199  -11.1689  -43.8075 C.2       3 UNK         0.5000 
     56 O          -0.3545  -10.6226  -43.5593 O.2       3 UNK        -0.5000 
     57 CA          1.8419  -11.1242  -42.7484 C.3       3 UNK         0.1400 
     58 CB          1.3906  -11.8351  -41.4616 C.3       3 UNK        -0.1800 
     59 N           3.0856  -11.7469  -43.2089 N.am      3 UNK        -0.5000 
     60 C           4.0635  -11.1093  -43.8659 C.2       2 UNK         0.5000 
     61 O           4.0499   -9.9038  -44.1164 O.2       2 UNK        -0.5000 
     62 CA          5.2431  -11.9761  -44.3489 C.3       2 UNK         0.1400 
     63 CB          6.3382  -12.0451  -43.2739 C.3       2 UNK        -0.1800 
     64 N           4.8566  -13.3400  -44.7268 N.am      2 UNK        -0.5000 
     65 C           4.0424  -13.6559  -45.7449 C.2       1 UNK         0.5000 
     66 O           3.4641  -12.8071  -46.4243 O.2       1 UNK        -0.5000 
     67 C           0.1271  -22.8319  -49.0568 C.2       11 UNK         0.5000 
     68 O          -0.4406  -23.6721  -49.7507 O.2       11 UNK        -0.5000 
     69 N          -0.4552  -21.6993  -48.6330 N.am      12 UNK        -0.5000 
     70 CA         -1.8540  -21.3426  -48.8678 C.3       12 UNK         0.1400 
     71 CB         -2.1205  -19.9350  -48.3252 C.3       12 UNK        -0.1800 
     72 C          -2.8236  -22.3283  -48.1987 C.2       12 UNK         0.5000 
     73 O          -3.7582  -22.7938  -48.8471 O.2       12 UNK        -0.5000 
     74 N          -2.5759  -22.6349  -46.9171 N.am      13 UNK        -0.5000 
     75 CA         -3.3765  -23.5615  -46.1163 C.3       13 UNK         0.1400 
     76 CB         -2.8881  -23.5433  -44.6598 C.3       13 UNK        -0.1800 
     77 C          -3.3736  -24.9868  -46.6965 C.2       13 UNK         0.5000 
     78 O          -4.4337  -25.6084  -46.7802 O.2       13 UNK        -0.5000 
     79 N          -2.1942  -25.4432  -47.1426 N.am      14 UNK        -0.5000 
     80 CA         -2.0054  -26.7007  -47.8659 C.3       14 UNK         0.1400 
     81 CB         -0.5024  -26.9649  -48.0417 C.3       14 UNK        -0.1800 
     82 C          -2.7295  -26.7194  -49.2266 C.2       14 UNK         0.5000 
     83 O          -3.3686  -27.7169  -49.5633 O.2       14 UNK        -0.5000 
     84 N          -2.6600  -25.6047  -49.9657 N.am      15 UNK        -0.5000 
     85 CA         -3.3015  -25.3854  -51.2637 C.3       15 UNK         0.1400 
     86 CB         -2.5174  -24.3035  -52.0202 C.3       15 UNK        -0.1800 
     87 C          -4.8040  -25.0462  -51.1495 C.2       15 UNK         0.5000 
     88 O          -5.2701  -24.0805  -51.7607 O.2       15 UNK        -0.5000 
     89 N          -5.5359  -25.8681  -50.3847 N.am      16 UNK        -0.5000 
     90 CA         -6.9895  -25.8544  -50.1975 C.3       16 UNK         0.1400 
     91 CB         -7.6903  -26.3011  -51.4985 C.3       16 UNK        -0.1800 
     92 C          -7.5308  -24.5166  -49.6501 C.2       16 UNK         0.5000 
     93 O          -8.5591  -24.0310  -50.1226 O.2       16 UNK        -0.5000 
     94 N          -6.8201  -23.9430  -48.6668 N.am      17 UNK        -0.5000 
     95 CA         -7.0976  -22.6487  -48.0302 C.3       17 UNK         0.1400 
     96 CB         -8.3949  -22.7075  -47.1973 C.3       17 UNK        -0.1800 
     97 C          -7.0758  -21.4923  -49.0511 C.2       17 UNK         0.5000 
     98 O          -8.0550  -20.7599  -49.1986 O.2       17 UNK        -0.5000 
     99 N          -5.9437  -21.3969  -49.7582 N.am      18 UNK        -0.5000 
    100 CA        -5.5669  -20.4472  -50.8077 C.3       18 UNK         0.1400 
    101 CB        -5.7374  -18.9881  -50.3406 C.3       18 UNK        -0.1800 
    102 C         -6.2447  -20.6802  -52.1698 C.2       18 UNK         0.5000 
    103 O         -5.8053  -20.0776  -53.1501 O.2       18 UNK        -0.5000 
    104 N         -7.2671  -21.5436  -52.2416 N.am      19 UNK        -0.5000 
    105 CA        -8.0771  -21.7866  -53.4387 C.3       19 UNK         0.1400 
    106 CB        -9.2506  -22.7099  -53.0827 C.3       19 UNK        -0.1800 
    107 C         -7.2933  -22.3503  -54.6394 C.2       19 UNK         0.5000 
    108 O         -7.6768  -22.0856  -55.7797 O.2       19 UNK        -0.5000 
    109 N         -6.2104  -23.0906  -54.3707 N.am      20 UNK        -0.5000 
    110 CA        -5.3024  -23.6355  -55.3807 C.3       20 UNK         0.1400 
    111 CB        -5.1067  -25.1384  -55.1109 C.3       20 UNK        -0.1800 
    112 C         -3.9606  -22.8734  -55.4300 C.2       20 UNK         0.5000 
    113 O         -3.0093  -23.3785  -56.0287 O.2       20 UNK        -0.5000 
    114 N         -3.8874  -21.6880  -54.8082 N.am      21 UNK        -0.5000 
    115 CA        -2.6945  -20.8475  -54.7487 C.3       21 UNK         0.1400 
    116 CB        -1.8931  -21.1611  -53.4659 C.3       21 UNK        -0.1800 
    117 C         -3.0872  -19.3684  -54.9095 C.2       21 UNK         0.5000 
    118 O         -3.5578  -18.9816  -55.9802 O.2       21 UNK        -0.5000 
    119 N         -2.8483  -18.5669  -53.8665 N.am      22 UNK        -0.5000 
    120 CA        -2.9913  -17.1039  -53.8292 C.3       22 UNK         0.1400 
    121 C         -4.4427  -16.5380  -53.8734 C.2       22 UNK         0.5000 
    122 N         -5.4919  -17.3439  -53.7864 N.am      22 UNK        -0.7600 
    123 O         -4.6212  -15.3306  -54.0122 O.2       22 UNK        -0.5000 
    124 C124       -2.1617  -16.5019  -52.6628 C.3       23 UNK        -0.0398 
    125 S125       -2.5426  -17.2498  -51.0392 S.3       23 UNK        -0.2404 
    126 C126       -1.3002  -16.4484  -49.9740 C.3       23 UNK        -0.0205 
    127 H127        6.1402  -17.9610  -44.4138 H         1 UNK         0.0600 
    128 H128        7.5312  -16.8901  -44.2179 H         1 UNK         0.0600 
    129 H129        7.3694  -17.8749  -45.6763 H         1 UNK         0.0600 
    130 H130        4.3500  -16.7862  -44.8001 H         1 UNK         0.3000 
    131 H131        2.8762  -15.3383  -45.4017 H         1 UNK         0.0600 
    132 H132        2.9220  -16.4805  -47.5076 H         1 UNK         0.0800 
    133 H133        2.4942  -14.8261  -47.7489 H         1 UNK         0.0800 
    134 H134        4.2373  -15.2779  -51.1499 H         1 UNK         0.0800 
    135 H135        3.1565  -14.2088  -50.2938 H         1 UNK         0.0800 
    136 H136        0.9058  -14.8803  -49.9729 H         1 UNK         0.1150 
    137 H137       -0.2902  -18.9535  -50.5726 H         1 UNK         0.1150 
    138 H138        3.8503  -17.8900  -50.7712 H         1 UNK         0.1150 
    139 H139        1.2814  -20.6158  -51.1698 H         1 UNK         0.0800 
    140 H140        2.8808  -20.1524  -51.7129 H         1 UNK         0.0800 
    141 H141        3.5848  -22.9996  -49.3363 H         1 UNK         0.0800 
    142 H142        2.3930  -22.7704  -50.5749 H         1 UNK         0.0800 
    143 H143        1.6858  -24.1909  -48.5721 H         1 UNK         0.0600 
    144 H144        2.4306  -21.9189  -47.0376 H         1 UNK         0.3000 
    145 H145        0.3428  -22.4710  -44.2140 H         1 UNK         0.0600 
    146 H146        2.5284  -22.2956  -43.0300 H         1 UNK         0.0600 
    147 H147        2.2835  -23.8918  -43.7235 H         1 UNK         0.0600 
    148 H148        3.3775  -22.7622  -44.5039 H         1 UNK         0.0600 
    149 H149        0.4664  -20.3584  -44.7283 H         1 UNK         0.3000 
    150 H150        2.9610  -18.1521  -46.0185 H         1 UNK         0.0600 
    151 H151        0.0413  -18.8652  -46.6265 H         1 UNK         0.0600 
    152 H152        1.3448  -18.7164  -47.7944 H         1 UNK         0.0600 
    153 H153        0.7662  -17.2974  -46.9380 H         1 UNK         0.0600 
    154 H154        0.5801  -17.7474  -44.4399 H         1 UNK         0.3000 
    155 H155        2.1888  -17.6148  -41.2901 H         1 UNK         0.0600 
    156 H156        1.0886  -15.2982  -42.9763 H         1 UNK         0.0600 
    157 H157        2.6304  -15.3284  -42.1330 H         1 UNK         0.0600 
    158 H158        1.1341  -15.3544  -41.2139 H         1 UNK         0.0600 
    159 H159       -0.4783  -17.1552  -42.4027 H         1 UNK         0.3000 
    160 H160       -1.6134  -20.4761  -41.9343 H         1 UNK         0.0600 
    161 H161       -3.3106  -19.4237  -40.4591 H         1 UNK         0.0600 
    162 H162       -1.7861  -19.5950  -39.6042 H         1 UNK         0.0600 
    163 H163       -2.2707  -18.0190  -40.2188 H         1 UNK         0.0600 
    164 H164       -2.9014  -17.9829  -42.5997 H         1 UNK         0.3000 
    165 H165       -2.2435  -18.0599  -46.0689 H         1 UNK         0.0600 
    166 H166       -4.6968  -18.1094  -46.2952 H         1 UNK         0.0600 
    167 H167       -4.1346  -19.7087  -45.8387 H         1 UNK         0.0600 
    168 H168       -4.8821  -18.6697  -44.6323 H         1 UNK         0.0600 
    169 H169       -3.9181  -16.3635  -44.5704 H         1 UNK         0.3000 
    170 H170       -3.2417  -14.1625  -44.4299 H         1 UNK         0.0600 
    171 H171       -3.0836  -15.0864  -42.1067 H         1 UNK         0.0600 
    172 H172       -1.3692  -14.6935  -42.0476 H         1 UNK         0.0600 
    173 H173       -2.5703  -13.4078  -42.1422 H         1 UNK         0.0600 
    174 H174       -0.5722  -13.2140  -43.8167 H         1 UNK         0.3000 
    175 H175        0.6567  -12.6655  -46.7960 H         1 UNK         0.0600 
    176 H176        0.4544  -10.1796  -46.9824 H         1 UNK         0.0600 
    177 H177       -0.9368  -11.0090  -47.6590 H         1 UNK         0.0600 
    178 H178       -1.0651  -10.2349  -46.0882 H         1 UNK         0.0600 
    179 H179        1.8984  -12.2205  -45.0633 H         1 UNK         0.3000 
    180 H180        2.0243  -10.0745  -42.5092 H         1 UNK         0.0600 
    181 H181        1.1457  -12.8813  -41.6427 H         1 UNK         0.0600 
    182 H182        0.5031  -11.3601  -41.0413 H         1 UNK         0.0600 
    183 H183        2.1672  -11.7988  -40.6973 H         1 UNK         0.0600 
    184 H184        3.1927  -12.7350  -43.0337 H         1 UNK         0.3000 
    185 H185        5.6636  -11.4936  -45.2338 H         1 UNK         0.0600 
    186 H186        6.6681  -11.0455  -42.9874 H         1 UNK         0.0600 
    187 H187        5.9864  -12.5462  -42.3713 H         1 UNK         0.0600 
    188 H188        7.2142  -12.5828  -43.6375 H         1 UNK         0.0600 
    189 H189        5.2981  -14.0936  -44.2206 H         1 UNK         0.3000 
    190 H190        0.0927  -21.0657  -48.0717 H         1 UNK         0.3000 
    191 H191       -2.0350  -21.3481  -49.9446 H         1 UNK         0.0600 
    192 H192       -2.0175  -19.9193  -47.2432 H         1 UNK         0.0600 
    193 H193       -3.1307  -19.6042  -48.5663 H         1 UNK         0.0600 
    194 H194       -1.4311  -19.1993  -48.7284 H         1 UNK         0.0600 
    195 H195       -1.7736  -22.2245  -46.4640 H         1 UNK         0.3000 
    196 H196       -4.4062  -23.2016  -46.1258 H         1 UNK         0.0600 
    197 H197       -3.5189  -24.1737  -44.0320 H         1 UNK         0.0600 
    198 H198       -2.9199  -22.5353  -44.2449 H         1 UNK         0.0600 
    199 H199       -1.8665  -23.9111  -44.5677 H         1 UNK         0.0600 
    200 H200       -1.3680  -24.8721  -46.9933 H         1 UNK         0.3000 
    201 H201       -2.4234  -27.5034  -47.2549 H         1 UNK         0.0600 
    202 H202        0.0047  -27.0121  -47.0778 H         1 UNK         0.0600 
    203 H203       -0.0222  -26.1848  -48.6329 H         1 UNK         0.0600 
    204 H204       -0.3296  -27.9151  -48.5484 H         1 UNK         0.0600 
    205 H205       -2.0982  -24.8322  -49.6236 H         1 UNK         0.3000 
    206 H206       -3.2303  -26.3069  -51.8447 H         1 UNK         0.0600 
    207 H207       -1.4675  -24.5760  -52.1267 H         1 UNK         0.0600 
    208 H208       -2.9121  -24.1568  -53.0238 H         1 UNK         0.0600 
    209 H209       -2.5667  -23.3457  -51.5019 H         1 UNK         0.0600 
    210 H210       -5.0377  -26.6230  -49.9247 H         1 UNK         0.3000 
    211 H211       -7.2078  -26.6012  -49.4331 H         1 UNK         0.0600 
    212 H212       -7.5121  -25.6009  -52.3150 H         1 UNK         0.0600 
    213 H213       -8.7693  -26.3780  -51.3600 H         1 UNK         0.0600 
    214 H214       -7.3361  -27.2810  -51.8183 H         1 UNK         0.0600 
    215 H215       -5.9666  -24.4024  -48.3757 H         1 UNK         0.3000 
    216 H216       -6.2768  -22.4597  -47.3384 H         1 UNK         0.0600 
    217 H217       -8.5452  -21.7776  -46.6476 H         1 UNK         0.0600 
    218 H218       -8.3562  -23.5145  -46.4658 H         1 UNK         0.0600 
    219 H219       -9.2757  -22.8623  -47.8210 H         1 UNK         0.0600 
    220 H220       -5.2194  -22.0832  -49.5465 H         1 UNK         0.3000 
    221 H221       -4.5017  -20.6128  -50.9744 H         1 UNK         0.0600 
    222 H222       -6.7861  -18.7178  -50.2179 H         1 UNK         0.0600 
    223 H223       -5.2309  -18.8091  -49.3929 H         1 UNK         0.0600 
    224 H224       -5.3163  -18.2957  -51.0689 H         1 UNK         0.0600 
    225 H225       -7.5454  -22.0286  -51.3992 H         1 UNK         0.3000 
    226 H226       -8.4890  -20.8235  -53.7469 H         1 UNK         0.0600 
    227 H227       -9.9210  -22.8357  -53.9337 H         1 UNK         0.0600 
    228 H228       -8.9049  -23.7010  -52.7901 H         1 UNK         0.0600 
    229 H229       -9.8400  -22.3039  -52.2604 H         1 UNK         0.0600 
    230 H230       -5.9610  -23.2697  -53.4003 H         1 UNK         0.3000 
    231 H231       -5.7412  -23.5409  -56.3757 H         1 UNK         0.0600 
    232 H232       -6.0628  -25.6618  -55.0976 H         1 UNK         0.0600 
    233 H233       -4.6162  -25.3204  -54.1564 H         1 UNK         0.0600 
    234 H234       -4.4966  -25.6025  -55.8867 H         1 UNK         0.0600 
    235 H235       -4.7198  -21.3007  -54.3752 H         1 UNK         0.3000 
    236 H236       -2.0487  -21.0649  -55.6020 H         1 UNK         0.0600 
    237 H237       -1.0305  -20.5019  -53.3585 H         1 UNK         0.0600 
    238 H238       -2.5060  -21.0683  -52.5688 H         1 UNK         0.0600 
    239 H239       -1.5000  -22.1762  -53.5000 H         1 UNK         0.0600 
    240 H240       -2.4975  -18.9777  -53.0145 H         1 UNK         0.3000 
    241 H241       -2.5349  -16.7366  -54.7503 H         1 UNK         0.0600 
    242 H242       -5.3874  -18.3473  -53.6609 H         1 UNK         0.3800 
    243 H243       -6.4161  -16.9479  -53.8320 H         1 UNK         0.3800 
    244 H244       -1.1010  -16.6576  -52.8644 H         1 UNK         0.0800 
    245 H245       -2.2928  -15.4203  -52.5997 H         1 UNK         0.0800 
    246 H246       -1.4127  -15.3670  -50.0666 H         1 UNK         0.0800 
    247 H247       -1.5262  -16.6901  -48.9347 H         1 UNK         0.0800 
@<TRIPOS>BOND
     1    1    2 1    
     2    1  127 1    
     3    1  128 1    
     4    1  129 1    
     5    2    3 2    
     6    2    4 am   BACKBONE|DICT|INTERRES
     7    4    5 1    
     8    4  130 1    
     9    5    6 1    
    10    5   65 1    
    11    5  131 1    
    12    6    7 1    
    13    6  132 1    
    14    6  133 1    
    15    7    8 1    
    16    8    9 1    
    17    8  134 1    
    18    8  135 1    
    19    9   10 ar   
    20    9   14 ar   
    21   10   11 ar   
    22   10  136 1    
    23   11   12 ar   
    24   11  126 1    
    25   12   13 ar   
    26   12  137 1    
    27   13   14 ar   
    28   13   15 1    
    29   14  138 1    
    30   15   16 1    
    31   15  139 1    
    32   15  140 1    
    33   16   17 1    
    34   17   18 1    
    35   17  141 1    
    36   17  142 1    
    37   18   19 1    
    38   18   67 1    
    39   18  143 1    
    40   19   20 am   BACKBONE|DICT|INTERRES
    41   19  144 1    
    42   20   21 2    
    43   20   22 1    
    44   22   23 1    
    45   22   24 1    
    46   22  145 1    
    47   23  146 1    
    48   23  147 1    
    49   23  148 1    
    50   24   25 am   BACKBONE|DICT|INTERRES
    51   24  149 1    
    52   25   26 2    
    53   25   27 1    
    54   27   28 1    
    55   27   29 1    
    56   27  150 1    
    57   28  151 1    
    58   28  152 1    
    59   28  153 1    
    60   29   30 am   BACKBONE|DICT|INTERRES
    61   29  154 1    
    62   30   31 2    
    63   30   32 1    
    64   32   33 1    
    65   32   34 1    
    66   32  155 1    
    67   33  156 1    
    68   33  157 1    
    69   33  158 1    
    70   34   35 am   BACKBONE|DICT|INTERRES
    71   34  159 1    
    72   35   36 2    
    73   35   37 1    
    74   37   38 1    
    75   37   39 1    
    76   37  160 1    
    77   38  161 1    
    78   38  162 1    
    79   38  163 1    
    80   39   40 am   BACKBONE|DICT|INTERRES
    81   39  164 1    
    82   40   41 2    
    83   40   42 1    
    84   42   43 1    
    85   42   44 1    
    86   42  165 1    
    87   43  166 1    
    88   43  167 1    
    89   43  168 1    
    90   44   45 am   BACKBONE|DICT|INTERRES
    91   44  169 1    
    92   45   46 2    
    93   45   47 1    
    94   47   48 1    
    95   47   49 1    
    96   47  170 1    
    97   48  171 1    
    98   48  172 1    
    99   48  173 1    
   100   49   50 am   BACKBONE|DICT|INTERRES
   101   49  174 1    
   102   50   51 2    
   103   50   52 1    
   104   52   53 1    
   105   52   54 1    
   106   52  175 1    
   107   53  176 1    
   108   53  177 1    
   109   53  178 1    
   110   54   55 am   BACKBONE|DICT|INTERRES
   111   54  179 1    
   112   55   56 2    
   113   55   57 1    
   114   57   58 1    
   115   57   59 1    
   116   57  180 1    
   117   58  181 1    
   118   58  182 1    
   119   58  183 1    
   120   59   60 am   BACKBONE|DICT|INTERRES
   121   59  184 1    
   122   60   61 2    
   123   60   62 1    
   124   62   63 1    
   125   62   64 1    
   126   62  185 1    
   127   63  186 1    
   128   63  187 1    
   129   63  188 1    
   130   64   65 am   BACKBONE|DICT|INTERRES
   131   64  189 1    
   132   65   66 2    
   133   67   68 2    
   134   67   69 am   BACKBONE|DICT|INTERRES
   135   69   70 1    
   136   69  190 1    
   137   70   71 1    
   138   70   72 1    
   139   70  191 1    
   140   71  192 1    
   141   71  193 1    
   142   71  194 1    
   143   72   73 2    
   144   72   74 am   BACKBONE|DICT|INTERRES
   145   74   75 1    
   146   74  195 1    
   147   75   76 1    
   148   75   77 1    
   149   75  196 1    
   150   76  197 1    
   151   76  198 1    
   152   76  199 1    
   153   77   78 2    
   154   77   79 am   BACKBONE|DICT|INTERRES
   155   79   80 1    
   156   79  200 1    
   157   80   81 1    
   158   80   82 1    
   159   80  201 1    
   160   81  202 1    
   161   81  203 1    
   162   81  204 1    
   163   82   83 2    
   164   82   84 am   BACKBONE|DICT|INTERRES
   165   84   85 1    
   166   84  205 1    
   167   85   86 1    
   168   85   87 1    
   169   85  206 1    
   170   86  207 1    
   171   86  208 1    
   172   86  209 1    
   173   87   88 2    
   174   87   89 am   BACKBONE|DICT|INTERRES
   175   89   90 1    
   176   89  210 1    
   177   90   91 1    
   178   90   92 1    
   179   90  211 1    
   180   91  212 1    
   181   91  213 1    
   182   91  214 1    
   183   92   93 2    
   184   92   94 am   BACKBONE|DICT|INTERRES
   185   94   95 1    
   186   94  215 1    
   187   95   96 1    
   188   95   97 1    
   189   95  216 1    
   190   96  217 1    
   191   96  218 1    
   192   96  219 1    
   193   97   98 2    
   194   97   99 am   BACKBONE|DICT|INTERRES
   195   99  100 1    
   196   99  220 1    
   197  100  101 1    
   198  100  102 1    
   199  100  221 1    
   200  101  222 1    
   201  101  223 1    
   202  101  224 1    
   203  102  103 2    
   204  102  104 am   BACKBONE|DICT|INTERRES
   205  104  105 1    
   206  104  225 1    
   207  105  106 1    
   208  105  107 1    
   209  105  226 1    
   210  106  227 1    
   211  106  228 1    
   212  106  229 1    
   213  107  108 2    
   214  107  109 am   BACKBONE|DICT|INTERRES
   215  109  110 1    
   216  109  230 1    
   217  110  111 1    
   218  110  112 1    
   219  110  231 1    
   220  111  232 1    
   221  111  233 1    
   222  111  234 1    
   223  112  113 2    
   224  112  114 am   BACKBONE|DICT|INTERRES
   225  114  115 1    
   226  114  235 1    
   227  115  116 1    
   228  115  117 1    
   229  115  236 1    
   230  116  237 1    
   231  116  238 1    
   232  116  239 1    
   233  117  118 2    
   234  117  119 am   BACKBONE|DICT|INTERRES
   235  119  120 1    
   236  119  240 1    
   237  120  121 1    
   238  120  124 1    
   239  120  241 1    
   240  121  122 am   BACKBONE|DICT|INTERRES
   241  121  123 2    
   242  122  242 1    
   243  122  243 1    
   244  124  125 1    
   245  124  244 1    
   246  124  245 1    
   247  125  126 1    
   248  126  246 1    
   249  126  247 1    
@<TRIPOS>SUBSTRUCTURE
     1 UNK         1 GROUP             0       ****    0 ROOT    
