@<TRIPOS>MOLECULE
3R540
247   249    1
SMALL
USER_CHARGES


@<TRIPOS>ATOM
      1 CA         -0.4194  -14.3458  -42.2389 C.3       0 UNK        -0.1800 
      2 C          -1.6158  -13.5659  -42.7605 C.2       0 UNK         0.5000 
      3 O          -2.0411  -12.5941  -42.1337 O.2       0 UNK        -0.5000 
      4 N          -2.1572  -13.9817  -43.9115 N.am      1 UNK        -0.5000 
      5 CA         -3.2926  -13.3481  -44.5939 C.3       1 UNK         0.1400 
      6 C6         -4.0597  -14.3445  -45.5039 C.3       23 UNK        -0.0398 
      7 S7         -5.2079  -15.3937  -44.5503 S.3       23 UNK        -0.2404 
      8 C8         -4.2753  -16.9410  -44.3512 C.3       23 UNK        -0.0205 
      9 C9         -4.2306  -17.7677  -45.6289 C.ar      23 UNK        -0.0193 
     10 C10        -3.0726  -17.7886  -46.4080 C.ar      23 UNK        -0.1150 
     11 C11        -2.9984  -18.5724  -47.5596 C.ar      23 UNK        -0.0193 
     12 C12        -4.1166  -19.3078  -47.9577 C.ar      23 UNK        -0.1150 
     13 C13        -5.2670  -19.3410  -47.1637 C.ar      23 UNK        -0.0193 
     14 C14        -5.3217  -18.5584  -46.0045 C.ar      23 UNK        -0.1150 
     15 C15        -6.4312  -20.2537  -47.5358 C.3       23 UNK        -0.0205 
     16 S16        -5.9450  -22.0122  -47.6833 S.3       23 UNK        -0.2404 
     17 C17        -5.1732  -22.3505  -46.0619 C.3       23 UNK        -0.0398 
     18 CA         -3.6277  -22.2110  -46.1161 C.3       11 UNK         0.1400 
     19 N          -3.0947  -21.4746  -44.9654 N.am      11 UNK        -0.5000 
     20 C          -1.8847  -20.9008  -44.9166 C.2       10 UNK         0.5000 
     21 O          -1.0437  -21.0288  -45.8064 O.2       10 UNK        -0.5000 
     22 CA         -1.5470  -20.0549  -43.6741 C.3       10 UNK         0.1400 
     23 CB         -2.7215  -19.8826  -42.6837 C.3       10 UNK        -0.1800 
     24 N          -0.3680  -20.5601  -42.9703 N.am      10 UNK        -0.5000 
     25 C          -0.1933  -21.7770  -42.4340 C.2       9 UNK         0.5000 
     26 O          -1.0182  -22.6890  -42.5195 O.2       9 UNK        -0.5000 
     27 CA          1.1084  -21.9767  -41.6261 C.3       9 UNK         0.1400 
     28 CB          1.5137  -23.4566  -41.4547 C.3       9 UNK        -0.1800 
     29 N           2.2261  -21.1568  -42.1132 N.am      9 UNK        -0.5000 
     30 C           2.8713  -21.2818  -43.2827 C.2       8 UNK         0.5000 
     31 O           2.6427  -22.1680  -44.1071 O.2       8 UNK        -0.5000 
     32 CA          3.9345  -20.1977  -43.5665 C.3       8 UNK         0.1400 
     33 CB          4.6118  -20.3565  -44.9441 C.3       8 UNK        -0.1800 
     34 N           3.4192  -18.8286  -43.4074 N.am      8 UNK        -0.5000 
     35 C           2.3741  -18.2827  -44.0500 C.2       7 UNK         0.5000 
     36 O           1.6461  -18.9121  -44.8175 O.2       7 UNK        -0.5000 
     37 CA          2.0762  -16.7895  -43.8031 C.3       7 UNK         0.1400 
     38 CB          3.1915  -16.0341  -43.0545 C.3       7 UNK        -0.1800 
     39 N           1.8464  -16.1493  -45.0953 N.am      7 UNK        -0.5000 
     40 C           0.6441  -15.9304  -45.6444 C.2       6 UNK         0.5000 
     41 O          -0.4158  -16.0428  -45.0264 O.2       6 UNK        -0.5000 
     42 CA          0.6213  -15.5151  -47.1295 C.3       6 UNK         0.1400 
     43 CB         -0.5520  -14.5794  -47.4582 C.3       6 UNK        -0.1800 
     44 N           1.8656  -14.8528  -47.5074 N.am      6 UNK        -0.5000 
     45 C           2.8064  -15.3506  -48.3204 C.2       5 UNK         0.5000 
     46 O           2.7165  -16.4396  -48.8850 O.2       5 UNK        -0.5000 
     47 CA          4.0717  -14.4924  -48.5324 C.3       5 UNK         0.1400 
     48 CB          4.0299  -13.8097  -49.9083 C.3       5 UNK        -0.1800 
     49 N           4.2493  -13.4649  -47.5034 N.am      5 UNK        -0.5000 
     50 C           4.5576  -13.7046  -46.2207 C.2       4 UNK         0.5000 
     51 O           4.8262  -14.8229  -45.7841 O.2       4 UNK        -0.5000 
     52 CA          4.4907  -12.5003  -45.2606 C.3       4 UNK         0.1400 
     53 CB          5.8730  -11.8471  -45.1156 C.3       4 UNK        -0.1800 
     54 N           3.5181  -11.4889  -45.6920 N.am      4 UNK        -0.5000 
     55 C           2.1912  -11.6718  -45.7023 C.2       3 UNK         0.5000 
     56 O           1.6351  -12.6953  -45.2984 O.2       3 UNK        -0.5000 
     57 CA          1.3514  -10.5608  -46.3388 C.3       3 UNK         0.1400 
     58 CB          1.2205  -10.7950  -47.8560 C.3       3 UNK        -0.1800 
     59 N           0.0329  -10.5513  -45.7154 N.am      3 UNK        -0.5000 
     60 C          -0.8217   -9.5230  -45.7344 C.2       2 UNK         0.5000 
     61 O          -0.5829   -8.4625  -46.3155 O.2       2 UNK        -0.5000 
     62 CA         -2.1422   -9.6713  -44.9477 C.3       2 UNK         0.1400 
     63 CB         -3.3305   -8.9937  -45.6626 C.3       2 UNK        -0.1800 
     64 N          -2.4862  -11.0434  -44.5536 N.am      2 UNK        -0.5000 
     65 C          -2.8351  -12.0730  -45.3382 C.2       1 UNK         0.5000 
     66 O          -2.8061  -12.0422  -46.5689 O.2       1 UNK        -0.5000 
     67 C          -2.8994  -23.5371  -46.4216 C.2       11 UNK         0.5000 
     68 O          -3.1049  -24.0974  -47.4987 O.2       11 UNK        -0.5000 
     69 N          -2.0016  -23.9791  -45.5288 N.am      12 UNK        -0.5000 
     70 CA         -1.0278  -25.0375  -45.7953 C.3       12 UNK         0.1400 
     71 CB         -0.2710  -25.3699  -44.5028 C.3       12 UNK        -0.1800 
     72 C          -0.0363  -24.6621  -46.9166 C.2       12 UNK         0.5000 
     73 O           0.3389  -25.5347  -47.6993 O.2       12 UNK        -0.5000 
     74 N           0.3261  -23.3723  -47.0182 N.am      13 UNK        -0.5000 
     75 CA          1.1929  -22.8350  -48.0728 C.3       13 UNK         0.1400 
     76 CB          1.6335  -21.4115  -47.6991 C.3       13 UNK        -0.1800 
     77 C           0.5116  -22.8334  -49.4537 C.2       13 UNK         0.5000 
     78 O           1.1904  -22.9732  -50.4703 O.2       13 UNK        -0.5000 
     79 N          -0.8211  -22.7048  -49.4558 N.am      14 UNK        -0.5000 
     80 CA         -1.6713  -22.7755  -50.6420 C.3       14 UNK         0.1400 
     81 CB         -2.8537  -21.8147  -50.4528 C.3       14 UNK        -0.1800 
     82 C          -2.1804  -24.1994  -50.9322 C.2       14 UNK         0.5000 
     83 O          -2.9598  -24.3693  -51.8702 O.2       14 UNK        -0.5000 
     84 N          -1.7778  -25.1853  -50.1154 N.am      15 UNK        -0.5000 
     85 CA         -2.1874  -26.5921  -50.1620 C.3       15 UNK         0.1400 
     86 CB         -1.5571  -27.2912  -51.3839 C.3       15 UNK        -0.1800 
     87 C          -3.7198  -26.7658  -50.0783 C.2       15 UNK         0.5000 
     88 O          -4.3101  -27.4758  -50.8934 O.2       15 UNK        -0.5000 
     89 N          -4.3313  -26.0730  -49.1055 N.am      16 UNK        -0.5000 
     90 CA         -5.7732  -25.9818  -48.8513 C.3       16 UNK         0.1400 
     91 CB         -6.3622  -27.3526  -48.4570 C.3       16 UNK        -0.1800 
     92 C          -6.5259  -25.2968  -50.0109 C.2       16 UNK         0.5000 
     93 O          -7.5696  -25.7798  -50.4531 O.2       16 UNK        -0.5000 
     94 N          -5.9578  -24.1747  -50.4755 N.am      17 UNK        -0.5000 
     95 CA         -6.4506  -23.2904  -51.5379 C.3       17 UNK         0.1400 
     96 CB         -7.8181  -22.6776  -51.1703 C.3       17 UNK        -0.1800 
     97 C          -6.4350  -23.9171  -52.9481 C.2       17 UNK         0.5000 
     98 O          -7.1172  -23.4153  -53.8428 O.2       17 UNK        -0.5000 
     99 N          -5.6281  -24.9684  -53.1468 N.am      18 UNK        -0.5000 
    100 CA        -5.3403  -25.5475  -54.4608 C.3       18 UNK         0.1400 
    101 CB        -4.7100  -26.9353  -54.2794 C.3       18 UNK        -0.1800 
    102 C         -4.4197  -24.6318  -55.2904 C.2       18 UNK         0.5000 
    103 O         -4.5965  -24.5197  -56.5038 O.2       18 UNK        -0.5000 
    104 N         -3.4842  -23.9663  -54.6046 N.am      19 UNK        -0.5000 
    105 CA        -2.6048  -22.9262  -55.1189 C.3       19 UNK         0.1400 
    106 CB        -1.1447  -23.3945  -54.9823 C.3       19 UNK        -0.1800 
    107 C         -2.8964  -21.6493  -54.3163 C.2       19 UNK         0.5000 
    108 O         -2.0564  -21.1957  -53.5392 O.2       19 UNK        -0.5000 
    109 N         -4.1110  -21.1089  -54.4916 N.am      20 UNK        -0.5000 
    110 CA        -4.6996  -19.9932  -53.7341 C.3       20 UNK         0.1400 
    111 CB        -6.1266  -19.7526  -54.2505 C.3       20 UNK        -0.1800 
    112 C         -3.8983  -18.6710  -53.7176 C.2       20 UNK         0.5000 
    113 O         -4.1899  -17.8030  -52.8952 O.2       20 UNK        -0.5000 
    114 N         -2.8975  -18.5435  -54.5984 N.am      21 UNK        -0.5000 
    115 CA        -1.9029  -17.4689  -54.6021 C.3       21 UNK         0.1400 
    116 CB        -1.1878  -17.4748  -55.9629 C.3       21 UNK        -0.1800 
    117 C         -0.8752  -17.5642  -53.4495 C.2       21 UNK         0.5000 
    118 O         -0.1281  -16.6072  -53.2442 O.2       21 UNK        -0.5000 
    119 N         -0.8409  -18.7022  -52.7390 N.am      22 UNK        -0.5000 
    120 CA         0.0568  -19.0228  -51.6121 C.3       22 UNK         0.1400 
    121 C          1.5150  -19.3753  -52.0361 C.2       22 UNK         0.5000 
    122 N          1.7995  -19.5940  -53.3146 N.am      22 UNK        -0.7600 
    123 O          2.4016  -19.4854  -51.1945 O.2       22 UNK        -0.5000 
    124 C124        0.0121  -17.9956  -50.4406 C.3       23 UNK        -0.0398 
    125 S125       -1.6721  -17.6606  -49.8150 S.3       23 UNK        -0.2404 
    126 C126       -1.6865  -18.6879  -48.3188 C.3       23 UNK        -0.0205 
    127 H127       -0.6235  -15.4163  -42.2584 H         1 UNK         0.0600 
    128 H128        0.4575  -14.1457  -42.8551 H         1 UNK         0.0600 
    129 H129       -0.1890  -14.0633  -41.2116 H         1 UNK         0.0600 
    130 H130       -1.7168  -14.7607  -44.3947 H         1 UNK         0.3000 
    131 H131       -3.9975  -13.0027  -43.8339 H         1 UNK         0.0600 
    132 H132       -4.6781  -13.8139  -46.2300 H         1 UNK         0.0800 
    133 H133       -3.3762  -14.9583  -46.0875 H         1 UNK         0.0800 
    134 H134       -4.7566  -17.5219  -43.5641 H         1 UNK         0.0800 
    135 H135       -3.2680  -16.7207  -43.9937 H         1 UNK         0.0800 
    136 H136       -2.2135  -17.2167  -46.1027 H         1 UNK         0.1150 
    137 H137       -4.0720  -19.9095  -48.8517 H         1 UNK         0.1150 
    138 H138       -6.2076  -18.5711  -45.3853 H         1 UNK         0.1150 
    139 H139       -6.8485  -19.9232  -48.4877 H         1 UNK         0.0800 
    140 H140       -7.2353  -20.1730  -46.8028 H         1 UNK         0.0800 
    141 H141       -5.6040  -21.6568  -45.3386 H         1 UNK         0.0800 
    142 H142       -5.4759  -23.3435  -45.7248 H         1 UNK         0.0800 
    143 H143       -3.3762  -21.5942  -46.9770 H         1 UNK         0.0600 
    144 H144       -3.7141  -21.3563  -44.1774 H         1 UNK         0.3000 
    145 H145       -1.2839  -19.0653  -44.0520 H         1 UNK         0.0600 
    146 H146       -2.4644  -19.1709  -41.8991 H         1 UNK         0.0600 
    147 H147       -3.6106  -19.4995  -43.1819 H         1 UNK         0.0600 
    148 H148       -2.9953  -20.8204  -42.1994 H         1 UNK         0.0600 
    149 H149        0.4170  -19.9263  -42.9431 H         1 UNK         0.3000 
    150 H150        0.8813  -21.5980  -40.6285 H         1 UNK         0.0600 
    151 H151        0.7129  -24.0312  -40.9879 H         1 UNK         0.0600 
    152 H152        2.3915  -23.5503  -40.8156 H         1 UNK         0.0600 
    153 H153        1.7433  -23.9343  -42.4061 H         1 UNK         0.0600 
    154 H154        2.4947  -20.3907  -41.5112 H         1 UNK         0.3000 
    155 H155        4.7084  -20.3294  -42.8089 H         1 UNK         0.0600 
    156 H156        5.0476  -21.3499  -45.0562 H         1 UNK         0.0600 
    157 H157        5.4176  -19.6336  -45.0701 H         1 UNK         0.0600 
    158 H158        3.9067  -20.2128  -45.7626 H         1 UNK         0.0600 
    159 H159        3.9502  -18.2354  -42.7852 H         1 UNK         0.3000 
    160 H160        1.1735  -16.7442  -43.1924 H         1 UNK         0.0600 
    161 H161        4.1559  -16.1275  -43.5547 H         1 UNK         0.0600 
    162 H162        2.9601  -14.9709  -42.9842 H         1 UNK         0.0600 
    163 H163        3.3041  -16.4030  -42.0345 H         1 UNK         0.0600 
    164 H164        2.6645  -16.0227  -45.6747 H         1 UNK         0.3000 
    165 H165        0.4915  -16.4297  -47.7093 H         1 UNK         0.0600 
    166 H166       -0.5054  -14.2338  -48.4909 H         1 UNK         0.0600 
    167 H167       -1.5027  -15.0966  -47.3407 H         1 UNK         0.0600 
    168 H168       -0.5614  -13.7025  -46.8102 H         1 UNK         0.0600 
    169 H169        2.0450  -13.9790  -47.0297 H         1 UNK         0.3000 
    170 H170        4.9339  -15.1620  -48.5040 H         1 UNK         0.0600 
    171 H171        3.9279  -14.5460  -50.7068 H         1 UNK         0.0600 
    172 H172        3.1892  -13.1193  -49.9896 H         1 UNK         0.0600 
    173 H173        4.9455  -13.2500  -50.0998 H         1 UNK         0.0600 
    174 H174        4.0592  -12.5132  -47.7793 H         1 UNK         0.3000 
    175 H175        4.1833  -12.8755  -44.2819 H         1 UNK         0.0600 
    176 H176        6.2278  -11.4382  -46.0624 H         1 UNK         0.0600 
    177 H177        5.8519  -11.0373  -44.3860 H         1 UNK         0.0600 
    178 H178        6.6127  -12.5721  -44.7731 H         1 UNK         0.0600 
    179 H179        3.8983  -10.6197  -46.0394 H         1 UNK         0.3000 
    180 H180        1.8434   -9.6034  -46.1542 H         1 UNK         0.0600 
    181 H181        2.1988  -10.8272  -48.3366 H         1 UNK         0.0600 
    182 H182        0.7146  -11.7365  -48.0742 H         1 UNK         0.0600 
    183 H183        0.6546   -9.9959  -48.3346 H         1 UNK         0.0600 
    184 H184       -0.2022  -11.3927  -45.2048 H         1 UNK         0.3000 
    185 H185       -1.9817   -9.1335  -44.0123 H         1 UNK         0.0600 
    186 H186       -3.1479   -7.9281  -45.8058 H         1 UNK         0.0600 
    187 H187       -3.5118   -9.4272  -46.6465 H         1 UNK         0.0600 
    188 H188       -4.2471   -9.0866  -45.0801 H         1 UNK         0.0600 
    189 H189       -2.4675  -11.2265  -43.5544 H         1 UNK         0.3000 
    190 H190       -1.8789  -23.4590  -44.6691 H         1 UNK         0.3000 
    191 H191       -1.5753  -25.9273  -46.1133 H         1 UNK         0.0600 
    192 H192        0.4153  -26.2038  -44.6548 H         1 UNK         0.0600 
    193 H193       -0.9548  -25.6499  -43.7013 H         1 UNK         0.0600 
    194 H194        0.3176  -24.5187  -44.1610 H         1 UNK         0.0600 
    195 H195       -0.0519  -22.6924  -46.3647 H         1 UNK         0.3000 
    196 H196        2.0829  -23.4646  -48.1345 H         1 UNK         0.0600 
    197 H197        2.3733  -21.0332  -48.4057 H         1 UNK         0.0600 
    198 H198        2.0827  -21.3859  -46.7070 H         1 UNK         0.0600 
    199 H199        0.7963  -20.7131  -47.7007 H         1 UNK         0.0600 
    200 H200       -1.2931  -22.6313  -48.5664 H         1 UNK         0.3000 
    201 H201       -1.1026  -22.4567  -51.5165 H         1 UNK         0.0600 
    202 H202       -2.5124  -20.7837  -50.3826 H         1 UNK         0.0600 
    203 H203       -3.4280  -22.0548  -49.5581 H         1 UNK         0.0600 
    204 H204       -3.5336  -21.8566  -51.3015 H         1 UNK         0.0600 
    205 H205       -1.1468  -24.9451  -49.3628 H         1 UNK         0.3000 
    206 H206       -1.7793  -27.0629  -49.2664 H         1 UNK         0.0600 
    207 H207       -0.4701  -27.2165  -51.3585 H         1 UNK         0.0600 
    208 H208       -1.8083  -28.3522  -51.4036 H         1 UNK         0.0600 
    209 H209       -1.8973  -26.8545  -52.3224 H         1 UNK         0.0600 
    210 H210       -3.7578  -25.4667  -48.5207 H         1 UNK         0.3000 
    211 H211       -5.8847  -25.3219  -47.9895 H         1 UNK         0.0600 
    212 H212       -6.3459  -28.0591  -49.2872 H         1 UNK         0.0600 
    213 H213       -7.3999  -27.2515  -48.1372 H         1 UNK         0.0600 
    214 H214       -5.8094  -27.7950  -47.6284 H         1 UNK         0.0600 
    215 H215       -5.0880  -23.8914  -50.0481 H         1 UNK         0.3000 
    216 H216       -5.7409  -22.4653  -51.5840 H         1 UNK         0.0600 
    217 H217       -7.7955  -22.2262  -50.1786 H         1 UNK         0.0600 
    218 H218       -8.0969  -21.8923  -51.8738 H         1 UNK         0.0600 
    219 H219       -8.6138  -23.4226  -51.1827 H         1 UNK         0.0600 
    220 H220       -5.0704  -25.3010  -52.3707 H         1 UNK         0.3000 
    221 H221       -6.2798  -25.6672  -55.0044 H         1 UNK         0.0600 
    222 H222       -3.7643  -26.8785  -53.7408 H         1 UNK         0.0600 
    223 H223       -5.3714  -27.5989  -53.7219 H         1 UNK         0.0600 
    224 H224       -4.5125  -27.4044  -55.2440 H         1 UNK         0.0600 
    225 H225       -3.4152  -24.1292  -53.6005 H         1 UNK         0.3000 
    226 H226       -2.8091  -22.7172  -56.1707 H         1 UNK         0.0600 
    227 H227       -0.9646  -24.2918  -55.5743 H         1 UNK         0.0600 
    228 H228       -0.4533  -22.6274  -55.3328 H         1 UNK         0.0600 
    229 H229       -0.8879  -23.6224  -53.9468 H         1 UNK         0.0600 
    230 H230       -4.7297  -21.5582  -55.1517 H         1 UNK         0.3000 
    231 H231       -4.7719  -20.3178  -52.6949 H         1 UNK         0.0600 
    232 H232       -6.1281  -19.4632  -55.3020 H         1 UNK         0.0600 
    233 H233       -6.7415  -20.6467  -54.1464 H         1 UNK         0.0600 
    234 H234       -6.6201  -18.9574  -53.6900 H         1 UNK         0.0600 
    235 H235       -2.7323  -19.3105  -55.2326 H         1 UNK         0.3000 
    236 H236       -2.4250  -16.5160  -54.4934 H         1 UNK         0.0600 
    237 H237       -0.6533  -18.4102  -56.1324 H         1 UNK         0.0600 
    238 H238       -1.8953  -17.3385  -56.7811 H         1 UNK         0.0600 
    239 H239       -0.4603  -16.6646  -56.0275 H         1 UNK         0.0600 
    240 H240       -1.4509  -19.4643  -53.0219 H         1 UNK         0.3000 
    241 H241       -0.3304  -19.9609  -51.2143 H         1 UNK         0.0600 
    242 H242        2.7418  -19.8341  -53.5788 H         1 UNK         0.3800 
    243 H243        1.0798  -19.5303  -54.0157 H         1 UNK         0.3800 
    244 H244        0.4545  -17.0469  -50.7462 H         1 UNK         0.0800 
    245 H245        0.6284  -18.3436  -49.6099 H         1 UNK         0.0800 
    246 H246       -1.5097  -19.7303  -48.5841 H         1 UNK         0.0800 
    247 H247       -0.8565  -18.4037  -47.6704 H         1 UNK         0.0800 
@<TRIPOS>BOND
     1    1    2 1    
     2    1  127 1    
     3    1  128 1    
     4    1  129 1    
     5    2    3 2    
     6    2    4 am   BACKBONE|DICT|INTERRES
     7    4    5 1    
     8    4  130 1    
     9    5    6 1    
    10    5   65 1    
    11    5  131 1    
    12    6    7 1    
    13    6  132 1    
    14    6  133 1    
    15    7    8 1    
    16    8    9 1    
    17    8  134 1    
    18    8  135 1    
    19    9   10 ar   
    20    9   14 ar   
    21   10   11 ar   
    22   10  136 1    
    23   11   12 ar   
    24   11  126 1    
    25   12   13 ar   
    26   12  137 1    
    27   13   14 ar   
    28   13   15 1    
    29   14  138 1    
    30   15   16 1    
    31   15  139 1    
    32   15  140 1    
    33   16   17 1    
    34   17   18 1    
    35   17  141 1    
    36   17  142 1    
    37   18   19 1    
    38   18   67 1    
    39   18  143 1    
    40   19   20 am   BACKBONE|DICT|INTERRES
    41   19  144 1    
    42   20   21 2    
    43   20   22 1    
    44   22   23 1    
    45   22   24 1    
    46   22  145 1    
    47   23  146 1    
    48   23  147 1    
    49   23  148 1    
    50   24   25 am   BACKBONE|DICT|INTERRES
    51   24  149 1    
    52   25   26 2    
    53   25   27 1    
    54   27   28 1    
    55   27   29 1    
    56   27  150 1    
    57   28  151 1    
    58   28  152 1    
    59   28  153 1    
    60   29   30 am   BACKBONE|DICT|INTERRES
    61   29  154 1    
    62   30   31 2    
    63   30   32 1    
    64   32   33 1    
    65   32   34 1    
    66   32  155 1    
    67   33  156 1    
    68   33  157 1    
    69   33  158 1    
    70   34   35 am   BACKBONE|DICT|INTERRES
    71   34  159 1    
    72   35   36 2    
    73   35   37 1    
    74   37   38 1    
    75   37   39 1    
    76   37  160 1    
    77   38  161 1    
    78   38  162 1    
    79   38  163 1    
    80   39   40 am   BACKBONE|DICT|INTERRES
    81   39  164 1    
    82   40   41 2    
    83   40   42 1    
    84   42   43 1    
    85   42   44 1    
    86   42  165 1    
    87   43  166 1    
    88   43  167 1    
    89   43  168 1    
    90   44   45 am   BACKBONE|DICT|INTERRES
    91   44  169 1    
    92   45   46 2    
    93   45   47 1    
    94   47   48 1    
    95   47   49 1    
    96   47  170 1    
    97   48  171 1    
    98   48  172 1    
    99   48  173 1    
   100   49   50 am   BACKBONE|DICT|INTERRES
   101   49  174 1    
   102   50   51 2    
   103   50   52 1    
   104   52   53 1    
   105   52   54 1    
   106   52  175 1    
   107   53  176 1    
   108   53  177 1    
   109   53  178 1    
   110   54   55 am   BACKBONE|DICT|INTERRES
   111   54  179 1    
   112   55   56 2    
   113   55   57 1    
   114   57   58 1    
   115   57   59 1    
   116   57  180 1    
   117   58  181 1    
   118   58  182 1    
   119   58  183 1    
   120   59   60 am   BACKBONE|DICT|INTERRES
   121   59  184 1    
   122   60   61 2    
   123   60   62 1    
   124   62   63 1    
   125   62   64 1    
   126   62  185 1    
   127   63  186 1    
   128   63  187 1    
   129   63  188 1    
   130   64   65 am   BACKBONE|DICT|INTERRES
   131   64  189 1    
   132   65   66 2    
   133   67   68 2    
   134   67   69 am   BACKBONE|DICT|INTERRES
   135   69   70 1    
   136   69  190 1    
   137   70   71 1    
   138   70   72 1    
   139   70  191 1    
   140   71  192 1    
   141   71  193 1    
   142   71  194 1    
   143   72   73 2    
   144   72   74 am   BACKBONE|DICT|INTERRES
   145   74   75 1    
   146   74  195 1    
   147   75   76 1    
   148   75   77 1    
   149   75  196 1    
   150   76  197 1    
   151   76  198 1    
   152   76  199 1    
   153   77   78 2    
   154   77   79 am   BACKBONE|DICT|INTERRES
   155   79   80 1    
   156   79  200 1    
   157   80   81 1    
   158   80   82 1    
   159   80  201 1    
   160   81  202 1    
   161   81  203 1    
   162   81  204 1    
   163   82   83 2    
   164   82   84 am   BACKBONE|DICT|INTERRES
   165   84   85 1    
   166   84  205 1    
   167   85   86 1    
   168   85   87 1    
   169   85  206 1    
   170   86  207 1    
   171   86  208 1    
   172   86  209 1    
   173   87   88 2    
   174   87   89 am   BACKBONE|DICT|INTERRES
   175   89   90 1    
   176   89  210 1    
   177   90   91 1    
   178   90   92 1    
   179   90  211 1    
   180   91  212 1    
   181   91  213 1    
   182   91  214 1    
   183   92   93 2    
   184   92   94 am   BACKBONE|DICT|INTERRES
   185   94   95 1    
   186   94  215 1    
   187   95   96 1    
   188   95   97 1    
   189   95  216 1    
   190   96  217 1    
   191   96  218 1    
   192   96  219 1    
   193   97   98 2    
   194   97   99 am   BACKBONE|DICT|INTERRES
   195   99  100 1    
   196   99  220 1    
   197  100  101 1    
   198  100  102 1    
   199  100  221 1    
   200  101  222 1    
   201  101  223 1    
   202  101  224 1    
   203  102  103 2    
   204  102  104 am   BACKBONE|DICT|INTERRES
   205  104  105 1    
   206  104  225 1    
   207  105  106 1    
   208  105  107 1    
   209  105  226 1    
   210  106  227 1    
   211  106  228 1    
   212  106  229 1    
   213  107  108 2    
   214  107  109 am   BACKBONE|DICT|INTERRES
   215  109  110 1    
   216  109  230 1    
   217  110  111 1    
   218  110  112 1    
   219  110  231 1    
   220  111  232 1    
   221  111  233 1    
   222  111  234 1    
   223  112  113 2    
   224  112  114 am   BACKBONE|DICT|INTERRES
   225  114  115 1    
   226  114  235 1    
   227  115  116 1    
   228  115  117 1    
   229  115  236 1    
   230  116  237 1    
   231  116  238 1    
   232  116  239 1    
   233  117  118 2    
   234  117  119 am   BACKBONE|DICT|INTERRES
   235  119  120 1    
   236  119  240 1    
   237  120  121 1    
   238  120  124 1    
   239  120  241 1    
   240  121  122 am   BACKBONE|DICT|INTERRES
   241  121  123 2    
   242  122  242 1    
   243  122  243 1    
   244  124  125 1    
   245  124  244 1    
   246  124  245 1    
   247  125  126 1    
   248  126  246 1    
   249  126  247 1    
@<TRIPOS>SUBSTRUCTURE
     1 UNK         1 GROUP             0       ****    0 ROOT    
