@<TRIPOS>MOLECULE
3R540
247   249    1
SMALL
USER_CHARGES


@<TRIPOS>ATOM
      1 CA          6.3761  -10.4918  -44.2460 C.3       0 UNK        -0.1800 
      2 C           5.0899  -11.1821  -44.6733 C.2       0 UNK         0.5000 
      3 O           4.0060  -10.7008  -44.3512 O.2       0 UNK        -0.5000 
      4 N           5.2068  -12.2921  -45.4139 N.am      1 UNK        -0.5000 
      5 CA          4.1254  -13.1644  -45.9055 C.3       1 UNK         0.1400 
      6 C6          4.7471  -14.3442  -46.6943 C.3       23 UNK        -0.0398 
      7 S7          3.6148  -15.7218  -47.0896 S.3       23 UNK        -0.2404 
      8 C8          3.7278  -15.7194  -48.9089 C.3       23 UNK        -0.0205 
      9 C9          3.2448  -17.0213  -49.5315 C.ar      23 UNK        -0.0193 
     10 C10         2.2135  -17.0177  -50.4748 C.ar      23 UNK        -0.1150 
     11 C11         1.8157  -18.2052  -51.0971 C.ar      23 UNK        -0.0193 
     12 C12         2.4586  -19.4026  -50.7688 C.ar      23 UNK        -0.1150 
     13 C13         3.4881  -19.4231  -49.8207 C.ar      23 UNK        -0.0193 
     14 C14         3.8760  -18.2268  -49.2112 C.ar      23 UNK        -0.1150 
     15 C15         4.2215  -20.7156  -49.4707 C.3       23 UNK        -0.0205 
     16 S16         3.1235  -22.1438  -49.1910 S.3       23 UNK        -0.2404 
     17 C17         2.0282  -21.5000  -47.8820 C.3       23 UNK        -0.0398 
     18 CA          1.1460  -22.5859  -47.2219 C.3       11 UNK         0.1400 
     19 N           0.4479  -22.0612  -46.0458 N.am      11 UNK        -0.5000 
     20 C          -0.2789  -22.7934  -45.1902 C.2       10 UNK         0.5000 
     21 O          -0.3810  -24.0177  -45.2522 O.2       10 UNK        -0.5000 
     22 CA         -1.0661  -22.0253  -44.1140 C.3       10 UNK         0.1400 
     23 CB         -0.1644  -21.6848  -42.9187 C.3       10 UNK        -0.1800 
     24 N          -1.6907  -20.8079  -44.6369 N.am      10 UNK        -0.5000 
     25 C          -2.6529  -20.7959  -45.5715 C.2       9 UNK         0.5000 
     26 O          -3.1530  -21.8158  -46.0434 O.2       9 UNK        -0.5000 
     27 CA         -3.1071  -19.4243  -46.1032 C.3       9 UNK         0.1400 
     28 CB         -4.1266  -18.7793  -45.1538 C.3       9 UNK        -0.1800 
     29 N          -1.9929  -18.5045  -46.3286 N.am      9 UNK        -0.5000 
     30 C          -1.0097  -18.6994  -47.2194 C.2       8 UNK         0.5000 
     31 O          -0.9618  -19.6669  -47.9787 O.2       8 UNK        -0.5000 
     32 CA          0.1452  -17.6798  -47.2021 C.3       8 UNK         0.1400 
     33 CB         -0.2366  -16.3760  -47.9198 C.3       8 UNK        -0.1800 
     34 N           0.5664  -17.3672  -45.8376 N.am      8 UNK        -0.5000 
     35 C           1.1440  -18.2375  -44.9993 C.2       7 UNK         0.5000 
     36 O           1.4248  -19.3975  -45.3006 O.2       7 UNK        -0.5000 
     37 CA          1.3986  -17.7388  -43.5664 C.3       7 UNK         0.1400 
     38 CB          2.7124  -16.9464  -43.4892 C.3       7 UNK        -0.1800 
     39 N           0.2926  -16.9160  -43.0708 N.am      7 UNK        -0.5000 
     40 C          -0.9176  -17.4026  -42.7526 C.2       6 UNK         0.5000 
     41 O          -1.2024  -18.5976  -42.8070 O.2       6 UNK        -0.5000 
     42 CA         -2.0110  -16.3923  -42.3494 C.3       6 UNK         0.1400 
     43 CB         -1.9663  -16.1265  -40.8377 C.3       6 UNK        -0.1800 
     44 N          -1.9100  -15.1210  -43.0640 N.am      6 UNK        -0.5000 
     45 C          -1.9837  -14.9801  -44.3944 C.2       5 UNK         0.5000 
     46 O          -2.2802  -15.9008  -45.1543 O.2       5 UNK        -0.5000 
     47 CA         -1.6156  -13.6032  -44.9837 C.3       5 UNK         0.1400 
     48 CB         -2.8789  -12.8507  -45.4256 C.3       5 UNK        -0.1800 
     49 N          -0.8358  -12.7390  -44.0913 N.am      5 UNK        -0.5000 
     50 C           0.3590  -13.0243  -43.5565 C.2       4 UNK         0.5000 
     51 O           0.9313  -14.1058  -43.7016 O.2       4 UNK        -0.5000 
     52 CA          1.0022  -11.9077  -42.7144 C.3       4 UNK         0.1400 
     53 CB          2.2644  -12.3828  -41.9722 C.3       4 UNK        -0.1800 
     54 N           1.3499  -10.7649  -43.5536 N.am      4 UNK        -0.5000 
     55 C           0.5062   -9.8241  -43.9969 C.2       3 UNK         0.5000 
     56 O          -0.6923   -9.7953  -43.7130 O.2       3 UNK        -0.5000 
     57 CA          1.0965   -8.7644  -44.9400 C.3       3 UNK         0.1400 
     58 CB          1.9443   -7.7492  -44.1570 C.3       3 UNK        -0.1800 
     59 N           1.9247   -9.3987  -45.9650 N.am      3 UNK        -0.5000 
     60 C           1.5199   -9.6754  -47.2120 C.2       2 UNK         0.5000 
     61 O           0.4179   -9.3566  -47.6602 O.2       2 UNK        -0.5000 
     62 CA          2.5078  -10.4380  -48.1202 C.3       2 UNK         0.1400 
     63 CB          3.3377   -9.4528  -48.9573 C.3       2 UNK        -0.1800 
     64 N           3.4169  -11.3203  -47.3857 N.am      2 UNK        -0.5000 
     65 C           3.0384  -12.4252  -46.7265 C.2       1 UNK         0.5000 
     66 O           1.8804  -12.8426  -46.7242 O.2       1 UNK        -0.5000 
     67 C           0.1603  -23.2333  -48.2204 C.2       11 UNK         0.5000 
     68 O           0.3927  -24.3617  -48.6560 O.2       11 UNK        -0.5000 
     69 N          -0.9473  -22.5378  -48.5172 N.am      12 UNK        -0.5000 
     70 CA         -2.0327  -23.0356  -49.3626 C.3       12 UNK         0.1400 
     71 CB         -3.0680  -21.9262  -49.5797 C.3       12 UNK        -0.1800 
     72 C          -2.6970  -24.2997  -48.7891 C.2       12 UNK         0.5000 
     73 O          -2.8855  -25.2675  -49.5245 O.2       12 UNK        -0.5000 
     74 N          -2.9878  -24.2919  -47.4806 N.am      13 UNK        -0.5000 
     75 CA         -3.5490  -25.4264  -46.7470 C.3       13 UNK         0.1400 
     76 CB         -3.9023  -24.9961  -45.3159 C.3       13 UNK        -0.1800 
     77 C          -2.6202  -26.6545  -46.7386 C.2       13 UNK         0.5000 
     78 O          -3.0960  -27.7691  -46.9540 O.2       13 UNK        -0.5000 
     79 N          -1.3120  -26.4320  -46.5446 N.am      14 UNK        -0.5000 
     80 CA         -0.2709  -27.4618  -46.6142 C.3       14 UNK         0.1400 
     81 CB          1.0634  -26.8788  -46.1253 C.3       14 UNK        -0.1800 
     82 C          -0.1182  -28.0702  -48.0223 C.2       14 UNK         0.5000 
     83 O           0.1381  -29.2686  -48.1425 O.2       14 UNK        -0.5000 
     84 N          -0.3196  -27.2457  -49.0587 N.am      15 UNK        -0.5000 
     85 CA         -0.3648  -27.6517  -50.4651 C.3       15 UNK         0.1400 
     86 CB         -0.0823  -26.4203  -51.3421 C.3       15 UNK        -0.1800 
     87 C          -1.6976  -28.3191  -50.8734 C.2       15 UNK         0.5000 
     88 O          -1.7977  -28.8047  -52.0010 O.2       15 UNK        -0.5000 
     89 N          -2.6900  -28.3246  -49.9691 N.am      16 UNK        -0.5000 
     90 CA         -4.0635  -28.8104  -50.1398 C.3       16 UNK         0.1400 
     91 CB         -4.0882  -30.3361  -50.3697 C.3       16 UNK        -0.1800 
     92 C          -4.8523  -28.0170  -51.2041 C.2       16 UNK         0.5000 
     93 O          -5.6597  -28.5927  -51.9368 O.2       16 UNK        -0.5000 
     94 N          -4.6009  -26.7056  -51.2643 N.am      17 UNK        -0.5000 
     95 CA         -5.2329  -25.7476  -52.1636 C.3       17 UNK         0.1400 
     96 CB         -4.1208  -25.0384  -52.9521 C.3       17 UNK        -0.1800 
     97 C          -6.0604  -24.7305  -51.3585 C.2       17 UNK         0.5000 
     98 O          -5.9501  -24.6618  -50.1315 O.2       17 UNK        -0.5000 
     99 N          -6.8788  -23.9453  -52.0689 N.am      18 UNK        -0.5000 
    100 CA        -7.6591  -22.8485  -51.4995 C.3       18 UNK         0.1400 
    101 CB        -8.7407  -22.4236  -52.5046 C.3       18 UNK        -0.1800 
    102 C         -6.7540  -21.6536  -51.1592 C.2       18 UNK         0.5000 
    103 O         -5.9120  -21.2785  -51.9798 O.2       18 UNK        -0.5000 
    104 N         -6.9711  -21.0472  -49.9853 N.am      19 UNK        -0.5000 
    105 CA        -6.2341  -19.8727  -49.5081 C.3       19 UNK         0.1400 
    106 CB        -6.5387  -19.6491  -48.0195 C.3       19 UNK        -0.1800 
    107 C         -6.5177  -18.5978  -50.3240 C.2       19 UNK         0.5000 
    108 O         -5.6427  -17.7386  -50.4198 O.2       19 UNK        -0.5000 
    109 N         -7.7117  -18.5149  -50.9291 N.am      20 UNK        -0.5000 
    110 CA        -8.1152  -17.4335  -51.8319 C.3       20 UNK         0.1400 
    111 CB        -9.6262  -17.5309  -52.0915 C.3       20 UNK        -0.1800 
    112 C         -7.3353  -17.4454  -53.1615 C.2       20 UNK         0.5000 
    113 O         -7.0368  -16.3801  -53.7021 O.2       20 UNK        -0.5000 
    114 N         -7.0040  -18.6490  -53.6485 N.am      21 UNK        -0.5000 
    115 CA        -6.1597  -18.8687  -54.8249 C.3       21 UNK         0.1400 
    116 CB        -6.5548  -20.2096  -55.4643 C.3       21 UNK        -0.1800 
    117 C         -4.6584  -18.8719  -54.4741 C.2       21 UNK         0.5000 
    118 O         -3.8258  -18.7180  -55.3682 O.2       21 UNK        -0.5000 
    119 N         -4.3481  -19.0681  -53.1870 N.am      22 UNK        -0.5000 
    120 CA        -3.0145  -19.3335  -52.6348 C.3       22 UNK         0.1400 
    121 C         -2.4486  -20.7192  -53.0695 C.2       22 UNK         0.5000 
    122 N         -3.2921  -21.7395  -53.1635 N.am      22 UNK        -0.7600 
    123 O         -1.2598  -20.8827  -53.3279 O.2       22 UNK        -0.5000 
    124 C124       -2.0323  -18.1427  -52.8111 C.3       23 UNK        -0.0398 
    125 S125       -0.9216  -17.9784  -51.3743 S.3       23 UNK        -0.2404 
    126 C126        0.7109  -18.1887  -52.1428 C.3       23 UNK        -0.0205 
    127 H127        6.3991   -9.4723  -44.6307 H         1 UNK         0.0600 
    128 H128        7.2598  -11.0149  -44.6121 H         1 UNK         0.0600 
    129 H129        6.4322  -10.4479  -43.1584 H         1 UNK         0.0600 
    130 H130        6.1393  -12.6053  -45.6439 H         1 UNK         0.3000 
    131 H131        3.6274  -13.5713  -45.0228 H         1 UNK         0.0600 
    132 H132        5.2200  -13.9723  -47.6046 H         1 UNK         0.0800 
    133 H133        5.5553  -14.7835  -46.1077 H         1 UNK         0.0800 
    134 H134        4.7648  -15.5719  -49.2136 H         1 UNK         0.0800 
    135 H135        3.1648  -14.8678  -49.2944 H         1 UNK         0.0800 
    136 H136        1.7241  -16.0901  -50.7366 H         1 UNK         0.1150 
    137 H137        2.1593  -20.3207  -51.2546 H         1 UNK         0.1150 
    138 H138        4.6829  -18.2265  -48.4918 H         1 UNK         0.1150 
    139 H139        4.9079  -20.9563  -50.2833 H         1 UNK         0.0800 
    140 H140        4.8361  -20.5781  -48.5797 H         1 UNK         0.0800 
    141 H141        1.4123  -20.7035  -48.3001 H         1 UNK         0.0800 
    142 H142        2.6570  -21.0296  -47.1247 H         1 UNK         0.0800 
    143 H143        1.8078  -23.3773  -46.8636 H         1 UNK         0.0600 
    144 H144        0.5220  -21.0610  -45.8871 H         1 UNK         0.3000 
    145 H145       -1.8632  -22.6803  -43.7570 H         1 UNK         0.0600 
    146 H146       -0.7371  -21.2288  -42.1111 H         1 UNK         0.0600 
    147 H147        0.3055  -22.5828  -42.5158 H         1 UNK         0.0600 
    148 H148        0.6315  -20.9941  -43.1969 H         1 UNK         0.0600 
    149 H149       -1.3745  -19.9288  -44.2394 H         1 UNK         0.3000 
    150 H150       -3.5956  -19.5887  -47.0656 H         1 UNK         0.0600 
    151 H151       -4.9910  -19.4289  -45.0106 H         1 UNK         0.0600 
    152 H152       -4.4923  -17.8325  -45.5517 H         1 UNK         0.0600 
    153 H153       -3.6948  -18.5852  -44.1720 H         1 UNK         0.0600 
    154 H154       -1.9856  -17.6510  -45.7755 H         1 UNK         0.3000 
    155 H155        0.9951  -18.1221  -47.7265 H         1 UNK         0.0600 
    156 H156       -1.1057  -15.8976  -47.4706 H         1 UNK         0.0600 
    157 H157        0.5856  -15.6602  -47.9034 H         1 UNK         0.0600 
    158 H158       -0.4773  -16.5631  -48.9638 H         1 UNK         0.0600 
    159 H159        0.3602  -16.4393  -45.4987 H         1 UNK         0.3000 
    160 H160        1.4933  -18.6126  -42.9184 H         1 UNK         0.0600 
    161 H161        2.6900  -16.0624  -44.1269 H         1 UNK         0.0600 
    162 H162        3.5554  -17.5586  -43.8117 H         1 UNK         0.0600 
    163 H163        2.9170  -16.6183  -42.4700 H         1 UNK         0.0600 
    164 H164        0.4447  -15.9117  -43.0667 H         1 UNK         0.3000 
    165 H165       -2.9791  -16.8349  -42.5915 H         1 UNK         0.0600 
    166 H166       -2.7836  -15.4754  -40.5269 H         1 UNK         0.0600 
    167 H167       -2.0613  -17.0564  -40.2754 H         1 UNK         0.0600 
    168 H168       -1.0285  -15.6562  -40.5389 H         1 UNK         0.0600 
    169 H169       -1.6639  -14.3103  -42.5165 H         1 UNK         0.3000 
    170 H170       -1.0016  -13.7895  -45.8672 H         1 UNK         0.0600 
    171 H171       -3.4693  -13.4499  -46.1202 H         1 UNK         0.0600 
    172 H172       -3.5179  -12.6061  -44.5762 H         1 UNK         0.0600 
    173 H173       -2.6257  -11.9206  -45.9351 H         1 UNK         0.0600 
    174 H174       -1.1978  -11.8040  -43.9387 H         1 UNK         0.3000 
    175 H175        0.2731  -11.5923  -41.9653 H         1 UNK         0.0600 
    176 H176        3.0364  -12.7227  -42.6633 H         1 UNK         0.0600 
    177 H177        2.6892  -11.5831  -41.3653 H         1 UNK         0.0600 
    178 H178        2.0348  -13.2129  -41.3031 H         1 UNK         0.0600 
    179 H179        2.3229  -10.7222  -43.8526 H         1 UNK         0.3000 
    180 H180        0.2673   -8.2236  -45.4010 H         1 UNK         0.0600 
    181 H181        2.7998   -8.2211  -43.6720 H         1 UNK         0.0600 
    182 H182        1.3524   -7.2633  -43.3804 H         1 UNK         0.0600 
    183 H183        2.3239   -6.9666  -44.8141 H         1 UNK         0.0600 
    184 H184        2.8243   -9.7504  -45.6560 H         1 UNK         0.3000 
    185 H185        1.9183  -11.0535  -48.8031 H         1 UNK         0.0600 
    186 H186        3.9835   -9.9785  -49.6609 H         1 UNK         0.0600 
    187 H187        2.6915   -8.7951  -49.5405 H         1 UNK         0.0600 
    188 H188        3.9671   -8.8214  -48.3289 H         1 UNK         0.0600 
    189 H189        4.3837  -11.0354  -47.3314 H         1 UNK         0.3000 
    190 H190       -1.0488  -21.5951  -48.1506 H         1 UNK         0.3000 
    191 H191       -1.6029  -23.2917  -50.3332 H         1 UNK         0.0600 
    192 H192       -3.5775  -21.6607  -48.6541 H         1 UNK         0.0600 
    193 H193       -3.8285  -22.2433  -50.2936 H         1 UNK         0.0600 
    194 H194       -2.5984  -21.0250  -49.9715 H         1 UNK         0.0600 
    195 H195       -2.8440  -23.4345  -46.9527 H         1 UNK         0.3000 
    196 H196       -4.4736  -25.7150  -47.2517 H         1 UNK         0.0600 
    197 H197       -4.3528  -25.8196  -44.7604 H         1 UNK         0.0600 
    198 H198       -4.6182  -24.1740  -45.3173 H         1 UNK         0.0600 
    199 H199       -3.0207  -24.6706  -44.7638 H         1 UNK         0.0600 
    200 H200       -1.0027  -25.4891  -46.3223 H         1 UNK         0.3000 
    201 H201       -0.5563  -28.2689  -45.9364 H         1 UNK         0.0600 
    202 H202        0.9843  -26.5220  -45.0982 H         1 UNK         0.0600 
    203 H203        1.3891  -26.0429  -46.7448 H         1 UNK         0.0600 
    204 H204        1.8516  -27.6322  -46.1484 H         1 UNK         0.0600 
    205 H205       -0.4671  -26.2594  -48.8707 H         1 UNK         0.3000 
    206 H206        0.4290  -28.3803  -50.6413 H         1 UNK         0.0600 
    207 H207        0.8740  -25.9640  -51.0857 H         1 UNK         0.0600 
    208 H208       -0.0403  -26.6909  -52.3978 H         1 UNK         0.0600 
    209 H209       -0.8551  -25.6597  -51.2304 H         1 UNK         0.0600 
    210 H210       -2.5055  -27.8831  -49.0770 H         1 UNK         0.3000 
    211 H211       -4.5681  -28.6171  -49.1924 H         1 UNK         0.0600 
    212 H212       -3.6626  -30.6094  -51.3355 H         1 UNK         0.0600 
    213 H213       -5.1093  -30.7178  -50.3441 H         1 UNK         0.0600 
    214 H214       -3.5279  -30.8596  -49.5951 H         1 UNK         0.0600 
    215 H215       -3.9668  -26.2930  -50.5810 H         1 UNK         0.3000 
    216 H216       -5.8999  -26.2534  -52.8644 H         1 UNK         0.0600 
    217 H217       -4.5354  -24.3310  -53.6708 H         1 UNK         0.0600 
    218 H218       -3.5201  -25.7549  -53.5129 H         1 UNK         0.0600 
    219 H219       -3.4503  -24.4909  -52.2881 H         1 UNK         0.0600 
    220 H220       -6.8968  -24.0333  -53.0742 H         1 UNK         0.3000 
    221 H221       -8.1498  -23.2009  -50.5896 H         1 UNK         0.0600 
    222 H222       -8.3075  -22.0740  -53.4426 H         1 UNK         0.0600 
    223 H223       -9.4109  -23.2521  -52.7347 H         1 UNK         0.0600 
    224 H224       -9.3528  -21.6146  -52.1039 H         1 UNK         0.0600 
    225 H225       -7.6788  -21.4153  -49.3660 H         1 UNK         0.3000 
    226 H226       -5.1674  -20.0780  -49.6067 H         1 UNK         0.0600 
    227 H227       -6.2235  -20.5039  -47.4205 H         1 UNK         0.0600 
    228 H228       -6.0092  -18.7746  -47.6392 H         1 UNK         0.0600 
    229 H229       -7.6033  -19.4883  -47.8454 H         1 UNK         0.0600 
    230 H230       -8.3781  -19.2581  -50.7809 H         1 UNK         0.3000 
    231 H231       -7.9135  -16.4816  -51.3360 H         1 UNK         0.0600 
    232 H232       -9.9621  -16.7256  -52.7462 H         1 UNK         0.0600 
    233 H233      -10.1919  -17.4501  -51.1631 H         1 UNK         0.0600 
    234 H234       -9.8944  -18.4747  -52.5680 H         1 UNK         0.0600 
    235 H235       -7.2791  -19.4727  -53.1340 H         1 UNK         0.3000 
    236 H236       -6.3335  -18.0752  -55.5548 H         1 UNK         0.0600 
    237 H237       -7.6096  -20.2214  -55.7391 H         1 UNK         0.0600 
    238 H238       -5.9803  -20.3925  -56.3733 H         1 UNK         0.0600 
    239 H239       -6.3731  -21.0469  -54.7891 H         1 UNK         0.0600 
    240 H240       -5.1131  -19.2267  -52.5476 H         1 UNK         0.3000 
    241 H241       -3.2064  -19.4383  -51.5671 H         1 UNK         0.0600 
    242 H242       -4.2671  -21.6216  -52.9028 H         1 UNK         0.3800 
    243 H243       -2.9468  -22.6343  -53.4655 H         1 UNK         0.3800 
    244 H244       -1.4681  -18.2220  -53.7417 H         1 UNK         0.0800 
    245 H245       -2.5872  -17.2063  -52.8804 H         1 UNK         0.0800 
    246 H246        0.7219  -19.1129  -52.7225 H         1 UNK         0.0800 
    247 H247        0.8872  -17.3761  -52.8490 H         1 UNK         0.0800 
@<TRIPOS>BOND
     1    1    2 1    
     2    1  127 1    
     3    1  128 1    
     4    1  129 1    
     5    2    3 2    
     6    2    4 am   BACKBONE|DICT|INTERRES
     7    4    5 1    
     8    4  130 1    
     9    5    6 1    
    10    5   65 1    
    11    5  131 1    
    12    6    7 1    
    13    6  132 1    
    14    6  133 1    
    15    7    8 1    
    16    8    9 1    
    17    8  134 1    
    18    8  135 1    
    19    9   10 ar   
    20    9   14 ar   
    21   10   11 ar   
    22   10  136 1    
    23   11   12 ar   
    24   11  126 1    
    25   12   13 ar   
    26   12  137 1    
    27   13   14 ar   
    28   13   15 1    
    29   14  138 1    
    30   15   16 1    
    31   15  139 1    
    32   15  140 1    
    33   16   17 1    
    34   17   18 1    
    35   17  141 1    
    36   17  142 1    
    37   18   19 1    
    38   18   67 1    
    39   18  143 1    
    40   19   20 am   BACKBONE|DICT|INTERRES
    41   19  144 1    
    42   20   21 2    
    43   20   22 1    
    44   22   23 1    
    45   22   24 1    
    46   22  145 1    
    47   23  146 1    
    48   23  147 1    
    49   23  148 1    
    50   24   25 am   BACKBONE|DICT|INTERRES
    51   24  149 1    
    52   25   26 2    
    53   25   27 1    
    54   27   28 1    
    55   27   29 1    
    56   27  150 1    
    57   28  151 1    
    58   28  152 1    
    59   28  153 1    
    60   29   30 am   BACKBONE|DICT|INTERRES
    61   29  154 1    
    62   30   31 2    
    63   30   32 1    
    64   32   33 1    
    65   32   34 1    
    66   32  155 1    
    67   33  156 1    
    68   33  157 1    
    69   33  158 1    
    70   34   35 am   BACKBONE|DICT|INTERRES
    71   34  159 1    
    72   35   36 2    
    73   35   37 1    
    74   37   38 1    
    75   37   39 1    
    76   37  160 1    
    77   38  161 1    
    78   38  162 1    
    79   38  163 1    
    80   39   40 am   BACKBONE|DICT|INTERRES
    81   39  164 1    
    82   40   41 2    
    83   40   42 1    
    84   42   43 1    
    85   42   44 1    
    86   42  165 1    
    87   43  166 1    
    88   43  167 1    
    89   43  168 1    
    90   44   45 am   BACKBONE|DICT|INTERRES
    91   44  169 1    
    92   45   46 2    
    93   45   47 1    
    94   47   48 1    
    95   47   49 1    
    96   47  170 1    
    97   48  171 1    
    98   48  172 1    
    99   48  173 1    
   100   49   50 am   BACKBONE|DICT|INTERRES
   101   49  174 1    
   102   50   51 2    
   103   50   52 1    
   104   52   53 1    
   105   52   54 1    
   106   52  175 1    
   107   53  176 1    
   108   53  177 1    
   109   53  178 1    
   110   54   55 am   BACKBONE|DICT|INTERRES
   111   54  179 1    
   112   55   56 2    
   113   55   57 1    
   114   57   58 1    
   115   57   59 1    
   116   57  180 1    
   117   58  181 1    
   118   58  182 1    
   119   58  183 1    
   120   59   60 am   BACKBONE|DICT|INTERRES
   121   59  184 1    
   122   60   61 2    
   123   60   62 1    
   124   62   63 1    
   125   62   64 1    
   126   62  185 1    
   127   63  186 1    
   128   63  187 1    
   129   63  188 1    
   130   64   65 am   BACKBONE|DICT|INTERRES
   131   64  189 1    
   132   65   66 2    
   133   67   68 2    
   134   67   69 am   BACKBONE|DICT|INTERRES
   135   69   70 1    
   136   69  190 1    
   137   70   71 1    
   138   70   72 1    
   139   70  191 1    
   140   71  192 1    
   141   71  193 1    
   142   71  194 1    
   143   72   73 2    
   144   72   74 am   BACKBONE|DICT|INTERRES
   145   74   75 1    
   146   74  195 1    
   147   75   76 1    
   148   75   77 1    
   149   75  196 1    
   150   76  197 1    
   151   76  198 1    
   152   76  199 1    
   153   77   78 2    
   154   77   79 am   BACKBONE|DICT|INTERRES
   155   79   80 1    
   156   79  200 1    
   157   80   81 1    
   158   80   82 1    
   159   80  201 1    
   160   81  202 1    
   161   81  203 1    
   162   81  204 1    
   163   82   83 2    
   164   82   84 am   BACKBONE|DICT|INTERRES
   165   84   85 1    
   166   84  205 1    
   167   85   86 1    
   168   85   87 1    
   169   85  206 1    
   170   86  207 1    
   171   86  208 1    
   172   86  209 1    
   173   87   88 2    
   174   87   89 am   BACKBONE|DICT|INTERRES
   175   89   90 1    
   176   89  210 1    
   177   90   91 1    
   178   90   92 1    
   179   90  211 1    
   180   91  212 1    
   181   91  213 1    
   182   91  214 1    
   183   92   93 2    
   184   92   94 am   BACKBONE|DICT|INTERRES
   185   94   95 1    
   186   94  215 1    
   187   95   96 1    
   188   95   97 1    
   189   95  216 1    
   190   96  217 1    
   191   96  218 1    
   192   96  219 1    
   193   97   98 2    
   194   97   99 am   BACKBONE|DICT|INTERRES
   195   99  100 1    
   196   99  220 1    
   197  100  101 1    
   198  100  102 1    
   199  100  221 1    
   200  101  222 1    
   201  101  223 1    
   202  101  224 1    
   203  102  103 2    
   204  102  104 am   BACKBONE|DICT|INTERRES
   205  104  105 1    
   206  104  225 1    
   207  105  106 1    
   208  105  107 1    
   209  105  226 1    
   210  106  227 1    
   211  106  228 1    
   212  106  229 1    
   213  107  108 2    
   214  107  109 am   BACKBONE|DICT|INTERRES
   215  109  110 1    
   216  109  230 1    
   217  110  111 1    
   218  110  112 1    
   219  110  231 1    
   220  111  232 1    
   221  111  233 1    
   222  111  234 1    
   223  112  113 2    
   224  112  114 am   BACKBONE|DICT|INTERRES
   225  114  115 1    
   226  114  235 1    
   227  115  116 1    
   228  115  117 1    
   229  115  236 1    
   230  116  237 1    
   231  116  238 1    
   232  116  239 1    
   233  117  118 2    
   234  117  119 am   BACKBONE|DICT|INTERRES
   235  119  120 1    
   236  119  240 1    
   237  120  121 1    
   238  120  124 1    
   239  120  241 1    
   240  121  122 am   BACKBONE|DICT|INTERRES
   241  121  123 2    
   242  122  242 1    
   243  122  243 1    
   244  124  125 1    
   245  124  244 1    
   246  124  245 1    
   247  125  126 1    
   248  126  246 1    
   249  126  247 1    
@<TRIPOS>SUBSTRUCTURE
     1 UNK         1 GROUP             0       ****    0 ROOT    
