@<TRIPOS>MOLECULE
3R540
247   249    1
SMALL
USER_CHARGES


@<TRIPOS>ATOM
      1 CA          1.5020  -11.0048  -46.8138 C.3       0 UNK        -0.1800 
      2 C           2.6160  -11.6183  -47.6511 C.2       0 UNK         0.5000 
      3 O           3.1993  -10.9328  -48.4908 O.2       0 UNK        -0.5000 
      4 N           2.9123  -12.8997  -47.4132 N.am      1 UNK        -0.5000 
      5 CA          3.9566  -13.6835  -48.0856 C.3       1 UNK         0.1400 
      6 C6          3.3532  -14.8864  -48.8562 C.3       23 UNK        -0.0398 
      7 S7          2.3352  -14.3521  -50.2773 S.3       23 UNK        -0.2404 
      8 C8          3.0408  -15.3281  -51.6468 C.3       23 UNK        -0.0205 
      9 C9          2.5127  -16.7543  -51.6323 C.ar      23 UNK        -0.0193 
     10 C10         1.3352  -17.0737  -52.3160 C.ar      23 UNK        -0.1150 
     11 C11         0.8074  -18.3664  -52.2511 C.ar      23 UNK        -0.0193 
     12 C12         1.4643  -19.3433  -51.5010 C.ar      23 UNK        -0.1150 
     13 C13         2.6333  -19.0308  -50.8037 C.ar      23 UNK        -0.0193 
     14 C14         3.1711  -17.7449  -50.8983 C.ar      23 UNK        -0.1150 
     15 C15         3.2521  -20.0535  -49.8650 C.3       23 UNK        -0.0205 
     16 S16         3.0876  -19.5535  -48.1164 S.3       23 UNK        -0.2404 
     17 C17         1.3021  -19.1897  -47.9609 C.3       23 UNK        -0.0398 
     18 CA          0.4997  -20.3963  -47.4092 C.3       11 UNK         0.1400 
     19 N           0.0934  -20.1816  -46.0202 N.am      11 UNK        -0.5000 
     20 C          -0.3128  -21.1413  -45.1812 C.2       10 UNK         0.5000 
     21 O          -0.3407  -22.3360  -45.4730 O.2       10 UNK        -0.5000 
     22 CA         -0.8129  -20.6754  -43.8004 C.3       10 UNK         0.1400 
     23 CB          0.3471  -20.6131  -42.7959 C.3       10 UNK        -0.1800 
     24 N          -1.4844  -19.3729  -43.8609 N.am      10 UNK        -0.5000 
     25 C          -2.6708  -19.1721  -44.4528 C.2       9 UNK         0.5000 
     26 O          -3.3427  -20.0766  -44.9465 O.2       9 UNK        -0.5000 
     27 CA         -3.1595  -17.7164  -44.5766 C.3       9 UNK         0.1400 
     28 CB         -4.0248  -17.3135  -43.3738 C.3       9 UNK        -0.1800 
     29 N          -2.0767  -16.7434  -44.7578 N.am      9 UNK        -0.5000 
     30 C          -1.2898  -16.6979  -45.8466 C.2       8 UNK         0.5000 
     31 O          -1.3515  -17.5326  -46.7485 O.2       8 UNK        -0.5000 
     32 CA         -0.2474  -15.5729  -45.9601 C.3       8 UNK         0.1400 
     33 CB         -0.6759  -14.5241  -46.9998 C.3       8 UNK        -0.1800 
     34 N           0.0131  -14.9315  -44.6750 N.am      8 UNK        -0.5000 
     35 C           1.1581  -14.3600  -44.3051 C.2       7 UNK         0.5000 
     36 O           2.1400  -14.2683  -45.0421 O.2       7 UNK        -0.5000 
     37 CA          1.2338  -13.8121  -42.8694 C.3       7 UNK         0.1400 
     38 CB          0.4666  -12.4837  -42.7449 C.3       7 UNK        -0.1800 
     39 N           0.8304  -14.7606  -41.8225 N.am      7 UNK        -0.5000 
     40 C          -0.3667  -15.3212  -41.5809 C.2       6 UNK         0.5000 
     41 O          -1.3549  -15.1675  -42.3028 O.2       6 UNK        -0.5000 
     42 CA         -0.4899  -16.2237  -40.3346 C.3       6 UNK         0.1400 
     43 CB         -0.6738  -17.6928  -40.7402 C.3       6 UNK        -0.1800 
     44 N           0.6644  -16.1346  -39.4413 N.am      6 UNK        -0.5000 
     45 C           0.9080  -15.1290  -38.5894 C.2       5 UNK         0.5000 
     46 O           0.1351  -14.1880  -38.4069 O.2       5 UNK        -0.5000 
     47 CA          2.2491  -15.1694  -37.8265 C.3       5 UNK         0.1400 
     48 CB          2.0294  -15.6285  -36.3768 C.3       5 UNK        -0.1800 
     49 N           3.2589  -16.0333  -38.4487 N.am      5 UNK        -0.5000 
     50 C           3.8296  -15.8192  -39.6422 C.2       4 UNK         0.5000 
     51 O           3.5782  -14.8342  -40.3417 O.2       4 UNK        -0.5000 
     52 CA          4.8313  -16.8838  -40.1455 C.3       4 UNK         0.1400 
     53 CB          4.6447  -18.2730  -39.4940 C.3       4 UNK        -0.1800 
     54 N           4.8218  -17.0038  -41.6063 N.am      4 UNK        -0.5000 
     55 C           3.7823  -17.3159  -42.3924 C.2       3 UNK         0.5000 
     56 O           2.6602  -17.5961  -41.9674 O.2       3 UNK        -0.5000 
     57 CA          4.0506  -17.2638  -43.9109 C.3       3 UNK         0.1400 
     58 CB          2.8421  -17.7235  -44.7463 C.3       3 UNK        -0.1800 
     59 N           4.4333  -15.9152  -44.3340 N.am      3 UNK        -0.5000 
     60 C           5.6490  -15.3679  -44.1928 C.2       2 UNK         0.5000 
     61 O           6.5993  -15.9623  -43.6789 O.2       2 UNK        -0.5000 
     62 CA          5.8160  -13.9122  -44.6798 C.3       2 UNK         0.1400 
     63 CB          7.2878  -13.5229  -44.9318 C.3       2 UNK        -0.1800 
     64 N           4.9788  -13.5938  -45.8415 N.am      2 UNK        -0.5000 
     65 C           5.0298  -14.1383  -47.0686 C.2       1 UNK         0.5000 
     66 O           5.8741  -14.9675  -47.4096 O.2       1 UNK        -0.5000 
     67 C          -0.7174  -20.7391  -48.2946 C.2       11 UNK         0.5000 
     68 O          -0.6242  -21.6393  -49.1276 O.2       11 UNK        -0.5000 
     69 N          -1.8508  -20.0598  -48.0657 N.am      12 UNK        -0.5000 
     70 CA         -3.1327  -20.3540  -48.7089 C.3       12 UNK         0.1400 
     71 CB         -4.1403  -19.2396  -48.3970 C.3       12 UNK        -0.1800 
     72 C          -3.6870  -21.7337  -48.3100 C.2       12 UNK         0.5000 
     73 O          -4.1972  -22.4523  -49.1697 O.2       12 UNK        -0.5000 
     74 N          -3.5319  -22.1054  -47.0303 N.am      13 UNK        -0.5000 
     75 CA         -3.8387  -23.4392  -46.5121 C.3       13 UNK         0.1400 
     76 CB         -3.6929  -23.4629  -44.9838 C.3       13 UNK        -0.1800 
     77 C          -2.9794  -24.5315  -47.1742 C.2       13 UNK         0.5000 
     78 O          -3.5285  -25.5424  -47.6151 O.2       13 UNK        -0.5000 
     79 N          -1.6656  -24.2781  -47.2870 N.am      14 UNK        -0.5000 
     80 CA         -0.6989  -25.1362  -47.9783 C.3       14 UNK         0.1400 
     81 CB          0.7250  -24.6073  -47.7514 C.3       14 UNK        -0.1800 
     82 C          -0.9912  -25.3004  -49.4830 C.2       14 UNK         0.5000 
     83 O          -0.7700  -26.3840  -50.0237 O.2       14 UNK        -0.5000 
     84 N          -1.5589  -24.2651  -50.1181 N.am      15 UNK        -0.5000 
     85 CA         -2.0910  -24.2699  -51.4864 C.3       15 UNK         0.1400 
     86 CB         -2.1406  -22.8213  -52.0101 C.3       15 UNK        -0.1800 
     87 C          -3.4597  -24.9879  -51.6026 C.2       15 UNK         0.5000 
     88 O          -4.3282  -24.5430  -52.3569 O.2       15 UNK        -0.5000 
     89 N          -3.6235  -26.0842  -50.8462 N.am      16 UNK        -0.5000 
     90 CA         -4.7882  -26.9673  -50.7474 C.3       16 UNK         0.1400 
     91 CB         -4.8910  -27.8487  -52.0076 C.3       16 UNK        -0.1800 
     92 C          -6.0926  -26.2201  -50.4009 C.2       16 UNK         0.5000 
     93 O          -7.1277  -26.4583  -51.0251 O.2       16 UNK        -0.5000 
     94 N          -6.0011  -25.3203  -49.4094 N.am      17 UNK        -0.5000 
     95 CA         -7.0562  -24.4096  -48.9478 C.3       17 UNK         0.1400 
     96 CB         -8.1944  -25.1900  -48.2578 C.3       17 UNK        -0.1800 
     97 C          -7.5450  -23.4689  -50.0691 C.2       17 UNK         0.5000 
     98 O          -8.7493  -23.3443  -50.2998 O.2       17 UNK        -0.5000 
     99 N          -6.5736  -22.8359  -50.7410 N.am      18 UNK        -0.5000 
    100 CA        -6.7064  -21.9297  -51.8821 C.3       18 UNK         0.1400 
    101 CB        -7.3295  -20.5905  -51.4377 C.3       18 UNK        -0.1800 
    102 C         -7.4432  -22.5810  -53.0721 C.2       18 UNK         0.5000 
    103 O         -8.4909  -22.0935  -53.5049 O.2       18 UNK        -0.5000 
    104 N         -6.8933  -23.6990  -53.5631 N.am      19 UNK        -0.5000 
    105 CA        -7.4353  -24.4860  -54.6709 C.3       19 UNK         0.1400 
    106 CB        -6.7824  -25.8768  -54.6646 C.3       19 UNK        -0.1800 
    107 C         -7.2635  -23.7768  -56.0298 C.2       19 UNK         0.5000 
    108 O         -6.2800  -24.0194  -56.7315 O.2       19 UNK        -0.5000 
    109 N         -8.2270  -22.9055  -56.3634 N.am      20 UNK        -0.5000 
    110 CA        -8.3576  -22.1346  -57.6106 C.3       20 UNK         0.1400 
    111 CB        -8.5389  -23.0749  -58.8207 C.3       20 UNK        -0.1800 
    112 C         -7.2437  -21.0876  -57.8403 C.2       20 UNK         0.5000 
    113 O         -7.0904  -20.5858  -58.9553 O.2       20 UNK        -0.5000 
    114 N         -6.5075  -20.7556  -56.7782 N.am      21 UNK        -0.5000 
    115 CA        -5.4160  -19.7935  -56.7113 C.3       21 UNK         0.1400 
    116 CB        -4.1634  -20.3546  -57.4107 C.3       21 UNK        -0.1800 
    117 C         -5.1415  -19.5335  -55.2246 C.2       21 UNK         0.5000 
    118 O         -5.5657  -20.3295  -54.3851 O.2       21 UNK        -0.5000 
    119 N         -4.4270  -18.4457  -54.9167 N.am      22 UNK        -0.5000 
    120 CA        -4.0640  -18.0388  -53.5450 C.3       22 UNK         0.1400 
    121 C         -5.2427  -17.4558  -52.7015 C.2       22 UNK         0.5000 
    122 N         -6.3733  -17.1038  -53.3023 N.am      22 UNK        -0.7600 
    123 O         -5.1299  -17.2917  -51.4905 O.2       22 UNK        -0.5000 
    124 C124       -3.2625  -19.1438  -52.7913 C.3       23 UNK        -0.0398 
    125 S125       -1.8944  -18.4733  -51.7943 S.3       23 UNK        -0.2404 
    126 C126       -0.5016  -18.7029  -52.9396 C.3       23 UNK        -0.0205 
    127 H127        1.0989  -11.7138  -46.0906 H         1 UNK         0.0600 
    128 H128        0.6862  -10.6775  -47.4582 H         1 UNK         0.0600 
    129 H129        1.8756  -10.1389  -46.2672 H         1 UNK         0.0600 
    130 H130        2.4223  -13.3974  -46.6733 H         1 UNK         0.3000 
    131 H131        4.4908  -13.0599  -48.8052 H         1 UNK         0.0600 
    132 H132        4.1479  -15.5344  -49.2247 H         1 UNK         0.0800 
    133 H133        2.7401  -15.5027  -48.1964 H         1 UNK         0.0800 
    134 H134        2.7763  -14.8487  -52.5905 H         1 UNK         0.0800 
    135 H135        4.1308  -15.3180  -51.5983 H         1 UNK         0.0800 
    136 H136        0.8120  -16.3081  -52.8717 H         1 UNK         0.1150 
    137 H137        1.0316  -20.3308  -51.4151 H         1 UNK         0.1150 
    138 H138        4.0708  -17.5065  -50.3499 H         1 UNK         0.1150 
    139 H139        2.7889  -21.0328  -49.9974 H         1 UNK         0.0800 
    140 H140        4.3090  -20.1751  -50.1059 H         1 UNK         0.0800 
    141 H141        0.9007  -18.8244  -48.9051 H         1 UNK         0.0800 
    142 H142        1.2123  -18.3291  -47.2987 H         1 UNK         0.0800 
    143 H143        1.1383  -21.2822  -47.4240 H         1 UNK         0.0600 
    144 H144        0.0197  -19.2221  -45.7196 H         1 UNK         0.3000 
    145 H145       -1.5303  -21.4166  -43.4423 H         1 UNK         0.0600 
    146 H146       -0.0198  -20.4382  -41.7848 H         1 UNK         0.0600 
    147 H147        0.8999  -21.5533  -42.7772 H         1 UNK         0.0600 
    148 H148        1.0551  -19.8207  -43.0398 H         1 UNK         0.0600 
    149 H149       -0.9898  -18.5792  -43.4835 H         1 UNK         0.3000 
    150 H150       -3.7927  -17.6685  -45.4648 H         1 UNK         0.0600 
    151 H151       -4.8375  -18.0249  -43.2209 H         1 UNK         0.0600 
    152 H152       -4.4775  -16.3340  -43.5284 H         1 UNK         0.0600 
    153 H153       -3.4490  -17.2695  -42.4511 H         1 UNK         0.0600 
    154 H154       -1.9759  -16.0561  -44.0213 H         1 UNK         0.3000 
    155 H155        0.6732  -16.0429  -46.3115 H         1 UNK         0.0600 
    156 H156       -1.5690  -13.9859  -46.6807 H         1 UNK         0.0600 
    157 H157        0.1123  -13.7930  -47.1744 H         1 UNK         0.0600 
    158 H158       -0.8964  -14.9916  -47.9605 H         1 UNK         0.0600 
    159 H159       -0.7151  -14.9741  -43.9675 H         1 UNK         0.3000 
    160 H160        2.2866  -13.5993  -42.6765 H         1 UNK         0.0600 
    161 H161       -0.6020  -12.6091  -42.9220 H         1 UNK         0.0600 
    162 H162        0.8330  -11.7526  -43.4667 H         1 UNK         0.0600 
    163 H163        0.5919  -12.0505  -41.7525 H         1 UNK         0.0600 
    164 H164        1.5813  -15.0070  -41.1877 H         1 UNK         0.3000 
    165 H165       -1.3809  -15.9065  -39.7888 H         1 UNK         0.0600 
    166 H166       -0.7752  -18.3353  -39.8654 H         1 UNK         0.0600 
    167 H167       -1.5706  -17.8281  -41.3412 H         1 UNK         0.0600 
    168 H168        0.1718  -18.0534  -41.3240 H         1 UNK         0.0600 
    169 H169        1.3633  -16.8570  -39.5418 H         1 UNK         0.3000 
    170 H170        2.6428  -14.1510  -37.8080 H         1 UNK         0.0600 
    171 H171        1.6519  -16.6508  -36.3315 H         1 UNK         0.0600 
    172 H172        2.9560  -15.5857  -35.8040 H         1 UNK         0.0600 
    173 H173        1.3062  -14.9888  -35.8691 H         1 UNK         0.0600 
    174 H174        3.5140  -16.8648  -37.9355 H         1 UNK         0.3000 
    175 H175        5.8233  -16.5188  -39.8768 H         1 UNK         0.0600 
    176 H176        5.3373  -18.9990  -39.9202 H         1 UNK         0.0600 
    177 H177        3.6346  -18.6589  -39.6370 H         1 UNK         0.0600 
    178 H178        4.8427  -18.2421  -38.4222 H         1 UNK         0.0600 
    179 H179        5.6773  -16.7258  -42.0769 H         1 UNK         0.3000 
    180 H180        4.8765  -17.9454  -44.1248 H         1 UNK         0.0600 
    181 H181        3.0243  -17.5748  -45.8101 H         1 UNK         0.0600 
    182 H182        1.9337  -17.1835  -44.4830 H         1 UNK         0.0600 
    183 H183        2.6477  -18.7855  -44.5945 H         1 UNK         0.0600 
    184 H184        3.6924  -15.3396  -44.7226 H         1 UNK         0.3000 
    185 H185        5.4491  -13.2855  -43.8657 H         1 UNK         0.0600 
    186 H186        7.8772  -13.6116  -44.0186 H         1 UNK         0.0600 
    187 H187        7.7544  -14.1606  -45.6830 H         1 UNK         0.0600 
    188 H188        7.3701  -12.4900  -45.2699 H         1 UNK         0.0600 
    189 H189        4.2304  -12.9377  -45.6677 H         1 UNK         0.3000 
    190 H190       -1.8271  -19.2763  -47.4200 H         1 UNK         0.3000 
    191 H191       -2.9688  -20.3687  -49.7872 H         1 UNK         0.0600 
    192 H192       -3.7640  -18.2684  -48.7201 H         1 UNK         0.0600 
    193 H193       -5.0823  -19.4110  -48.9187 H         1 UNK         0.0600 
    194 H194       -4.3607  -19.1790  -47.3316 H         1 UNK         0.0600 
    195 H195       -3.1814  -21.4253  -46.3629 H         1 UNK         0.3000 
    196 H196       -4.8824  -23.6515  -46.7426 H         1 UNK         0.0600 
    197 H197       -3.9758  -24.4366  -44.5823 H         1 UNK         0.0600 
    198 H198       -4.3367  -22.7185  -44.5148 H         1 UNK         0.0600 
    199 H199       -2.6695  -23.2659  -44.6686 H         1 UNK         0.0600 
    200 H200       -1.2923  -23.4402  -46.8523 H         1 UNK         0.3000 
    201 H201       -0.7645  -26.1273  -47.5248 H         1 UNK         0.0600 
    202 H202        0.9587  -24.5445  -46.6885 H         1 UNK         0.0600 
    203 H203        0.8630  -23.6172  -48.1841 H         1 UNK         0.0600 
    204 H204        1.4629  -25.2683  -48.2077 H         1 UNK         0.0600 
    205 H205       -1.6596  -23.3955  -49.6067 H         1 UNK         0.3000 
    206 H206       -1.3943  -24.8228  -52.1192 H         1 UNK         0.0600 
    207 H207       -1.1693  -22.3340  -51.9225 H         1 UNK         0.0600 
    208 H208       -2.4230  -22.7926  -53.0631 H         1 UNK         0.0600 
    209 H209       -2.8649  -22.2192  -51.4625 H         1 UNK         0.0600 
    210 H210       -2.8319  -26.3535  -50.2746 H         1 UNK         0.3000 
    211 H211       -4.5972  -27.6304  -49.9025 H         1 UNK         0.0600 
    212 H212       -4.9935  -27.2495  -52.9103 H         1 UNK         0.0600 
    213 H213       -5.7471  -28.5224  -51.9549 H         1 UNK         0.0600 
    214 H214       -4.0012  -28.4673  -52.1231 H         1 UNK         0.0600 
    215 H215       -5.0980  -25.2158  -48.9591 H         1 UNK         0.3000 
    216 H216       -6.6056  -23.7632  -48.1960 H         1 UNK         0.0600 
    217 H217       -8.9217  -24.5077  -47.8164 H         1 UNK         0.0600 
    218 H218       -7.8098  -25.8180  -47.4543 H         1 UNK         0.0600 
    219 H219       -8.7319  -25.8311  -48.9570 H         1 UNK         0.0600 
    220 H220       -5.6200  -22.9904  -50.4264 H         1 UNK         0.3000 
    221 H221       -5.6884  -21.7268  -52.2160 H         1 UNK         0.0600 
    222 H222       -8.3474  -20.7170  -51.0686 H         1 UNK         0.0600 
    223 H223       -6.7394  -20.1250  -50.6488 H         1 UNK         0.0600 
    224 H224       -7.3679  -19.8861  -52.2694 H         1 UNK         0.0600 
    225 H225       -6.0226  -24.0307  -53.1542 H         1 UNK         0.3000 
    226 H226       -8.5044  -24.6299  -54.5006 H         1 UNK         0.0600 
    227 H227       -7.0392  -26.4212  -53.7567 H         1 UNK         0.0600 
    228 H228       -7.1266  -26.4766  -55.5080 H         1 UNK         0.0600 
    229 H229       -5.6954  -25.8115  -54.7269 H         1 UNK         0.0600 
    230 H230       -8.9323  -22.7134  -55.6618 H         1 UNK         0.3000 
    231 H231       -9.2794  -21.5608  -57.5060 H         1 UNK         0.0600 
    232 H232       -7.6290  -23.6343  -59.0396 H         1 UNK         0.0600 
    233 H233       -8.7989  -22.5133  -59.7187 H         1 UNK         0.0600 
    234 H234       -9.3410  -23.7922  -58.6467 H         1 UNK         0.0600 
    235 H235       -6.7097  -21.1894  -55.8847 H         1 UNK         0.3000 
    236 H236       -5.7274  -18.8603  -57.1843 H         1 UNK         0.0600 
    237 H237       -4.3431  -20.5305  -58.4712 H         1 UNK         0.0600 
    238 H238       -3.3265  -19.6592  -57.3379 H         1 UNK         0.0600 
    239 H239       -3.8471  -21.2988  -56.9650 H         1 UNK         0.0600 
    240 H240       -4.1150  -17.8322  -55.6563 H         1 UNK         0.3000 
    241 H241       -3.3979  -17.1888  -53.6966 H         1 UNK         0.0600 
    242 H242       -6.4859  -17.2159  -54.2965 H         1 UNK         0.3800 
    243 H243       -7.1244  -16.7183  -52.7523 H         1 UNK         0.3800 
    244 H244       -3.9158  -19.7318  -52.1441 H         1 UNK         0.0800 
    245 H245       -2.8414  -19.8642  -53.4934 H         1 UNK         0.0800 
    246 H246       -0.4763  -19.7359  -53.2905 H         1 UNK         0.0800 
    247 H247       -0.6434  -18.0752  -53.8207 H         1 UNK         0.0800 
@<TRIPOS>BOND
     1    1    2 1    
     2    1  127 1    
     3    1  128 1    
     4    1  129 1    
     5    2    3 2    
     6    2    4 am   BACKBONE|DICT|INTERRES
     7    4    5 1    
     8    4  130 1    
     9    5    6 1    
    10    5   65 1    
    11    5  131 1    
    12    6    7 1    
    13    6  132 1    
    14    6  133 1    
    15    7    8 1    
    16    8    9 1    
    17    8  134 1    
    18    8  135 1    
    19    9   10 ar   
    20    9   14 ar   
    21   10   11 ar   
    22   10  136 1    
    23   11   12 ar   
    24   11  126 1    
    25   12   13 ar   
    26   12  137 1    
    27   13   14 ar   
    28   13   15 1    
    29   14  138 1    
    30   15   16 1    
    31   15  139 1    
    32   15  140 1    
    33   16   17 1    
    34   17   18 1    
    35   17  141 1    
    36   17  142 1    
    37   18   19 1    
    38   18   67 1    
    39   18  143 1    
    40   19   20 am   BACKBONE|DICT|INTERRES
    41   19  144 1    
    42   20   21 2    
    43   20   22 1    
    44   22   23 1    
    45   22   24 1    
    46   22  145 1    
    47   23  146 1    
    48   23  147 1    
    49   23  148 1    
    50   24   25 am   BACKBONE|DICT|INTERRES
    51   24  149 1    
    52   25   26 2    
    53   25   27 1    
    54   27   28 1    
    55   27   29 1    
    56   27  150 1    
    57   28  151 1    
    58   28  152 1    
    59   28  153 1    
    60   29   30 am   BACKBONE|DICT|INTERRES
    61   29  154 1    
    62   30   31 2    
    63   30   32 1    
    64   32   33 1    
    65   32   34 1    
    66   32  155 1    
    67   33  156 1    
    68   33  157 1    
    69   33  158 1    
    70   34   35 am   BACKBONE|DICT|INTERRES
    71   34  159 1    
    72   35   36 2    
    73   35   37 1    
    74   37   38 1    
    75   37   39 1    
    76   37  160 1    
    77   38  161 1    
    78   38  162 1    
    79   38  163 1    
    80   39   40 am   BACKBONE|DICT|INTERRES
    81   39  164 1    
    82   40   41 2    
    83   40   42 1    
    84   42   43 1    
    85   42   44 1    
    86   42  165 1    
    87   43  166 1    
    88   43  167 1    
    89   43  168 1    
    90   44   45 am   BACKBONE|DICT|INTERRES
    91   44  169 1    
    92   45   46 2    
    93   45   47 1    
    94   47   48 1    
    95   47   49 1    
    96   47  170 1    
    97   48  171 1    
    98   48  172 1    
    99   48  173 1    
   100   49   50 am   BACKBONE|DICT|INTERRES
   101   49  174 1    
   102   50   51 2    
   103   50   52 1    
   104   52   53 1    
   105   52   54 1    
   106   52  175 1    
   107   53  176 1    
   108   53  177 1    
   109   53  178 1    
   110   54   55 am   BACKBONE|DICT|INTERRES
   111   54  179 1    
   112   55   56 2    
   113   55   57 1    
   114   57   58 1    
   115   57   59 1    
   116   57  180 1    
   117   58  181 1    
   118   58  182 1    
   119   58  183 1    
   120   59   60 am   BACKBONE|DICT|INTERRES
   121   59  184 1    
   122   60   61 2    
   123   60   62 1    
   124   62   63 1    
   125   62   64 1    
   126   62  185 1    
   127   63  186 1    
   128   63  187 1    
   129   63  188 1    
   130   64   65 am   BACKBONE|DICT|INTERRES
   131   64  189 1    
   132   65   66 2    
   133   67   68 2    
   134   67   69 am   BACKBONE|DICT|INTERRES
   135   69   70 1    
   136   69  190 1    
   137   70   71 1    
   138   70   72 1    
   139   70  191 1    
   140   71  192 1    
   141   71  193 1    
   142   71  194 1    
   143   72   73 2    
   144   72   74 am   BACKBONE|DICT|INTERRES
   145   74   75 1    
   146   74  195 1    
   147   75   76 1    
   148   75   77 1    
   149   75  196 1    
   150   76  197 1    
   151   76  198 1    
   152   76  199 1    
   153   77   78 2    
   154   77   79 am   BACKBONE|DICT|INTERRES
   155   79   80 1    
   156   79  200 1    
   157   80   81 1    
   158   80   82 1    
   159   80  201 1    
   160   81  202 1    
   161   81  203 1    
   162   81  204 1    
   163   82   83 2    
   164   82   84 am   BACKBONE|DICT|INTERRES
   165   84   85 1    
   166   84  205 1    
   167   85   86 1    
   168   85   87 1    
   169   85  206 1    
   170   86  207 1    
   171   86  208 1    
   172   86  209 1    
   173   87   88 2    
   174   87   89 am   BACKBONE|DICT|INTERRES
   175   89   90 1    
   176   89  210 1    
   177   90   91 1    
   178   90   92 1    
   179   90  211 1    
   180   91  212 1    
   181   91  213 1    
   182   91  214 1    
   183   92   93 2    
   184   92   94 am   BACKBONE|DICT|INTERRES
   185   94   95 1    
   186   94  215 1    
   187   95   96 1    
   188   95   97 1    
   189   95  216 1    
   190   96  217 1    
   191   96  218 1    
   192   96  219 1    
   193   97   98 2    
   194   97   99 am   BACKBONE|DICT|INTERRES
   195   99  100 1    
   196   99  220 1    
   197  100  101 1    
   198  100  102 1    
   199  100  221 1    
   200  101  222 1    
   201  101  223 1    
   202  101  224 1    
   203  102  103 2    
   204  102  104 am   BACKBONE|DICT|INTERRES
   205  104  105 1    
   206  104  225 1    
   207  105  106 1    
   208  105  107 1    
   209  105  226 1    
   210  106  227 1    
   211  106  228 1    
   212  106  229 1    
   213  107  108 2    
   214  107  109 am   BACKBONE|DICT|INTERRES
   215  109  110 1    
   216  109  230 1    
   217  110  111 1    
   218  110  112 1    
   219  110  231 1    
   220  111  232 1    
   221  111  233 1    
   222  111  234 1    
   223  112  113 2    
   224  112  114 am   BACKBONE|DICT|INTERRES
   225  114  115 1    
   226  114  235 1    
   227  115  116 1    
   228  115  117 1    
   229  115  236 1    
   230  116  237 1    
   231  116  238 1    
   232  116  239 1    
   233  117  118 2    
   234  117  119 am   BACKBONE|DICT|INTERRES
   235  119  120 1    
   236  119  240 1    
   237  120  121 1    
   238  120  124 1    
   239  120  241 1    
   240  121  122 am   BACKBONE|DICT|INTERRES
   241  121  123 2    
   242  122  242 1    
   243  122  243 1    
   244  124  125 1    
   245  124  244 1    
   246  124  245 1    
   247  125  126 1    
   248  126  246 1    
   249  126  247 1    
@<TRIPOS>SUBSTRUCTURE
     1 UNK         1 GROUP             0       ****    0 ROOT    
