@<TRIPOS>MOLECULE
3R540
247   249    1
SMALL
USER_CHARGES


@<TRIPOS>ATOM
      1 CA          6.9759  -16.0563  -48.4012 C.3       0 UNK        -0.1800 
      2 C           5.9682  -15.0848  -47.8039 C.2       0 UNK         0.5000 
      3 O           6.1225  -14.6739  -46.6535 O.2       0 UNK        -0.5000 
      4 N           4.9471  -14.7053  -48.5840 N.am      1 UNK        -0.5000 
      5 CA          3.8577  -13.8003  -48.1997 C.3       1 UNK         0.1400 
      6 C6          2.5935  -14.0532  -49.0663 C.3       23 UNK        -0.0398 
      7 S7          1.0576  -13.4798  -48.2619 S.3       23 UNK        -0.2404 
      8 C8          0.6610  -14.8985  -47.1932 C.3       23 UNK        -0.0205 
      9 C9         -0.3429  -15.8413  -47.8375 C.ar      23 UNK        -0.0193 
     10 C10        -1.7034  -15.7268  -47.5374 C.ar      23 UNK        -0.1150 
     11 C11        -2.6299  -16.6175  -48.0855 C.ar      23 UNK        -0.0193 
     12 C12        -2.1806  -17.6282  -48.9413 C.ar      23 UNK        -0.1150 
     13 C13        -0.8271  -17.7523  -49.2604 C.ar      23 UNK        -0.0193 
     14 C14         0.0868  -16.8473  -48.7077 C.ar      23 UNK        -0.1150 
     15 C15        -0.3860  -18.8740  -50.2001 C.3       23 UNK        -0.0205 
     16 S16         1.2073  -19.6511  -49.7618 S.3       23 UNK        -0.2404 
     17 C17         0.9274  -20.1292  -48.0241 C.3       23 UNK        -0.0398 
     18 CA          0.7191  -21.6451  -47.8204 C.3       11 UNK         0.1400 
     19 N           0.9739  -22.0164  -46.4299 N.am      11 UNK        -0.5000 
     20 C           1.0193  -23.2653  -45.9512 C.2       10 UNK         0.5000 
     21 O           0.8990  -24.2741  -46.6454 O.2       10 UNK        -0.5000 
     22 CA          1.1769  -23.3990  -44.4277 C.3       10 UNK         0.1400 
     23 CB          2.6466  -23.2378  -44.0108 C.3       10 UNK        -0.1800 
     24 N           0.3536  -22.4234  -43.7115 N.am      10 UNK        -0.5000 
     25 C          -0.9855  -22.4587  -43.6629 C.2       9 UNK         0.5000 
     26 O          -1.6656  -23.3410  -44.1871 O.2       9 UNK        -0.5000 
     27 CA         -1.6793  -21.2906  -42.9379 C.3       9 UNK         0.1400 
     28 CB         -1.6686  -21.5100  -41.4178 C.3       9 UNK        -0.1800 
     29 N          -1.0777  -19.9913  -43.2475 N.am      9 UNK        -0.5000 
     30 C          -1.1123  -19.4175  -44.4584 C.2       8 UNK         0.5000 
     31 O          -1.6464  -19.9280  -45.4392 O.2       8 UNK        -0.5000 
     32 CA         -0.3864  -18.0724  -44.6176 C.3       8 UNK         0.1400 
     33 CB         -1.2893  -16.9108  -44.1827 C.3       8 UNK        -0.1800 
     34 N           0.8874  -17.9964  -43.9006 N.am      8 UNK        -0.5000 
     35 C           1.9411  -18.7993  -44.1137 C.2       7 UNK         0.5000 
     36 O           1.8971  -19.7969  -44.8352 O.2       7 UNK        -0.5000 
     37 CA          3.2582  -18.4324  -43.3948 C.3       7 UNK         0.1400 
     38 CB          4.5039  -18.8777  -44.1891 C.3       7 UNK        -0.1800 
     39 N           3.3529  -17.0128  -43.0278 N.am      7 UNK        -0.5000 
     40 C           3.3399  -15.9549  -43.8532 C.2       6 UNK         0.5000 
     41 O           3.2726  -16.0316  -45.0799 O.2       6 UNK        -0.5000 
     42 CA          3.3530  -14.5747  -43.1721 C.3       6 UNK         0.1400 
     43 CB          4.3205  -13.6047  -43.8707 C.3       6 UNK        -0.1800 
     44 N           2.0125  -13.9837  -43.1161 N.am      6 UNK        -0.5000 
     45 C           1.0049  -14.4428  -42.3560 C.2       5 UNK         0.5000 
     46 O           1.0797  -15.4827  -41.6996 O.2       5 UNK        -0.5000 
     47 CA         -0.2944  -13.6152  -42.2733 C.3       5 UNK         0.1400 
     48 CB         -0.4690  -13.0449  -40.8562 C.3       5 UNK        -0.1800 
     49 N          -0.3271  -12.5016  -43.2207 N.am      5 UNK        -0.5000 
     50 C          -1.0202  -12.4883  -44.3659 C.2       4 UNK         0.5000 
     51 O          -1.7559  -13.4055  -44.7286 O.2       4 UNK        -0.5000 
     52 CA         -0.8752  -11.2437  -45.2689 C.3       4 UNK         0.1400 
     53 CB         -2.1188  -10.3493  -45.1471 C.3       4 UNK        -0.1800 
     54 N           0.3210  -10.4222  -45.0362 N.am      4 UNK        -0.5000 
     55 C           1.5825  -10.8547  -45.1440 C.2       3 UNK         0.5000 
     56 O           1.8838  -12.0377  -45.3204 O.2       3 UNK        -0.5000 
     57 CA          2.6967   -9.8100  -44.9956 C.3       3 UNK         0.1400 
     58 CB          2.9724   -9.4957  -43.5164 C.3       3 UNK        -0.1800 
     59 N           3.8855  -10.3890  -45.6004 N.am      3 UNK        -0.5000 
     60 C           4.8102   -9.7633  -46.3316 C.2       2 UNK         0.5000 
     61 O           4.8746   -8.5405  -46.4628 O.2       2 UNK        -0.5000 
     62 CA          5.8214  -10.6728  -47.0597 C.3       2 UNK         0.1400 
     63 CB          7.1184  -10.7954  -46.2460 C.3       2 UNK        -0.1800 
     64 N           5.2943  -12.0181  -47.3130 N.am      2 UNK        -0.5000 
     65 C           4.3251  -12.3237  -48.1865 C.2       1 UNK         0.5000 
     66 O           3.8323  -11.5002  -48.9593 O.2       1 UNK        -0.5000 
     67 C          -0.6756  -22.1135  -48.2887 C.2       11 UNK         0.5000 
     68 O          -0.7828  -22.7223  -49.3526 O.2       11 UNK        -0.5000 
     69 N          -1.7066  -21.8796  -47.4628 N.am      12 UNK        -0.5000 
     70 CA         -3.0758  -22.3424  -47.6855 C.3       12 UNK         0.1400 
     71 CB         -4.0042  -21.7876  -46.5971 C.3       12 UNK        -0.1800 
     72 C          -3.1824  -23.8732  -47.7396 C.2       12 UNK         0.5000 
     73 O          -3.8540  -24.3930  -48.6291 O.2       12 UNK        -0.5000 
     74 N          -2.4970  -24.5644  -46.8167 N.am      13 UNK        -0.5000 
     75 CA         -2.4169  -26.0246  -46.7677 C.3       13 UNK         0.1400 
     76 CB         -1.7181  -26.4667  -45.4735 C.3       13 UNK        -0.1800 
     77 C          -1.7210  -26.6213  -48.0043 C.2       13 UNK         0.5000 
     78 O          -2.2310  -27.5847  -48.5769 O.2       13 UNK        -0.5000 
     79 N          -0.6053  -26.0103  -48.4293 N.am      14 UNK        -0.5000 
     80 CA          0.1244  -26.3620  -49.6513 C.3       14 UNK         0.1400 
     81 CB          1.4397  -25.5706  -49.7092 C.3       14 UNK        -0.1800 
     82 C          -0.7061  -26.1389  -50.9309 C.2       14 UNK         0.5000 
     83 O          -0.6160  -26.9371  -51.8639 O.2       14 UNK        -0.5000 
     84 N          -1.5338  -25.0866  -50.9287 N.am      15 UNK        -0.5000 
     85 CA         -2.5035  -24.7627  -51.9745 C.3       15 UNK         0.1400 
     86 CB         -2.7783  -23.2493  -51.9366 C.3       15 UNK        -0.1800 
     87 C          -3.8215  -25.5604  -51.8646 C.2       15 UNK         0.5000 
     88 O          -4.7516  -25.2775  -52.6214 O.2       15 UNK        -0.5000 
     89 N          -3.9224  -26.5002  -50.9109 N.am      16 UNK        -0.5000 
     90 CA         -5.0884  -27.3483  -50.6222 C.3       16 UNK         0.1400 
     91 CB         -5.2799  -28.3832  -51.7498 C.3       16 UNK        -0.1800 
     92 C          -6.3818  -26.5531  -50.3261 C.2       16 UNK         0.5000 
     93 O          -7.4822  -27.0482  -50.5756 O.2       16 UNK        -0.5000 
     94 N          -6.2132  -25.3217  -49.8232 N.am      17 UNK        -0.5000 
     95 CA         -7.2278  -24.3025  -49.5564 C.3       17 UNK         0.1400 
     96 CB         -8.1176  -24.7316  -48.3716 C.3       17 UNK        -0.1800 
     97 C          -8.0455  -23.8749  -50.7988 C.2       17 UNK         0.5000 
     98 O          -9.1820  -23.4248  -50.6362 O.2       17 UNK        -0.5000 
     99 N          -7.4862  -24.0219  -52.0129 N.am      18 UNK        -0.5000 
    100 CA        -8.2245  -23.7814  -53.2578 C.3       18 UNK         0.1400 
    101 CB        -9.0541  -25.0300  -53.6121 C.3       18 UNK        -0.1800 
    102 C         -7.3629  -23.3618  -54.4610 C.2       18 UNK         0.5000 
    103 O         -7.8703  -22.6369  -55.3183 O.2       18 UNK        -0.5000 
    104 N         -6.1116  -23.8342  -54.5540 N.am      19 UNK        -0.5000 
    105 CA        -5.2755  -23.6778  -55.7503 C.3       19 UNK         0.1400 
    106 CB        -4.1002  -24.6654  -55.6909 C.3       19 UNK        -0.1800 
    107 C         -4.7556  -22.2469  -55.9775 C.2       19 UNK         0.5000 
    108 O         -4.5279  -21.8675  -57.1275 O.2       19 UNK        -0.5000 
    109 N         -4.5735  -21.4826  -54.8957 N.am      20 UNK        -0.5000 
    110 CA        -4.0865  -20.1090  -54.9167 C.3       20 UNK         0.1400 
    111 CB        -2.5586  -20.0870  -55.1079 C.3       20 UNK        -0.1800 
    112 C         -4.4710  -19.4246  -53.6023 C.2       20 UNK         0.5000 
    113 O         -4.3727  -20.0511  -52.5432 O.2       20 UNK        -0.5000 
    114 N         -4.8648  -18.1467  -53.6982 N.am      21 UNK        -0.5000 
    115 CA        -5.2012  -17.2399  -52.5963 C.3       21 UNK         0.1400 
    116 CB        -3.9015  -16.7549  -51.9176 C.3       21 UNK        -0.1800 
    117 C         -6.2438  -17.8475  -51.6305 C.2       21 UNK         0.5000 
    118 O         -7.3481  -18.1711  -52.0717 O.2       21 UNK        -0.5000 
    119 N         -5.8779  -18.0028  -50.3532 N.am      22 UNK        -0.5000 
    120 CA        -6.6773  -18.6707  -49.3152 C.3       22 UNK         0.1400 
    121 C         -6.4610  -20.2137  -49.2380 C.2       22 UNK         0.5000 
    122 N         -5.6467  -20.8269  -50.0914 N.am      22 UNK        -0.7600 
    123 O         -7.0594  -20.8750  -48.3949 O.2       22 UNK        -0.5000 
    124 C124       -6.5284  -17.9621  -47.9394 C.3       23 UNK        -0.0398 
    125 S125       -4.8519  -18.0410  -47.2155 S.3       23 UNK        -0.2404 
    126 C126       -4.1147  -16.4720  -47.7759 C.3       23 UNK        -0.0205 
    127 H127        6.7187  -16.3306  -49.4245 H         1 UNK         0.0600 
    128 H128        7.0151  -16.9676  -47.8044 H         1 UNK         0.0600 
    129 H129        7.9696  -15.6086  -48.4079 H         1 UNK         0.0600 
    130 H130        4.9081  -15.0505  -49.5324 H         1 UNK         0.3000 
    131 H131        3.5925  -14.0480  -47.1697 H         1 UNK         0.0600 
    132 H132        2.4855  -15.1183  -49.2690 H         1 UNK         0.0800 
    133 H133        2.6813  -13.5813  -50.0463 H         1 UNK         0.0800 
    134 H134        1.5685  -15.4453  -46.9385 H         1 UNK         0.0800 
    135 H135        0.2693  -14.5227  -46.2477 H         1 UNK         0.0800 
    136 H136       -2.0387  -14.9456  -46.8700 H         1 UNK         0.1150 
    137 H137       -2.8899  -18.3298  -49.3558 H         1 UNK         0.1150 
    138 H138        1.1374  -16.9383  -48.9393 H         1 UNK         0.1150 
    139 H139       -1.1451  -19.6576  -50.2372 H         1 UNK         0.0800 
    140 H140       -0.3124  -18.4704  -51.2105 H         1 UNK         0.0800 
    141 H141        0.1071  -19.5642  -47.5816 H         1 UNK         0.0800 
    142 H142        1.8205  -19.8085  -47.4866 H         1 UNK         0.0800 
    143 H143        1.4607  -22.1745  -48.4225 H         1 UNK         0.0600 
    144 H144        1.1296  -21.2477  -45.7826 H         1 UNK         0.3000 
    145 H145        0.8491  -24.4010  -44.1427 H         1 UNK         0.0600 
    146 H146        2.7708  -23.3897  -42.9385 H         1 UNK         0.0600 
    147 H147        3.2768  -23.9698  -44.5176 H         1 UNK         0.0600 
    148 H148        3.0323  -22.2478  -44.2563 H         1 UNK         0.0600 
    149 H149        0.8333  -21.6361  -43.3011 H         1 UNK         0.3000 
    150 H150       -2.7194  -21.2674  -43.2701 H         1 UNK         0.0600 
    151 H151       -2.1257  -22.4660  -41.1589 H         1 UNK         0.0600 
    152 H152       -2.2327  -20.7318  -40.9034 H         1 UNK         0.0600 
    153 H153       -0.6546  -21.5113  -41.0161 H         1 UNK         0.0600 
    154 H154       -0.6047  -19.5101  -42.4969 H         1 UNK         0.3000 
    155 H155       -0.1681  -17.9466  -45.6799 H         1 UNK         0.0600 
    156 H156       -0.8291  -15.9526  -44.4207 H         1 UNK         0.0600 
    157 H157       -1.4919  -16.9327  -43.1114 H         1 UNK         0.0600 
    158 H158       -2.2479  -16.9442  -44.7028 H         1 UNK         0.0600 
    159 H159        1.0083  -17.2157  -43.2687 H         1 UNK         0.3000 
    160 H160        3.2506  -18.9889  -42.4568 H         1 UNK         0.0600 
    161 H161        4.5393  -18.4187  -45.1777 H         1 UNK         0.0600 
    162 H162        4.5125  -19.9589  -44.3321 H         1 UNK         0.0600 
    163 H163        5.4220  -18.6145  -43.6639 H         1 UNK         0.0600 
    164 H164        3.3460  -16.8275  -42.0338 H         1 UNK         0.3000 
    165 H165        3.7062  -14.6974  -42.1460 H         1 UNK         0.0600 
    166 H166        4.0480  -13.4440  -44.9125 H         1 UNK         0.0600 
    167 H167        4.3421  -12.6356  -43.3727 H         1 UNK         0.0600 
    168 H168        5.3374  -13.9988  -43.8622 H         1 UNK         0.0600 
    169 H169        1.8472  -13.1988  -43.7376 H         1 UNK         0.3000 
    170 H170       -1.1239  -14.2994  -42.4618 H         1 UNK         0.0600 
    171 H171       -0.4878  -13.8413  -40.1110 H         1 UNK         0.0600 
    172 H172        0.3429  -12.3663  -40.5918 H         1 UNK         0.0600 
    173 H173       -1.4072  -12.4970  -40.7657 H         1 UNK         0.0600 
    174 H174        0.2442  -11.6995  -42.9996 H         1 UNK         0.3000 
    175 H175       -0.8198  -11.6093  -46.2965 H         1 UNK         0.0600 
    176 H176       -2.2098   -9.9233  -44.1472 H         1 UNK         0.0600 
    177 H177       -2.0867   -9.5274  -45.8625 H         1 UNK         0.0600 
    178 H178       -3.0300  -10.9148  -45.3472 H         1 UNK         0.0600 
    179 H179        0.1568   -9.4413  -44.8604 H         1 UNK         0.3000 
    180 H180        2.4052   -8.9022  -45.5280 H         1 UNK         0.0600 
    181 H181        3.2308  -10.3938  -42.9541 H         1 UNK         0.0600 
    182 H182        2.0989   -9.0485  -43.0407 H         1 UNK         0.0600 
    183 H183        3.7958   -8.7889  -43.4124 H         1 UNK         0.0600 
    184 H184        3.8692  -11.4007  -45.6164 H         1 UNK         0.3000 
    185 H185        6.0569  -10.2083  -48.0194 H         1 UNK         0.0600 
    186 H186        7.8641  -11.3853  -46.7793 H         1 UNK         0.0600 
    187 H187        7.5553   -9.8141  -46.0560 H         1 UNK         0.0600 
    188 H188        6.9429  -11.2705  -45.2798 H         1 UNK         0.0600 
    189 H189        5.6916  -12.7819  -46.7727 H         1 UNK         0.3000 
    190 H190       -1.5580  -21.3160  -46.6282 H         1 UNK         0.3000 
    191 H191       -3.4032  -21.9465  -48.6483 H         1 UNK         0.0600 
    192 H192       -3.7163  -22.1318  -45.6037 H         1 UNK         0.0600 
    193 H193       -5.0363  -22.0959  -46.7685 H         1 UNK         0.0600 
    194 H194       -3.9888  -20.6999  -46.5880 H         1 UNK         0.0600 
    195 H195       -2.0045  -24.0564  -46.0895 H         1 UNK         0.3000 
    196 H196       -3.4385  -26.4097  -46.7470 H         1 UNK         0.0600 
    197 H197       -1.6690  -27.5543  -45.4083 H         1 UNK         0.0600 
    198 H198       -2.2571  -26.1121  -44.5948 H         1 UNK         0.0600 
    199 H199       -0.6979  -26.0878  -45.4141 H         1 UNK         0.0600 
    200 H200       -0.2234  -25.2475  -47.8760 H         1 UNK         0.3000 
    201 H201        0.3693  -27.4247  -49.5976 H         1 UNK         0.0600 
    202 H202        2.0647  -25.7817  -48.8414 H         1 UNK         0.0600 
    203 H203        1.2620  -24.4953  -49.7385 H         1 UNK         0.0600 
    204 H204        2.0154  -25.8333  -50.5974 H         1 UNK         0.0600 
    205 H205       -1.4922  -24.4426  -50.1446 H         1 UNK         0.3000 
    206 H206       -2.0638  -25.0022  -52.9442 H         1 UNK         0.0600 
    207 H207       -1.8583  -22.6769  -52.0567 H         1 UNK         0.0600 
    208 H208       -3.4504  -22.9469  -52.7387 H         1 UNK         0.0600 
    209 H209       -3.2366  -22.9472  -50.9947 H         1 UNK         0.0600 
    210 H210       -3.1323  -26.6350  -50.2918 H         1 UNK         0.3000 
    211 H211       -4.8509  -27.8917  -49.7069 H         1 UNK         0.0600 
    212 H212       -5.5799  -27.9096  -52.6852 H         1 UNK         0.0600 
    213 H213       -6.0491  -29.1111  -51.4895 H         1 UNK         0.0600 
    214 H214       -4.3602  -28.9383  -51.9348 H         1 UNK         0.0600 
    215 H215       -5.2604  -25.0399  -49.5968 H         1 UNK         0.3000 
    216 H216       -6.6761  -23.4184  -49.2398 H         1 UNK         0.0600 
    217 H217       -7.5142  -25.0139  -47.5088 H         1 UNK         0.0600 
    218 H218       -8.7536  -25.5787  -48.6298 H         1 UNK         0.0600 
    219 H219       -8.7685  -23.9158  -48.0551 H         1 UNK         0.0600 
    220 H220       -6.5528  -24.4106  -52.0889 H         1 UNK         0.3000 
    221 H221       -8.9164  -22.9511  -53.0990 H         1 UNK         0.0600 
    222 H222       -8.4189  -25.9091  -53.7283 H         1 UNK         0.0600 
    223 H223       -9.7902  -25.2508  -52.8391 H         1 UNK         0.0600 
    224 H224       -9.5999  -24.8905  -54.5462 H         1 UNK         0.0600 
    225 H225       -5.7265  -24.4273  -53.8214 H         1 UNK         0.3000 
    226 H226       -5.8843  -23.9431  -56.6174 H         1 UNK         0.0600 
    227 H227       -4.4466  -25.6876  -55.5372 H         1 UNK         0.0600 
    228 H228       -3.5322  -24.6504  -56.6218 H         1 UNK         0.0600 
    229 H229       -3.4096  -24.4178  -54.8856 H         1 UNK         0.0600 
    230 H230       -4.8121  -21.8403  -53.9803 H         1 UNK         0.3000 
    231 H231       -4.5625  -19.5762  -55.7428 H         1 UNK         0.0600 
    232 H232       -2.1770  -19.0654  -55.0899 H         1 UNK         0.0600 
    233 H233       -2.2690  -20.5232  -56.0638 H         1 UNK         0.0600 
    234 H234       -2.0497  -20.6422  -54.3186 H         1 UNK         0.0600 
    235 H235       -4.9395  -17.7414  -54.6206 H         1 UNK         0.3000 
    236 H236       -5.6820  -16.3686  -53.0435 H         1 UNK         0.0600 
    237 H237       -4.1050  -16.0596  -51.1027 H         1 UNK         0.0600 
    238 H238       -3.3165  -17.5855  -51.5248 H         1 UNK         0.0600 
    239 H239       -3.2693  -16.2261  -52.6309 H         1 UNK         0.0600 
    240 H240       -4.9394  -17.7510  -50.0853 H         1 UNK         0.3000 
    241 H241       -7.7283  -18.5625  -49.5890 H         1 UNK         0.0600 
    242 H242       -5.1870  -20.3275  -50.8482 H         1 UNK         0.3800 
    243 H243       -5.5187  -21.8188  -50.0151 H         1 UNK         0.3800 
    244 H244       -6.8327  -16.9183  -48.0260 H         1 UNK         0.0800 
    245 H245       -7.2207  -18.4022  -47.2198 H         1 UNK         0.0800 
    246 H246       -4.2787  -15.7189  -47.0036 H         1 UNK         0.0800 
    247 H247       -4.6199  -16.1084  -48.6702 H         1 UNK         0.0800 
@<TRIPOS>BOND
     1    1    2 1    
     2    1  127 1    
     3    1  128 1    
     4    1  129 1    
     5    2    3 2    
     6    2    4 am   BACKBONE|DICT|INTERRES
     7    4    5 1    
     8    4  130 1    
     9    5    6 1    
    10    5   65 1    
    11    5  131 1    
    12    6    7 1    
    13    6  132 1    
    14    6  133 1    
    15    7    8 1    
    16    8    9 1    
    17    8  134 1    
    18    8  135 1    
    19    9   10 ar   
    20    9   14 ar   
    21   10   11 ar   
    22   10  136 1    
    23   11   12 ar   
    24   11  126 1    
    25   12   13 ar   
    26   12  137 1    
    27   13   14 ar   
    28   13   15 1    
    29   14  138 1    
    30   15   16 1    
    31   15  139 1    
    32   15  140 1    
    33   16   17 1    
    34   17   18 1    
    35   17  141 1    
    36   17  142 1    
    37   18   19 1    
    38   18   67 1    
    39   18  143 1    
    40   19   20 am   BACKBONE|DICT|INTERRES
    41   19  144 1    
    42   20   21 2    
    43   20   22 1    
    44   22   23 1    
    45   22   24 1    
    46   22  145 1    
    47   23  146 1    
    48   23  147 1    
    49   23  148 1    
    50   24   25 am   BACKBONE|DICT|INTERRES
    51   24  149 1    
    52   25   26 2    
    53   25   27 1    
    54   27   28 1    
    55   27   29 1    
    56   27  150 1    
    57   28  151 1    
    58   28  152 1    
    59   28  153 1    
    60   29   30 am   BACKBONE|DICT|INTERRES
    61   29  154 1    
    62   30   31 2    
    63   30   32 1    
    64   32   33 1    
    65   32   34 1    
    66   32  155 1    
    67   33  156 1    
    68   33  157 1    
    69   33  158 1    
    70   34   35 am   BACKBONE|DICT|INTERRES
    71   34  159 1    
    72   35   36 2    
    73   35   37 1    
    74   37   38 1    
    75   37   39 1    
    76   37  160 1    
    77   38  161 1    
    78   38  162 1    
    79   38  163 1    
    80   39   40 am   BACKBONE|DICT|INTERRES
    81   39  164 1    
    82   40   41 2    
    83   40   42 1    
    84   42   43 1    
    85   42   44 1    
    86   42  165 1    
    87   43  166 1    
    88   43  167 1    
    89   43  168 1    
    90   44   45 am   BACKBONE|DICT|INTERRES
    91   44  169 1    
    92   45   46 2    
    93   45   47 1    
    94   47   48 1    
    95   47   49 1    
    96   47  170 1    
    97   48  171 1    
    98   48  172 1    
    99   48  173 1    
   100   49   50 am   BACKBONE|DICT|INTERRES
   101   49  174 1    
   102   50   51 2    
   103   50   52 1    
   104   52   53 1    
   105   52   54 1    
   106   52  175 1    
   107   53  176 1    
   108   53  177 1    
   109   53  178 1    
   110   54   55 am   BACKBONE|DICT|INTERRES
   111   54  179 1    
   112   55   56 2    
   113   55   57 1    
   114   57   58 1    
   115   57   59 1    
   116   57  180 1    
   117   58  181 1    
   118   58  182 1    
   119   58  183 1    
   120   59   60 am   BACKBONE|DICT|INTERRES
   121   59  184 1    
   122   60   61 2    
   123   60   62 1    
   124   62   63 1    
   125   62   64 1    
   126   62  185 1    
   127   63  186 1    
   128   63  187 1    
   129   63  188 1    
   130   64   65 am   BACKBONE|DICT|INTERRES
   131   64  189 1    
   132   65   66 2    
   133   67   68 2    
   134   67   69 am   BACKBONE|DICT|INTERRES
   135   69   70 1    
   136   69  190 1    
   137   70   71 1    
   138   70   72 1    
   139   70  191 1    
   140   71  192 1    
   141   71  193 1    
   142   71  194 1    
   143   72   73 2    
   144   72   74 am   BACKBONE|DICT|INTERRES
   145   74   75 1    
   146   74  195 1    
   147   75   76 1    
   148   75   77 1    
   149   75  196 1    
   150   76  197 1    
   151   76  198 1    
   152   76  199 1    
   153   77   78 2    
   154   77   79 am   BACKBONE|DICT|INTERRES
   155   79   80 1    
   156   79  200 1    
   157   80   81 1    
   158   80   82 1    
   159   80  201 1    
   160   81  202 1    
   161   81  203 1    
   162   81  204 1    
   163   82   83 2    
   164   82   84 am   BACKBONE|DICT|INTERRES
   165   84   85 1    
   166   84  205 1    
   167   85   86 1    
   168   85   87 1    
   169   85  206 1    
   170   86  207 1    
   171   86  208 1    
   172   86  209 1    
   173   87   88 2    
   174   87   89 am   BACKBONE|DICT|INTERRES
   175   89   90 1    
   176   89  210 1    
   177   90   91 1    
   178   90   92 1    
   179   90  211 1    
   180   91  212 1    
   181   91  213 1    
   182   91  214 1    
   183   92   93 2    
   184   92   94 am   BACKBONE|DICT|INTERRES
   185   94   95 1    
   186   94  215 1    
   187   95   96 1    
   188   95   97 1    
   189   95  216 1    
   190   96  217 1    
   191   96  218 1    
   192   96  219 1    
   193   97   98 2    
   194   97   99 am   BACKBONE|DICT|INTERRES
   195   99  100 1    
   196   99  220 1    
   197  100  101 1    
   198  100  102 1    
   199  100  221 1    
   200  101  222 1    
   201  101  223 1    
   202  101  224 1    
   203  102  103 2    
   204  102  104 am   BACKBONE|DICT|INTERRES
   205  104  105 1    
   206  104  225 1    
   207  105  106 1    
   208  105  107 1    
   209  105  226 1    
   210  106  227 1    
   211  106  228 1    
   212  106  229 1    
   213  107  108 2    
   214  107  109 am   BACKBONE|DICT|INTERRES
   215  109  110 1    
   216  109  230 1    
   217  110  111 1    
   218  110  112 1    
   219  110  231 1    
   220  111  232 1    
   221  111  233 1    
   222  111  234 1    
   223  112  113 2    
   224  112  114 am   BACKBONE|DICT|INTERRES
   225  114  115 1    
   226  114  235 1    
   227  115  116 1    
   228  115  117 1    
   229  115  236 1    
   230  116  237 1    
   231  116  238 1    
   232  116  239 1    
   233  117  118 2    
   234  117  119 am   BACKBONE|DICT|INTERRES
   235  119  120 1    
   236  119  240 1    
   237  120  121 1    
   238  120  124 1    
   239  120  241 1    
   240  121  122 am   BACKBONE|DICT|INTERRES
   241  121  123 2    
   242  122  242 1    
   243  122  243 1    
   244  124  125 1    
   245  124  244 1    
   246  124  245 1    
   247  125  126 1    
   248  126  246 1    
   249  126  247 1    
@<TRIPOS>SUBSTRUCTURE
     1 UNK         1 GROUP             0       ****    0 ROOT    
