@<TRIPOS>MOLECULE
3R540
247   249    1
SMALL
USER_CHARGES


@<TRIPOS>ATOM
      1 CA          5.2183  -11.5907  -52.4351 C.3       0 UNK        -0.1800 
      2 C           5.0816  -12.0892  -51.0034 C.2       0 UNK         0.5000 
      3 O           6.0855  -12.2241  -50.3039 O.2       0 UNK        -0.5000 
      4 N           3.8446  -12.3622  -50.5667 N.am      1 UNK        -0.5000 
      5 CA          3.5179  -12.8347  -49.2145 C.3       1 UNK         0.1400 
      6 C6          2.1048  -13.4713  -49.1732 C.3       23 UNK        -0.0398 
      7 S7          1.8921  -14.6424  -47.7878 S.3       23 UNK        -0.2404 
      8 C8          2.1455  -16.2448  -48.6275 C.3       23 UNK        -0.0205 
      9 C9          0.9106  -16.8491  -49.3016 C.ar      23 UNK        -0.0193 
     10 C10        -0.2159  -16.0936  -49.6541 C.ar      23 UNK        -0.1150 
     11 C11        -1.3301  -16.7045  -50.2336 C.ar      23 UNK        -0.0193 
     12 C12        -1.3225  -18.0843  -50.4468 C.ar      23 UNK        -0.1150 
     13 C13        -0.2045  -18.8578  -50.1297 C.ar      23 UNK        -0.0193 
     14 C14         0.9136  -18.2218  -49.5710 C.ar      23 UNK        -0.1150 
     15 C15        -0.2714  -20.3633  -50.4123 C.3       23 UNK        -0.0205 
     16 S16         1.1511  -21.3635  -49.8483 S.3       23 UNK        -0.2404 
     17 C17         0.9977  -21.1824  -48.0386 C.3       23 UNK        -0.0398 
     18 CA          0.6272  -22.4717  -47.2725 C.3       11 UNK         0.1400 
     19 N           0.6301  -22.2263  -45.8315 N.am      11 UNK        -0.5000 
     20 C           0.4823  -23.1514  -44.8755 C.2       10 UNK         0.5000 
     21 O           0.3838  -24.3585  -45.0952 O.2       10 UNK        -0.5000 
     22 CA          0.3716  -22.6237  -43.4334 C.3       10 UNK         0.1400 
     23 CB          1.7580  -22.2888  -42.8639 C.3       10 UNK        -0.1800 
     24 N          -0.4982  -21.4486  -43.3362 N.am      10 UNK        -0.5000 
     25 C          -1.8100  -21.4592  -43.6160 C.2       9 UNK         0.5000 
     26 O          -2.4299  -22.4733  -43.9381 O.2       9 UNK        -0.5000 
     27 CA         -2.5467  -20.1086  -43.5657 C.3       9 UNK         0.1400 
     28 CB         -2.8688  -19.7180  -42.1157 C.3       9 UNK        -0.1800 
     29 N          -1.8028  -19.0285  -44.2164 N.am      9 UNK        -0.5000 
     30 C          -1.5107  -18.9859  -45.5244 C.2       8 UNK         0.5000 
     31 O          -1.8671  -19.8439  -46.3296 O.2       8 UNK        -0.5000 
     32 CA         -0.6245  -17.8245  -46.0100 C.3       8 UNK         0.1400 
     33 CB         -1.4442  -16.5411  -46.2028 C.3       8 UNK        -0.1800 
     34 N           0.5034  -17.5662  -45.1162 N.am      8 UNK        -0.5000 
     35 C           1.4713  -18.4512  -44.8390 C.2       7 UNK         0.5000 
     36 O           1.5451  -19.5701  -45.3439 O.2       7 UNK        -0.5000 
     37 CA          2.4971  -18.0405  -43.7727 C.3       7 UNK         0.1400 
     38 CB          3.5830  -17.1361  -44.3748 C.3       7 UNK        -0.1800 
     39 N           1.8525  -17.3738  -42.6417 N.am      7 UNK        -0.5000 
     40 C           1.0585  -17.9944  -41.7568 C.2       6 UNK         0.5000 
     41 O           0.8231  -19.2031  -41.7786 O.2       6 UNK        -0.5000 
     42 CA          0.3836  -17.1077  -40.6938 C.3       6 UNK         0.1400 
     43 CB          1.3402  -16.8415  -39.5221 C.3       6 UNK        -0.1800 
     44 N          -0.0843  -15.8320  -41.2389 N.am      6 UNK        -0.5000 
     45 C          -1.0777  -15.7124  -42.1307 C.2       5 UNK         0.5000 
     46 O          -1.7299  -16.6646  -42.5556 O.2       5 UNK        -0.5000 
     47 CA         -1.3643  -14.2995  -42.6736 C.3       5 UNK         0.1400 
     48 CB         -2.3661  -13.5677  -41.7687 C.3       5 UNK        -0.1800 
     49 N          -0.1706  -13.4664  -42.8452 N.am      5 UNK        -0.5000 
     50 C           0.8934  -13.7772  -43.5963 C.2       4 UNK         0.5000 
     51 O           1.0093  -14.8443  -44.2001 O.2       4 UNK        -0.5000 
     52 CA          1.9922  -12.7022  -43.6992 C.3       4 UNK         0.1400 
     53 CB          3.3660  -13.3096  -44.0285 C.3       4 UNK        -0.1800 
     54 N           1.6477  -11.7089  -44.7159 N.am      4 UNK        -0.5000 
     55 C           0.7178  -10.7531  -44.5687 C.2       3 UNK         0.5000 
     56 O           0.1089  -10.5673  -43.5126 O.2       3 UNK        -0.5000 
     57 CA          0.3924   -9.8803  -45.8022 C.3       3 UNK         0.1400 
     58 CB         -0.1729   -8.4947  -45.4238 C.3       3 UNK        -0.1800 
     59 N           1.4999   -9.7517  -46.7562 N.am      3 UNK        -0.5000 
     60 C           2.6988   -9.1860  -46.5471 C.2       2 UNK         0.5000 
     61 O           3.0321   -8.6513  -45.4882 O.2       2 UNK        -0.5000 
     62 CA          3.6872   -9.2430  -47.7350 C.3       2 UNK         0.1400 
     63 CB          5.1558   -9.0538  -47.3005 C.3       2 UNK        -0.1800 
     64 N           3.5485  -10.4543  -48.5579 N.am      2 UNK        -0.5000 
     65 C           3.6775  -11.7272  -48.1464 C.2       1 UNK         0.5000 
     66 O           3.9039  -12.0415  -46.9788 O.2       1 UNK        -0.5000 
     67 C          -0.7105  -23.0828  -47.7380 C.2       11 UNK         0.5000 
     68 O          -0.6940  -24.1000  -48.4276 O.2       11 UNK        -0.5000 
     69 N          -1.8394  -22.4944  -47.3158 N.am      12 UNK        -0.5000 
     70 CA         -3.1899  -22.9825  -47.6003 C.3       12 UNK         0.1400 
     71 CB         -4.2268  -22.0024  -47.0315 C.3       12 UNK        -0.1800 
     72 C          -3.4453  -24.4019  -47.0664 C.2       12 UNK         0.5000 
     73 O          -4.0368  -25.2155  -47.7767 O.2       12 UNK        -0.5000 
     74 N          -2.9690  -24.6828  -45.8458 N.am      13 UNK        -0.5000 
     75 CA         -3.0228  -26.0049  -45.2244 C.3       13 UNK         0.1400 
     76 CB         -2.5921  -25.9055  -43.7532 C.3       13 UNK        -0.1800 
     77 C          -2.1769  -27.0428  -45.9844 C.2       13 UNK         0.5000 
     78 O          -2.6756  -28.1298  -46.2777 O.2       13 UNK        -0.5000 
     79 N          -0.9333  -26.6763  -46.3273 N.am      14 UNK        -0.5000 
     80 CA          0.0014  -27.5059  -47.0929 C.3       14 UNK         0.1400 
     81 CB          1.3830  -26.8344  -47.1102 C.3       14 UNK        -0.1800 
     82 C          -0.4788  -27.7982  -48.5275 C.2       14 UNK         0.5000 
     83 O          -0.3107  -28.9184  -49.0103 O.2       14 UNK        -0.5000 
     84 N          -1.0918  -26.7959  -49.1695 N.am      15 UNK        -0.5000 
     85 CA         -1.6748  -26.8793  -50.5090 C.3       15 UNK         0.1400 
     86 CB         -1.8056  -25.4581  -51.0793 C.3       15 UNK        -0.1800 
     87 C          -3.0387  -27.5971  -50.5506 C.2       15 UNK         0.5000 
     88 O          -3.5588  -27.8140  -51.6446 O.2       15 UNK        -0.5000 
     89 N          -3.6085  -27.9280  -49.3817 N.am      16 UNK        -0.5000 
     90 CA         -4.9216  -28.5499  -49.1836 C.3       16 UNK         0.1400 
     91 CB         -4.9334  -29.9961  -49.7213 C.3       16 UNK        -0.1800 
     92 C          -6.0642  -27.6773  -49.7443 C.2       16 UNK         0.5000 
     93 O          -6.8946  -28.1519  -50.5207 O.2       16 UNK        -0.5000 
     94 N          -6.0509  -26.3990  -49.3432 N.am      17 UNK        -0.5000 
     95 CA         -6.9862  -25.3195  -49.6756 C.3       17 UNK         0.1400 
     96 CB         -8.4507  -25.7079  -49.3858 C.3       17 UNK        -0.1800 
     97 C          -6.8095  -24.7149  -51.0826 C.2       17 UNK         0.5000 
     98 O          -7.4879  -23.7343  -51.3932 O.2       17 UNK        -0.5000 
     99 N          -5.8691  -25.2250  -51.8919 N.am      18 UNK        -0.5000 
    100 CA        -5.4702  -24.6475  -53.1821 C.3       18 UNK         0.1400 
    101 CB        -4.8893  -25.7557  -54.0770 C.3       18 UNK        -0.1800 
    102 C         -4.4914  -23.4700  -52.9767 C.2       18 UNK         0.5000 
    103 O         -3.3696  -23.4833  -53.4863 O.2       18 UNK        -0.5000 
    104 N         -4.9246  -22.4851  -52.1826 N.am      19 UNK        -0.5000 
    105 CA        -4.1326  -21.3869  -51.6343 C.3       19 UNK         0.1400 
    106 CB        -4.8629  -20.8571  -50.3888 C.3       19 UNK        -0.1800 
    107 C         -3.8330  -20.2717  -52.6556 C.2       19 UNK         0.5000 
    108 O         -4.2033  -19.1190  -52.4264 O.2       19 UNK        -0.5000 
    109 N         -3.1787  -20.6358  -53.7668 N.am      20 UNK        -0.5000 
    110 CA        -2.5762  -19.7664  -54.7909 C.3       20 UNK         0.1400 
    111 CB        -1.2875  -19.1325  -54.2285 C.3       20 UNK        -0.1800 
    112 C         -3.5181  -18.7099  -55.4174 C.2       20 UNK         0.5000 
    113 O         -3.0439  -17.6915  -55.9233 O.2       20 UNK        -0.5000 
    114 N         -4.8328  -18.9708  -55.3679 N.am      21 UNK        -0.5000 
    115 CA        -5.9341  -18.0840  -55.7615 C.3       21 UNK         0.1400 
    116 CB        -5.9083  -17.8035  -57.2793 C.3       21 UNK        -0.1800 
    117 C         -6.0399  -16.7947  -54.9112 C.2       21 UNK         0.5000 
    118 O         -6.6178  -15.8092  -55.3745 O.2       21 UNK        -0.5000 
    119 N         -5.5161  -16.8269  -53.6793 N.am      22 UNK        -0.5000 
    120 CA        -5.5992  -15.7414  -52.6871 C.3       22 UNK         0.1400 
    121 C         -6.0605  -16.2132  -51.2808 C.2       22 UNK         0.5000 
    122 N         -5.9420  -17.4867  -50.9282 N.am      22 UNK        -0.7600 
    123 O         -6.5572  -15.4078  -50.4981 O.2       22 UNK        -0.5000 
    124 C124       -4.3062  -14.8826  -52.6177 C.3       23 UNK        -0.0398 
    125 S125       -2.7556  -15.8333  -52.4331 S.3       23 UNK        -0.2404 
    126 C126       -2.5501  -15.8844  -50.6239 C.3       23 UNK        -0.0205 
    127 H127        4.2522  -11.5233  -52.9358 H         1 UNK         0.0600 
    128 H128        5.6764  -10.6017  -52.4458 H         1 UNK         0.0600 
    129 H129        5.8518  -12.2671  -53.0089 H         1 UNK         0.0600 
    130 H130        3.0628  -12.2378  -51.1947 H         1 UNK         0.3000 
    131 H131        4.2427  -13.6150  -48.9705 H         1 UNK         0.0600 
    132 H132        1.3271  -12.7079  -49.1141 H         1 UNK         0.0800 
    133 H133        1.9132  -14.0107  -50.1019 H         1 UNK         0.0800 
    134 H134        2.5037  -16.9439  -47.8698 H         1 UNK         0.0800 
    135 H135        2.9475  -16.1525  -49.3609 H         1 UNK         0.0800 
    136 H136       -0.2410  -15.0296  -49.4753 H         1 UNK         0.1150 
    137 H137       -2.1926  -18.5527  -50.8816 H         1 UNK         0.1150 
    138 H138        1.7959  -18.7901  -49.3187 H         1 UNK         0.1150 
    139 H139       -1.1770  -20.7686  -49.9580 H         1 UNK         0.0800 
    140 H140       -0.3773  -20.5067  -51.4880 H         1 UNK         0.0800 
    141 H141        0.2805  -20.3953  -47.8077 H         1 UNK         0.0800 
    142 H142        1.9599  -20.8160  -47.6786 H         1 UNK         0.0800 
    143 H143        1.4058  -23.2112  -47.4703 H         1 UNK         0.0600 
    144 H144        0.7529  -21.2568  -45.5488 H         1 UNK         0.3000 
    145 H145       -0.0653  -23.4162  -42.8223 H         1 UNK         0.0600 
    146 H146        1.6912  -21.9876  -41.8183 H         1 UNK         0.0600 
    147 H147        2.4198  -23.1544  -42.9122 H         1 UNK         0.0600 
    148 H148        2.2356  -21.4777  -43.4142 H         1 UNK         0.0600 
    149 H149       -0.0637  -20.5808  -43.0402 H         1 UNK         0.3000 
    150 H150       -3.4913  -20.2283  -44.1000 H         1 UNK         0.0600 
    151 H151       -3.4248  -20.5092  -41.6114 H         1 UNK         0.0600 
    152 H152       -3.4806  -18.8166  -42.0782 H         1 UNK         0.0600 
    153 H153       -1.9634  -19.5313  -41.5375 H         1 UNK         0.0600 
    154 H154       -1.5231  -18.2505  -43.6255 H         1 UNK         0.3000 
    155 H155       -0.2136  -18.1087  -46.9787 H         1 UNK         0.0600 
    156 H156       -2.2339  -16.6938  -46.9394 H         1 UNK         0.0600 
    157 H157       -0.8182  -15.7241  -46.5621 H         1 UNK         0.0600 
    158 H158       -1.9161  -16.2198  -45.2750 H         1 UNK         0.0600 
    159 H159        0.5543  -16.6439  -44.6916 H         1 UNK         0.3000 
    160 H160        2.9803  -18.9471  -43.4022 H         1 UNK         0.0600 
    161 H161        3.1603  -16.2405  -44.8294 H         1 UNK         0.0600 
    162 H162        4.1346  -17.6629  -45.1543 H         1 UNK         0.0600 
    163 H163        4.3040  -16.8237  -43.6195 H         1 UNK         0.0600 
    164 H164        1.9286  -16.3677  -42.6071 H         1 UNK         0.3000 
    165 H165       -0.4826  -17.6508  -40.3097 H         1 UNK         0.0600 
    166 H166        0.8454  -16.2808  -38.7289 H         1 UNK         0.0600 
    167 H167        1.6920  -17.7775  -39.0861 H         1 UNK         0.0600 
    168 H168        2.2179  -16.2756  -39.8369 H         1 UNK         0.0600 
    169 H169        0.4006  -14.9979  -40.9425 H         1 UNK         0.3000 
    170 H170       -1.8203  -14.4154  -43.6583 H         1 UNK         0.0600 
    171 H171       -3.2783  -14.1526  -41.6420 H         1 UNK         0.0600 
    172 H172       -1.9526  -13.3840  -40.7763 H         1 UNK         0.0600 
    173 H173       -2.6543  -12.6069  -42.1957 H         1 UNK         0.0600 
    174 H174       -0.2100  -12.5348  -42.4508 H         1 UNK         0.3000 
    175 H175        2.0757  -12.2050  -42.7306 H         1 UNK         0.0600 
    176 H176        3.3651  -13.8071  -44.9989 H         1 UNK         0.0600 
    177 H177        4.1403  -12.5427  -44.0501 H         1 UNK         0.0600 
    178 H178        3.6575  -14.0477  -43.2806 H         1 UNK         0.0600 
    179 H179        2.1289  -11.7970  -45.6024 H         1 UNK         0.3000 
    180 H180       -0.3958  -10.4142  -46.3348 H         1 UNK         0.0600 
    181 H181        0.5284   -7.9222  -44.8163 H         1 UNK         0.0600 
    182 H182       -1.0959   -8.5910  -44.8509 H         1 UNK         0.0600 
    183 H183       -0.4056   -7.9072  -46.3119 H         1 UNK         0.0600 
    184 H184        1.3384  -10.1626  -47.6645 H         1 UNK         0.3000 
    185 H185        3.4266   -8.4034  -48.3809 H         1 UNK         0.0600 
    186 H186        5.3005   -8.0881  -46.8150 H         1 UNK         0.0600 
    187 H187        5.4717   -9.8245  -46.5965 H         1 UNK         0.0600 
    188 H188        5.8278   -9.0882  -48.1580 H         1 UNK         0.0600 
    189 H189        3.3626  -10.2976  -49.5385 H         1 UNK         0.3000 
    190 H190       -1.7780  -21.6293  -46.7828 H         1 UNK         0.3000 
    191 H191       -3.3029  -23.0144  -48.6855 H         1 UNK         0.0600 
    192 H192       -4.1493  -21.9166  -45.9479 H         1 UNK         0.0600 
    193 H193       -5.2418  -22.3287  -47.2616 H         1 UNK         0.0600 
    194 H194       -4.1011  -21.0047  -47.4516 H         1 UNK         0.0600 
    195 H195       -2.5394  -23.9383  -45.3049 H         1 UNK         0.3000 
    196 H196       -4.0613  -26.3417  -45.2485 H         1 UNK         0.0600 
    197 H197       -2.6468  -26.8786  -43.2638 H         1 UNK         0.0600 
    198 H198       -3.2396  -25.2252  -43.1996 H         1 UNK         0.0600 
    199 H199       -1.5685  -25.5444  -43.6533 H         1 UNK         0.0600 
    200 H200       -0.5895  -25.7683  -46.0260 H         1 UNK         0.3000 
    201 H201        0.0959  -28.4627  -46.5754 H         1 UNK         0.0600 
    202 H202        1.7687  -26.7013  -46.0993 H         1 UNK         0.0600 
    203 H203        1.3472  -25.8535  -47.5854 H         1 UNK         0.0600 
    204 H204        2.1062  -27.4399  -47.6579 H         1 UNK         0.0600 
    205 H205       -1.1187  -25.8793  -48.7270 H         1 UNK         0.3000 
    206 H206       -0.9917  -27.4406  -51.1495 H         1 UNK         0.0600 
    207 H207       -0.8471  -24.9390  -51.0760 H         1 UNK         0.0600 
    208 H208       -2.1513  -25.4839  -52.1125 H         1 UNK         0.0600 
    209 H209       -2.5148  -24.8578  -50.5076 H         1 UNK         0.0600 
    210 H210       -3.1114  -27.6861  -48.5340 H         1 UNK         0.3000 
    211 H211       -5.0752  -28.6006  -48.1046 H         1 UNK         0.0600 
    212 H212       -4.8239  -30.0304  -50.8056 H         1 UNK         0.0600 
    213 H213       -5.8705  -30.4955  -49.4726 H         1 UNK         0.0600 
    214 H214       -4.1264  -30.5841  -49.2842 H         1 UNK         0.0600 
    215 H215       -5.2818  -26.1059  -48.7403 H         1 UNK         0.3000 
    216 H216       -6.7319  -24.5132  -48.9859 H         1 UNK         0.0600 
    217 H217       -9.1039  -24.8372  -49.4537 H         1 UNK         0.0600 
    218 H218       -8.5606  -26.1162  -48.3812 H         1 UNK         0.0600 
    219 H219       -8.8262  -26.4462  -50.0943 H         1 UNK         0.0600 
    220 H220       -5.3384  -26.0240  -51.5723 H         1 UNK         0.3000 
    221 H221       -6.3544  -24.2514  -53.6859 H         1 UNK         0.0600 
    222 H222       -3.9652  -26.1642  -53.6690 H         1 UNK         0.0600 
    223 H223       -5.5949  -26.5781  -54.1961 H         1 UNK         0.0600 
    224 H224       -4.6644  -25.3732  -55.0733 H         1 UNK         0.0600 
    225 H225       -5.8776  -22.5598  -51.8432 H         1 UNK         0.3000 
    226 H226       -3.1712  -21.7897  -51.3089 H         1 UNK         0.0600 
    227 H227       -5.0701  -21.6614  -49.6854 H         1 UNK         0.0600 
    228 H228       -4.2640  -20.1082  -49.8684 H         1 UNK         0.0600 
    229 H229       -5.8189  -20.4003  -50.6472 H         1 UNK         0.0600 
    230 H230       -2.9983  -21.6310  -53.8744 H         1 UNK         0.3000 
    231 H231       -2.2869  -20.4244  -55.6113 H         1 UNK         0.0600 
    232 H232       -0.6023  -19.8949  -53.8592 H         1 UNK         0.0600 
    233 H233       -1.5028  -18.4485  -53.4077 H         1 UNK         0.0600 
    234 H234       -0.7536  -18.5682  -54.9938 H         1 UNK         0.0600 
    235 H235       -5.1090  -19.8324  -54.9191 H         1 UNK         0.3000 
    236 H236       -6.8476  -18.6429  -55.5543 H         1 UNK         0.0600 
    237 H237       -6.8203  -17.2983  -57.5992 H         1 UNK         0.0600 
    238 H238       -5.0693  -17.1671  -57.5612 H         1 UNK         0.0600 
    239 H239       -5.8356  -18.7288  -57.8507 H         1 UNK         0.0600 
    240 H240       -5.0251  -17.6614  -53.3735 H         1 UNK         0.3000 
    241 H241       -6.3971  -15.0648  -52.9987 H         1 UNK         0.0600 
    242 H242       -6.2642  -17.7735  -50.0187 H         1 UNK         0.3800 
    243 H243       -5.4291  -18.1422  -51.5112 H         1 UNK         0.3800 
    244 H244       -4.3732  -14.1322  -51.8281 H         1 UNK         0.0800 
    245 H245       -4.2181  -14.3156  -53.5451 H         1 UNK         0.0800 
    246 H246       -3.4303  -16.3284  -50.1598 H         1 UNK         0.0800 
    247 H247       -2.4737  -14.8662  -50.2399 H         1 UNK         0.0800 
@<TRIPOS>BOND
     1    1    2 1    
     2    1  127 1    
     3    1  128 1    
     4    1  129 1    
     5    2    3 2    
     6    2    4 am   BACKBONE|DICT|INTERRES
     7    4    5 1    
     8    4  130 1    
     9    5    6 1    
    10    5   65 1    
    11    5  131 1    
    12    6    7 1    
    13    6  132 1    
    14    6  133 1    
    15    7    8 1    
    16    8    9 1    
    17    8  134 1    
    18    8  135 1    
    19    9   10 ar   
    20    9   14 ar   
    21   10   11 ar   
    22   10  136 1    
    23   11   12 ar   
    24   11  126 1    
    25   12   13 ar   
    26   12  137 1    
    27   13   14 ar   
    28   13   15 1    
    29   14  138 1    
    30   15   16 1    
    31   15  139 1    
    32   15  140 1    
    33   16   17 1    
    34   17   18 1    
    35   17  141 1    
    36   17  142 1    
    37   18   19 1    
    38   18   67 1    
    39   18  143 1    
    40   19   20 am   BACKBONE|DICT|INTERRES
    41   19  144 1    
    42   20   21 2    
    43   20   22 1    
    44   22   23 1    
    45   22   24 1    
    46   22  145 1    
    47   23  146 1    
    48   23  147 1    
    49   23  148 1    
    50   24   25 am   BACKBONE|DICT|INTERRES
    51   24  149 1    
    52   25   26 2    
    53   25   27 1    
    54   27   28 1    
    55   27   29 1    
    56   27  150 1    
    57   28  151 1    
    58   28  152 1    
    59   28  153 1    
    60   29   30 am   BACKBONE|DICT|INTERRES
    61   29  154 1    
    62   30   31 2    
    63   30   32 1    
    64   32   33 1    
    65   32   34 1    
    66   32  155 1    
    67   33  156 1    
    68   33  157 1    
    69   33  158 1    
    70   34   35 am   BACKBONE|DICT|INTERRES
    71   34  159 1    
    72   35   36 2    
    73   35   37 1    
    74   37   38 1    
    75   37   39 1    
    76   37  160 1    
    77   38  161 1    
    78   38  162 1    
    79   38  163 1    
    80   39   40 am   BACKBONE|DICT|INTERRES
    81   39  164 1    
    82   40   41 2    
    83   40   42 1    
    84   42   43 1    
    85   42   44 1    
    86   42  165 1    
    87   43  166 1    
    88   43  167 1    
    89   43  168 1    
    90   44   45 am   BACKBONE|DICT|INTERRES
    91   44  169 1    
    92   45   46 2    
    93   45   47 1    
    94   47   48 1    
    95   47   49 1    
    96   47  170 1    
    97   48  171 1    
    98   48  172 1    
    99   48  173 1    
   100   49   50 am   BACKBONE|DICT|INTERRES
   101   49  174 1    
   102   50   51 2    
   103   50   52 1    
   104   52   53 1    
   105   52   54 1    
   106   52  175 1    
   107   53  176 1    
   108   53  177 1    
   109   53  178 1    
   110   54   55 am   BACKBONE|DICT|INTERRES
   111   54  179 1    
   112   55   56 2    
   113   55   57 1    
   114   57   58 1    
   115   57   59 1    
   116   57  180 1    
   117   58  181 1    
   118   58  182 1    
   119   58  183 1    
   120   59   60 am   BACKBONE|DICT|INTERRES
   121   59  184 1    
   122   60   61 2    
   123   60   62 1    
   124   62   63 1    
   125   62   64 1    
   126   62  185 1    
   127   63  186 1    
   128   63  187 1    
   129   63  188 1    
   130   64   65 am   BACKBONE|DICT|INTERRES
   131   64  189 1    
   132   65   66 2    
   133   67   68 2    
   134   67   69 am   BACKBONE|DICT|INTERRES
   135   69   70 1    
   136   69  190 1    
   137   70   71 1    
   138   70   72 1    
   139   70  191 1    
   140   71  192 1    
   141   71  193 1    
   142   71  194 1    
   143   72   73 2    
   144   72   74 am   BACKBONE|DICT|INTERRES
   145   74   75 1    
   146   74  195 1    
   147   75   76 1    
   148   75   77 1    
   149   75  196 1    
   150   76  197 1    
   151   76  198 1    
   152   76  199 1    
   153   77   78 2    
   154   77   79 am   BACKBONE|DICT|INTERRES
   155   79   80 1    
   156   79  200 1    
   157   80   81 1    
   158   80   82 1    
   159   80  201 1    
   160   81  202 1    
   161   81  203 1    
   162   81  204 1    
   163   82   83 2    
   164   82   84 am   BACKBONE|DICT|INTERRES
   165   84   85 1    
   166   84  205 1    
   167   85   86 1    
   168   85   87 1    
   169   85  206 1    
   170   86  207 1    
   171   86  208 1    
   172   86  209 1    
   173   87   88 2    
   174   87   89 am   BACKBONE|DICT|INTERRES
   175   89   90 1    
   176   89  210 1    
   177   90   91 1    
   178   90   92 1    
   179   90  211 1    
   180   91  212 1    
   181   91  213 1    
   182   91  214 1    
   183   92   93 2    
   184   92   94 am   BACKBONE|DICT|INTERRES
   185   94   95 1    
   186   94  215 1    
   187   95   96 1    
   188   95   97 1    
   189   95  216 1    
   190   96  217 1    
   191   96  218 1    
   192   96  219 1    
   193   97   98 2    
   194   97   99 am   BACKBONE|DICT|INTERRES
   195   99  100 1    
   196   99  220 1    
   197  100  101 1    
   198  100  102 1    
   199  100  221 1    
   200  101  222 1    
   201  101  223 1    
   202  101  224 1    
   203  102  103 2    
   204  102  104 am   BACKBONE|DICT|INTERRES
   205  104  105 1    
   206  104  225 1    
   207  105  106 1    
   208  105  107 1    
   209  105  226 1    
   210  106  227 1    
   211  106  228 1    
   212  106  229 1    
   213  107  108 2    
   214  107  109 am   BACKBONE|DICT|INTERRES
   215  109  110 1    
   216  109  230 1    
   217  110  111 1    
   218  110  112 1    
   219  110  231 1    
   220  111  232 1    
   221  111  233 1    
   222  111  234 1    
   223  112  113 2    
   224  112  114 am   BACKBONE|DICT|INTERRES
   225  114  115 1    
   226  114  235 1    
   227  115  116 1    
   228  115  117 1    
   229  115  236 1    
   230  116  237 1    
   231  116  238 1    
   232  116  239 1    
   233  117  118 2    
   234  117  119 am   BACKBONE|DICT|INTERRES
   235  119  120 1    
   236  119  240 1    
   237  120  121 1    
   238  120  124 1    
   239  120  241 1    
   240  121  122 am   BACKBONE|DICT|INTERRES
   241  121  123 2    
   242  122  242 1    
   243  122  243 1    
   244  124  125 1    
   245  124  244 1    
   246  124  245 1    
   247  125  126 1    
   248  126  246 1    
   249  126  247 1    
@<TRIPOS>SUBSTRUCTURE
     1 UNK         1 GROUP             0       ****    0 ROOT    
