@<TRIPOS>MOLECULE
3R540
247   249    1
SMALL
USER_CHARGES


@<TRIPOS>ATOM
      1 CA         -5.2103  -16.7835  -48.8030 C.3       0 UNK        -0.1800 
      2 C          -4.2957  -15.6575  -48.3443 C.2       0 UNK         0.5000 
      3 O          -4.7671  -14.5461  -48.1017 O.2       0 UNK        -0.5000 
      4 N          -2.9906  -15.9355  -48.2455 N.am      1 UNK        -0.5000 
      5 CA         -1.9678  -14.9850  -47.8006 C.3       1 UNK         0.1400 
      6 C6         -0.5527  -15.5091  -48.1368 C.3       23 UNK        -0.0398 
      7 S7          0.7313  -14.2114  -48.0551 S.3       23 UNK        -0.2404 
      8 C8          1.2587  -14.0936  -49.8006 C.3       23 UNK        -0.0205 
      9 C9          1.9950  -15.3106  -50.3676 C.ar      23 UNK        -0.0193 
     10 C10         2.3040  -15.3180  -51.7315 C.ar      23 UNK        -0.1150 
     11 C11         2.9650  -16.4035  -52.3126 C.ar      23 UNK        -0.0193 
     12 C12         3.3170  -17.4981  -51.5184 C.ar      23 UNK        -0.1150 
     13 C13         3.0074  -17.5142  -50.1576 C.ar      23 UNK        -0.0193 
     14 C14         2.3684  -16.4123  -49.5855 C.ar      23 UNK        -0.1150 
     15 C15         3.3429  -18.7296  -49.3061 C.3       23 UNK        -0.0205 
     16 S16         2.1782  -20.0990  -49.5996 S.3       23 UNK        -0.2404 
     17 C17         0.5859  -19.3304  -49.1440 C.3       23 UNK        -0.0398 
     18 CA         -0.3858  -20.3186  -48.4548 C.3       11 UNK         0.1400 
     19 N           0.1461  -20.7849  -47.1752 N.am      11 UNK        -0.5000 
     20 C           0.3996  -22.0507  -46.8233 C.2       10 UNK         0.5000 
     21 O           0.2304  -23.0141  -47.5701 O.2       10 UNK        -0.5000 
     22 CA          0.9054  -22.2900  -45.3820 C.3       10 UNK         0.1400 
     23 CB          2.4245  -22.5188  -45.3833 C.3       10 UNK        -0.1800 
     24 N           0.6005  -21.2003  -44.4500 N.am      10 UNK        -0.5000 
     25 C          -0.6284  -20.7743  -44.1264 C.2       9 UNK         0.5000 
     26 O          -1.6615  -21.3186  -44.5166 O.2       9 UNK        -0.5000 
     27 CA         -0.7156  -19.4762  -43.3004 C.3       9 UNK         0.1400 
     28 CB         -0.7235  -19.7970  -41.8004 C.3       9 UNK        -0.1800 
     29 N           0.3560  -18.5193  -43.6007 N.am      9 UNK        -0.5000 
     30 C           0.5902  -17.9873  -44.8112 C.2       8 UNK         0.5000 
     31 O          -0.0657  -18.2609  -45.8133 O.2       8 UNK        -0.5000 
     32 CA          1.7818  -17.0305  -44.9465 C.3       8 UNK         0.1400 
     33 CB          1.3755  -15.6032  -44.5683 C.3       8 UNK        -0.1800 
     34 N           2.9052  -17.4651  -44.1195 N.am      8 UNK        -0.5000 
     35 C           3.8428  -18.3292  -44.5326 C.2       7 UNK         0.5000 
     36 O           3.8974  -18.7861  -45.6737 O.2       7 UNK        -0.5000 
     37 CA          4.8896  -18.7774  -43.4950 C.3       7 UNK         0.1400 
     38 CB          6.0966  -17.8270  -43.5061 C.3       7 UNK        -0.1800 
     39 N           4.3614  -18.8632  -42.1331 N.am      7 UNK        -0.5000 
     40 C           3.4033  -19.7103  -41.7321 C.2       6 UNK         0.5000 
     41 O           2.8611  -20.5343  -42.4696 O.2       6 UNK        -0.5000 
     42 CA          2.9429  -19.5789  -40.2669 C.3       6 UNK         0.1400 
     43 CB          3.8048  -20.4651  -39.3554 C.3       6 UNK        -0.1800 
     44 N           2.9456  -18.2065  -39.7452 N.am      6 UNK        -0.5000 
     45 C           2.3103  -17.1543  -40.2830 C.2       5 UNK         0.5000 
     46 O           1.7022  -17.2118  -41.3539 O.2       5 UNK        -0.5000 
     47 CA          2.3785  -15.8140  -39.5177 C.3       5 UNK         0.1400 
     48 CB          3.1453  -15.8888  -38.1814 C.3       5 UNK        -0.1800 
     49 N           3.0005  -14.7916  -40.3571 N.am      5 UNK        -0.5000 
     50 C           2.3545  -14.0261  -41.2445 C.2       4 UNK         0.5000 
     51 O           1.1275  -14.0155  -41.3789 O.2       4 UNK        -0.5000 
     52 CA          3.2287  -13.1272  -42.1372 C.3       4 UNK         0.1400 
     53 CB          4.4479  -13.8771  -42.7174 C.3       4 UNK        -0.1800 
     54 N           2.4062  -12.6124  -43.2260 N.am      4 UNK        -0.5000 
     55 C           2.6282  -11.5039  -43.9380 C.2       3 UNK         0.5000 
     56 O           3.5748  -10.7432  -43.7312 O.2       3 UNK        -0.5000 
     57 CA          1.6494  -11.1967  -45.0921 C.3       3 UNK         0.1400 
     58 CB          2.3693  -11.3127  -46.4457 C.3       3 UNK        -0.1800 
     59 N           0.4662  -12.0647  -45.1214 N.am      3 UNK        -0.5000 
     60 C          -0.6068  -11.9276  -44.3279 C.2       2 UNK         0.5000 
     61 O          -0.6941  -11.0591  -43.4593 O.2       2 UNK        -0.5000 
     62 CA         -1.7723  -12.9126  -44.5517 C.3       2 UNK         0.1400 
     63 CB         -3.1445  -12.3037  -44.2065 C.3       2 UNK        -0.1800 
     64 N          -1.7897  -13.4076  -45.9301 N.am      2 UNK        -0.5000 
     65 C          -2.1071  -14.6553  -46.2952 C.2       1 UNK         0.5000 
     66 O          -2.4524  -15.5301  -45.4991 O.2       1 UNK        -0.5000 
     67 C          -1.7857  -19.6983  -48.2358 C.2       11 UNK         0.5000 
     68 O          -2.1601  -18.7507  -48.9310 O.2       11 UNK        -0.5000 
     69 N          -2.5363  -20.2390  -47.2674 N.am      12 UNK        -0.5000 
     70 CA         -3.9048  -19.8473  -46.9356 C.3       12 UNK         0.1400 
     71 CB         -3.9003  -18.7634  -45.8495 C.3       12 UNK        -0.1800 
     72 C          -4.7320  -21.0635  -46.4987 C.2       12 UNK         0.5000 
     73 O          -5.9018  -21.1572  -46.8741 O.2       12 UNK        -0.5000 
     74 N          -4.1097  -21.9929  -45.7584 N.am      13 UNK        -0.5000 
     75 CA         -4.6796  -23.2746  -45.3391 C.3       13 UNK         0.1400 
     76 CB         -3.6138  -24.0592  -44.5594 C.3       13 UNK        -0.1800 
     77 C          -5.2042  -24.1155  -46.5194 C.2       13 UNK         0.5000 
     78 O          -4.5998  -24.1096  -47.5958 O.2       13 UNK        -0.5000 
     79 N          -6.3302  -24.8064  -46.2899 N.am      14 UNK        -0.5000 
     80 CA         -7.0721  -25.6216  -47.2605 C.3       14 UNK         0.1400 
     81 CB         -6.2755  -26.8937  -47.6202 C.3       14 UNK        -0.1800 
     82 C          -7.5144  -24.8158  -48.5017 C.2       14 UNK         0.5000 
     83 O          -7.4218  -25.3139  -49.6239 O.2       14 UNK        -0.5000 
     84 N          -7.9516  -23.5669  -48.2714 N.am      15 UNK        -0.5000 
     85 CA         -8.3273  -22.5642  -49.2758 C.3       15 UNK         0.1400 
     86 CB         -9.6182  -22.9823  -50.0113 C.3       15 UNK        -0.1800 
     87 C          -7.1600  -22.2534  -50.2342 C.2       15 UNK         0.5000 
     88 O          -7.3082  -22.3619  -51.4517 O.2       15 UNK        -0.5000 
     89 N          -6.0015  -21.9237  -49.6461 N.am      16 UNK        -0.5000 
     90 CA         -4.7091  -21.6935  -50.3005 C.3       16 UNK         0.1400 
     91 CB         -4.7462  -20.3900  -51.1238 C.3       16 UNK        -0.1800 
     92 C          -4.2468  -22.9185  -51.1150 C.2       16 UNK         0.5000 
     93 O          -3.8775  -22.7843  -52.2829 O.2       16 UNK        -0.5000 
     94 N          -4.3154  -24.0983  -50.4800 N.am      17 UNK        -0.5000 
     95 CA         -4.0326  -25.4215  -51.0452 C.3       17 UNK         0.1400 
     96 CB         -2.5190  -25.5769  -51.3036 C.3       17 UNK        -0.1800 
     97 C          -4.8934  -25.7214  -52.2918 C.2       17 UNK         0.5000 
     98 O          -4.3586  -26.0824  -53.3398 O.2       17 UNK        -0.5000 
     99 N          -6.2123  -25.5164  -52.1629 N.am      18 UNK        -0.5000 
    100 CA        -7.2269  -25.5855  -53.2212 C.3       18 UNK         0.1400 
    101 CB        -7.4268  -27.0408  -53.6925 C.3       18 UNK        -0.1800 
    102 C         -6.9369  -24.6022  -54.3771 C.2       18 UNK         0.5000 
    103 O         -7.0051  -24.9752  -55.5498 O.2       18 UNK        -0.5000 
    104 N         -6.5939  -23.3622  -54.0020 N.am      19 UNK        -0.5000 
    105 CA        -6.2181  -22.2242  -54.8457 C.3       19 UNK         0.1400 
    106 CB        -7.4131  -21.7715  -55.7102 C.3       19 UNK        -0.1800 
    107 C         -4.9289  -22.4279  -55.6730 C.2       19 UNK         0.5000 
    108 O         -4.7129  -21.6966  -56.6416 O.2       19 UNK        -0.5000 
    109 N         -4.0860  -23.3968  -55.2894 N.am      20 UNK        -0.5000 
    110 CA        -2.7976  -23.6592  -55.9298 C.3       20 UNK         0.1400 
    111 CB        -2.3717  -25.1100  -55.6631 C.3       20 UNK        -0.1800 
    112 C         -1.7014  -22.6874  -55.4604 C.2       20 UNK         0.5000 
    113 O         -0.8090  -22.3661  -56.2470 O.2       20 UNK        -0.5000 
    114 N         -1.7718  -22.2445  -54.1977 N.am      21 UNK        -0.5000 
    115 CA        -0.8319  -21.2908  -53.6156 C.3       21 UNK         0.1400 
    116 CB        -0.7598  -21.5079  -52.0964 C.3       21 UNK        -0.1800 
    117 C         -1.2438  -19.8455  -53.9415 C.2       21 UNK         0.5000 
    118 O         -2.4343  -19.5463  -54.0555 O.2       21 UNK        -0.5000 
    119 N         -0.2404  -18.9709  -54.0479 N.am      22 UNK        -0.5000 
    120 CA        -0.3670  -17.5256  -54.3030 C.3       22 UNK         0.1400 
    121 C         -0.7429  -16.6608  -53.0611 C.2       22 UNK         0.5000 
    122 N         -1.0500  -17.2430  -51.9095 N.am      22 UNK        -0.7600 
    123 O         -0.7980  -15.4375  -53.1527 O.2       22 UNK        -0.5000 
    124 C124        0.8465  -16.9667  -55.1065 C.3       23 UNK        -0.0398 
    125 S125        2.4744  -17.7088  -54.7154 S.3       23 UNK        -0.2404 
    126 C126        3.3219  -16.3898  -53.7909 C.3       23 UNK        -0.0205 
    127 H127       -5.9431  -16.4094  -49.5180 H         1 UNK         0.0600 
    128 H128       -5.7449  -17.2067  -47.9529 H         1 UNK         0.0600 
    129 H129       -4.6446  -17.5769  -49.2895 H         1 UNK         0.0600 
    130 H130       -2.6728  -16.8832  -48.4280 H         1 UNK         0.3000 
    131 H131       -2.1287  -14.0647  -48.3668 H         1 UNK         0.0600 
    132 H132       -0.2725  -16.3257  -47.4726 H         1 UNK         0.0800 
    133 H133       -0.5485  -15.9370  -49.1397 H         1 UNK         0.0800 
    134 H134        0.3807  -13.8889  -50.4156 H         1 UNK         0.0800 
    135 H135        1.9112  -13.2248  -49.8958 H         1 UNK         0.0800 
    136 H136        2.0222  -14.4737  -52.3453 H         1 UNK         0.1150 
    137 H137        3.8176  -18.3463  -51.9641 H         1 UNK         0.1150 
    138 H138        2.1526  -16.4363  -48.5286 H         1 UNK         0.1150 
    139 H139        4.3552  -19.0670  -49.5324 H         1 UNK         0.0800 
    140 H140        3.3352  -18.4729  -48.2463 H         1 UNK         0.0800 
    141 H141        0.1554  -18.9278  -50.0603 H         1 UNK         0.0800 
    142 H142        0.7652  -18.4779  -48.4882 H         1 UNK         0.0800 
    143 H143       -0.5378  -21.1657  -49.1259 H         1 UNK         0.0600 
    144 H144        0.2632  -20.0503  -46.4835 H         1 UNK         0.3000 
    145 H145        0.4179  -23.1931  -45.0096 H         1 UNK         0.0600 
    146 H146        2.6975  -23.3424  -46.0443 H         1 UNK         0.0600 
    147 H147        2.9618  -21.6318  -45.7225 H         1 UNK         0.0600 
    148 H148        2.7872  -22.7683  -44.3858 H         1 UNK         0.0600 
    149 H149        1.3946  -20.7250  -44.0359 H         1 UNK         0.3000 
    150 H150       -1.6578  -18.9849  -43.5465 H         1 UNK         0.0600 
    151 H151       -1.6114  -20.3714  -41.5336 H         1 UNK         0.0600 
    152 H152       -0.7269  -18.8897  -41.1959 H         1 UNK         0.0600 
    153 H153        0.1430  -20.3928  -41.5178 H         1 UNK         0.0600 
    154 H154        0.9164  -18.2018  -42.8154 H         1 UNK         0.3000 
    155 H155        2.0811  -17.0186  -45.9971 H         1 UNK         0.0600 
    156 H156        0.5247  -15.2718  -45.1611 H         1 UNK         0.0600 
    157 H157        2.1914  -14.9063  -44.7540 H         1 UNK         0.0600 
    158 H158        1.0864  -15.5356  -43.5207 H         1 UNK         0.0600 
    159 H159        2.8804  -17.1969  -43.1437 H         1 UNK         0.3000 
    160 H160        5.2335  -19.7729  -43.7836 H         1 UNK         0.0600 
    161 H161        5.8195  -16.8191  -43.1948 H         1 UNK         0.0600 
    162 H162        6.5274  -17.7549  -44.5057 H         1 UNK         0.0600 
    163 H163        6.8835  -18.1805  -42.8396 H         1 UNK         0.0600 
    164 H164        4.7432  -18.2206  -41.4552 H         1 UNK         0.3000 
    165 H165        1.9168  -19.9413  -40.2092 H         1 UNK         0.0600 
    166 H166        3.4254  -20.4681  -38.3334 H         1 UNK         0.0600 
    167 H167        3.8052  -21.4994  -39.7025 H         1 UNK         0.0600 
    168 H168        4.8416  -20.1274  -39.3286 H         1 UNK         0.0600 
    169 H169        3.4315  -18.0673  -38.8711 H         1 UNK         0.3000 
    170 H170        1.3494  -15.5270  -39.2922 H         1 UNK         0.0600 
    171 H171        2.6927  -16.6137  -37.5033 H         1 UNK         0.0600 
    172 H172        4.1919  -16.1624  -38.3218 H         1 UNK         0.0600 
    173 H173        3.1253  -14.9257  -37.6708 H         1 UNK         0.0600 
    174 H174        4.0080  -14.7406  -40.3205 H         1 UNK         0.3000 
    175 H175        3.5730  -12.2921  -41.5239 H         1 UNK         0.0600 
    176 H176        4.1474  -14.7734  -43.2607 H         1 UNK         0.0600 
    177 H177        5.0109  -13.2469  -43.4059 H         1 UNK         0.0600 
    178 H178        5.1418  -14.1821  -41.9339 H         1 UNK         0.0600 
    179 H179        1.5543  -13.1327  -43.3847 H         1 UNK         0.3000 
    180 H180        1.3201  -10.1626  -44.9714 H         1 UNK         0.0600 
    181 H181        2.7522  -12.3205  -46.6116 H         1 UNK         0.0600 
    182 H182        3.2167  -10.6282  -46.4996 H         1 UNK         0.0600 
    183 H183        1.7024  -11.0663  -47.2722 H         1 UNK         0.0600 
    184 H184        0.4801  -12.8122  -45.8007 H         1 UNK         0.3000 
    185 H185       -1.5869  -13.7447  -43.8690 H         1 UNK         0.0600 
    186 H186       -3.1818  -11.9763  -43.1668 H         1 UNK         0.0600 
    187 H187       -3.3676  -11.4405  -44.8342 H         1 UNK         0.0600 
    188 H188       -3.9439  -13.0324  -44.3426 H         1 UNK         0.0600 
    189 H189       -1.5237  -12.7384  -46.6400 H         1 UNK         0.3000 
    190 H190       -2.1397  -20.9899  -46.7190 H         1 UNK         0.3000 
    191 H191       -4.3847  -19.4455  -47.8291 H         1 UNK         0.0600 
    192 H192       -3.2660  -17.9259  -46.1349 H         1 UNK         0.0600 
    193 H193       -4.9047  -18.3737  -45.6817 H         1 UNK         0.0600 
    194 H194       -3.5343  -19.1490  -44.8989 H         1 UNK         0.0600 
    195 H195       -3.1761  -21.7980  -45.4055 H         1 UNK         0.3000 
    196 H196       -5.5122  -23.0552  -44.6680 H         1 UNK         0.0600 
    197 H197       -4.0009  -25.0213  -44.2217 H         1 UNK         0.0600 
    198 H198       -3.2892  -23.5115  -43.6744 H         1 UNK         0.0600 
    199 H199       -2.7330  -24.2548  -45.1729 H         1 UNK         0.0600 
    200 H200       -6.7490  -24.7448  -45.3720 H         1 UNK         0.3000 
    201 H201       -7.9904  -25.9384  -46.7643 H         1 UNK         0.0600 
    202 H202       -6.0164  -27.4605  -46.7261 H         1 UNK         0.0600 
    203 H203       -5.3501  -26.6592  -48.1458 H         1 UNK         0.0600 
    204 H204       -6.8590  -27.5539  -48.2630 H         1 UNK         0.0600 
    205 H205       -7.9502  -23.2408  -47.3151 H         1 UNK         0.3000 
    206 H206       -8.5378  -21.6407  -48.7343 H         1 UNK         0.0600 
    207 H207      -10.4286  -23.1716  -49.3076 H         1 UNK         0.0600 
    208 H208       -9.9525  -22.1945  -50.6873 H         1 UNK         0.0600 
    209 H209       -9.4753  -23.8836  -50.6082 H         1 UNK         0.0600 
    210 H210       -5.9956  -21.8611  -48.6316 H         1 UNK         0.3000 
    211 H211       -3.9748  -21.5639  -49.5056 H         1 UNK         0.0600 
    212 H212       -5.4200  -20.4665  -51.9769 H         1 UNK         0.0600 
    213 H213       -3.7592  -20.1374  -51.5106 H         1 UNK         0.0600 
    214 H214       -5.0771  -19.5512  -50.5135 H         1 UNK         0.0600 
    215 H215       -4.6023  -24.0959  -49.5036 H         1 UNK         0.3000 
    216 H216       -4.3184  -26.1526  -50.2886 H         1 UNK         0.0600 
    217 H217       -2.2818  -26.5866  -51.6403 H         1 UNK         0.0600 
    218 H218       -1.9450  -25.3940  -50.3952 H         1 UNK         0.0600 
    219 H219       -2.1632  -24.8852  -52.0679 H         1 UNK         0.0600 
    220 H220       -6.5688  -25.2557  -51.2447 H         1 UNK         0.3000 
    221 H221       -8.1617  -25.2546  -52.7662 H         1 UNK         0.0600 
    222 H222       -6.5423  -27.4298  -54.1977 H         1 UNK         0.0600 
    223 H223       -7.6503  -27.6987  -52.8527 H         1 UNK         0.0600 
    224 H224       -8.2605  -27.1127  -54.3918 H         1 UNK         0.0600 
    225 H225       -6.6185  -23.1514  -53.0064 H         1 UNK         0.3000 
    226 H226       -5.9925  -21.4128  -54.1530 H         1 UNK         0.0600 
    227 H227       -8.3024  -21.6130  -55.1000 H         1 UNK         0.0600 
    228 H228       -7.1980  -20.8295  -56.2157 H         1 UNK         0.0600 
    229 H229       -7.6580  -22.5056  -56.4781 H         1 UNK         0.0600 
    230 H230       -4.3135  -23.9452  -54.4694 H         1 UNK         0.3000 
    231 H231       -2.9118  -23.5406  -57.0095 H         1 UNK         0.0600 
    232 H232       -2.1651  -25.2803  -54.6062 H         1 UNK         0.0600 
    233 H233       -1.4645  -25.3565  -56.2159 H         1 UNK         0.0600 
    234 H234       -3.1446  -25.8136  -55.9730 H         1 UNK         0.0600 
    235 H235       -2.5726  -22.4974  -53.6230 H         1 UNK         0.3000 
    236 H236        0.1627  -21.4767  -54.0273 H         1 UNK         0.0600 
    237 H237       -0.5352  -22.5468  -51.8538 H         1 UNK         0.0600 
    238 H238        0.0291  -20.8963  -51.6597 H         1 UNK         0.0600 
    239 H239       -1.6928  -21.2431  -51.6013 H         1 UNK         0.0600 
    240 H240        0.7104  -19.2907  -53.9263 H         1 UNK         0.3000 
    241 H241       -1.2326  -17.4018  -54.9566 H         1 UNK         0.0600 
    242 H242       -1.3267  -16.6713  -51.1307 H         1 UNK         0.3800 
    243 H243       -1.0765  -18.2448  -51.8374 H         1 UNK         0.3800 
    244 H244        0.6746  -17.1742  -56.1634 H         1 UNK         0.0800 
    245 H245        0.9090  -15.8790  -55.0486 H         1 UNK         0.0800 
    246 H246        3.1088  -15.4203  -54.2434 H         1 UNK         0.0800 
    247 H247        4.3984  -16.5375  -53.8868 H         1 UNK         0.0800 
@<TRIPOS>BOND
     1    1    2 1    
     2    1  127 1    
     3    1  128 1    
     4    1  129 1    
     5    2    3 2    
     6    2    4 am   BACKBONE|DICT|INTERRES
     7    4    5 1    
     8    4  130 1    
     9    5    6 1    
    10    5   65 1    
    11    5  131 1    
    12    6    7 1    
    13    6  132 1    
    14    6  133 1    
    15    7    8 1    
    16    8    9 1    
    17    8  134 1    
    18    8  135 1    
    19    9   10 ar   
    20    9   14 ar   
    21   10   11 ar   
    22   10  136 1    
    23   11   12 ar   
    24   11  126 1    
    25   12   13 ar   
    26   12  137 1    
    27   13   14 ar   
    28   13   15 1    
    29   14  138 1    
    30   15   16 1    
    31   15  139 1    
    32   15  140 1    
    33   16   17 1    
    34   17   18 1    
    35   17  141 1    
    36   17  142 1    
    37   18   19 1    
    38   18   67 1    
    39   18  143 1    
    40   19   20 am   BACKBONE|DICT|INTERRES
    41   19  144 1    
    42   20   21 2    
    43   20   22 1    
    44   22   23 1    
    45   22   24 1    
    46   22  145 1    
    47   23  146 1    
    48   23  147 1    
    49   23  148 1    
    50   24   25 am   BACKBONE|DICT|INTERRES
    51   24  149 1    
    52   25   26 2    
    53   25   27 1    
    54   27   28 1    
    55   27   29 1    
    56   27  150 1    
    57   28  151 1    
    58   28  152 1    
    59   28  153 1    
    60   29   30 am   BACKBONE|DICT|INTERRES
    61   29  154 1    
    62   30   31 2    
    63   30   32 1    
    64   32   33 1    
    65   32   34 1    
    66   32  155 1    
    67   33  156 1    
    68   33  157 1    
    69   33  158 1    
    70   34   35 am   BACKBONE|DICT|INTERRES
    71   34  159 1    
    72   35   36 2    
    73   35   37 1    
    74   37   38 1    
    75   37   39 1    
    76   37  160 1    
    77   38  161 1    
    78   38  162 1    
    79   38  163 1    
    80   39   40 am   BACKBONE|DICT|INTERRES
    81   39  164 1    
    82   40   41 2    
    83   40   42 1    
    84   42   43 1    
    85   42   44 1    
    86   42  165 1    
    87   43  166 1    
    88   43  167 1    
    89   43  168 1    
    90   44   45 am   BACKBONE|DICT|INTERRES
    91   44  169 1    
    92   45   46 2    
    93   45   47 1    
    94   47   48 1    
    95   47   49 1    
    96   47  170 1    
    97   48  171 1    
    98   48  172 1    
    99   48  173 1    
   100   49   50 am   BACKBONE|DICT|INTERRES
   101   49  174 1    
   102   50   51 2    
   103   50   52 1    
   104   52   53 1    
   105   52   54 1    
   106   52  175 1    
   107   53  176 1    
   108   53  177 1    
   109   53  178 1    
   110   54   55 am   BACKBONE|DICT|INTERRES
   111   54  179 1    
   112   55   56 2    
   113   55   57 1    
   114   57   58 1    
   115   57   59 1    
   116   57  180 1    
   117   58  181 1    
   118   58  182 1    
   119   58  183 1    
   120   59   60 am   BACKBONE|DICT|INTERRES
   121   59  184 1    
   122   60   61 2    
   123   60   62 1    
   124   62   63 1    
   125   62   64 1    
   126   62  185 1    
   127   63  186 1    
   128   63  187 1    
   129   63  188 1    
   130   64   65 am   BACKBONE|DICT|INTERRES
   131   64  189 1    
   132   65   66 2    
   133   67   68 2    
   134   67   69 am   BACKBONE|DICT|INTERRES
   135   69   70 1    
   136   69  190 1    
   137   70   71 1    
   138   70   72 1    
   139   70  191 1    
   140   71  192 1    
   141   71  193 1    
   142   71  194 1    
   143   72   73 2    
   144   72   74 am   BACKBONE|DICT|INTERRES
   145   74   75 1    
   146   74  195 1    
   147   75   76 1    
   148   75   77 1    
   149   75  196 1    
   150   76  197 1    
   151   76  198 1    
   152   76  199 1    
   153   77   78 2    
   154   77   79 am   BACKBONE|DICT|INTERRES
   155   79   80 1    
   156   79  200 1    
   157   80   81 1    
   158   80   82 1    
   159   80  201 1    
   160   81  202 1    
   161   81  203 1    
   162   81  204 1    
   163   82   83 2    
   164   82   84 am   BACKBONE|DICT|INTERRES
   165   84   85 1    
   166   84  205 1    
   167   85   86 1    
   168   85   87 1    
   169   85  206 1    
   170   86  207 1    
   171   86  208 1    
   172   86  209 1    
   173   87   88 2    
   174   87   89 am   BACKBONE|DICT|INTERRES
   175   89   90 1    
   176   89  210 1    
   177   90   91 1    
   178   90   92 1    
   179   90  211 1    
   180   91  212 1    
   181   91  213 1    
   182   91  214 1    
   183   92   93 2    
   184   92   94 am   BACKBONE|DICT|INTERRES
   185   94   95 1    
   186   94  215 1    
   187   95   96 1    
   188   95   97 1    
   189   95  216 1    
   190   96  217 1    
   191   96  218 1    
   192   96  219 1    
   193   97   98 2    
   194   97   99 am   BACKBONE|DICT|INTERRES
   195   99  100 1    
   196   99  220 1    
   197  100  101 1    
   198  100  102 1    
   199  100  221 1    
   200  101  222 1    
   201  101  223 1    
   202  101  224 1    
   203  102  103 2    
   204  102  104 am   BACKBONE|DICT|INTERRES
   205  104  105 1    
   206  104  225 1    
   207  105  106 1    
   208  105  107 1    
   209  105  226 1    
   210  106  227 1    
   211  106  228 1    
   212  106  229 1    
   213  107  108 2    
   214  107  109 am   BACKBONE|DICT|INTERRES
   215  109  110 1    
   216  109  230 1    
   217  110  111 1    
   218  110  112 1    
   219  110  231 1    
   220  111  232 1    
   221  111  233 1    
   222  111  234 1    
   223  112  113 2    
   224  112  114 am   BACKBONE|DICT|INTERRES
   225  114  115 1    
   226  114  235 1    
   227  115  116 1    
   228  115  117 1    
   229  115  236 1    
   230  116  237 1    
   231  116  238 1    
   232  116  239 1    
   233  117  118 2    
   234  117  119 am   BACKBONE|DICT|INTERRES
   235  119  120 1    
   236  119  240 1    
   237  120  121 1    
   238  120  124 1    
   239  120  241 1    
   240  121  122 am   BACKBONE|DICT|INTERRES
   241  121  123 2    
   242  122  242 1    
   243  122  243 1    
   244  124  125 1    
   245  124  244 1    
   246  124  245 1    
   247  125  126 1    
   248  126  246 1    
   249  126  247 1    
@<TRIPOS>SUBSTRUCTURE
     1 UNK         1 GROUP             0       ****    0 ROOT    
