@<TRIPOS>MOLECULE
3R540
247   249    1
SMALL
USER_CHARGES


@<TRIPOS>ATOM
      1 CA          3.5684  -14.4553  -42.5096 C.3       0 UNK        -0.1800 
      2 C           3.3017  -13.8216  -43.8664 C.2       0 UNK         0.5000 
      3 O           2.5751  -12.8323  -43.9569 O.2       0 UNK        -0.5000 
      4 N           3.9027  -14.3754  -44.9246 N.am      1 UNK        -0.5000 
      5 CA          3.9211  -13.7841  -46.2641 C.3       1 UNK         0.1400 
      6 C6          4.3687  -14.8118  -47.3299 C.3       23 UNK        -0.0398 
      7 S7          3.0324  -15.9829  -47.7449 S.3       23 UNK        -0.2404 
      8 C8          2.7109  -15.5096  -49.4750 C.3       23 UNK        -0.0205 
      9 C9          1.7981  -16.4937  -50.1910 C.ar      23 UNK        -0.0193 
     10 C10         0.5883  -16.0637  -50.7496 C.ar      23 UNK        -0.1150 
     11 C11        -0.2201  -16.9585  -51.4579 C.ar      23 UNK        -0.0193 
     12 C12         0.1931  -18.2826  -51.6060 C.ar      23 UNK        -0.1150 
     13 C13         1.3912  -18.7288  -51.0479 C.ar      23 UNK        -0.0193 
     14 C14         2.1921  -17.8280  -50.3425 C.ar      23 UNK        -0.1150 
     15 C15         1.8246  -20.1743  -51.2398 C.3       23 UNK        -0.0205 
     16 S16         0.6235  -21.3470  -50.5360 S.3       23 UNK        -0.2404 
     17 C17         0.8698  -21.0986  -48.7450 C.3       23 UNK        -0.0398 
     18 CA          0.5020  -22.3714  -47.9454 C.3       11 UNK         0.1400 
     19 N           1.2256  -22.4674  -46.6733 N.am      11 UNK        -0.5000 
     20 C           1.3532  -23.6081  -45.9797 C.2       10 UNK         0.5000 
     21 O           0.8675  -24.6817  -46.3352 O.2       10 UNK        -0.5000 
     22 CA          2.1014  -23.5225  -44.6389 C.3       10 UNK         0.1400 
     23 CB          3.6121  -23.3534  -44.8601 C.3       10 UNK        -0.1800 
     24 N           1.6110  -22.4459  -43.7783 N.am      10 UNK        -0.5000 
     25 C           0.3587  -22.3274  -43.3209 C.2       9 UNK         0.5000 
     26 O          -0.5481  -23.1043  -43.6190 O.2       9 UNK        -0.5000 
     27 CA          0.0460  -21.1390  -42.3950 C.3       9 UNK         0.1400 
     28 CB          0.2813  -21.5050  -40.9184 C.3       9 UNK        -0.1800 
     29 N           0.7178  -19.8851  -42.7502 N.am      9 UNK        -0.5000 
     30 C           2.0118  -19.5442  -42.6709 C.2       8 UNK         0.5000 
     31 O           2.9140  -20.3213  -42.3582 O.2       8 UNK        -0.5000 
     32 CA          2.3470  -18.0760  -42.9997 C.3       8 UNK         0.1400 
     33 CB          2.6285  -17.9163  -44.5010 C.3       8 UNK        -0.1800 
     34 N           1.2760  -17.1565  -42.6011 N.am      8 UNK        -0.5000 
     35 C           0.9245  -16.9096  -41.3286 C.2       7 UNK         0.5000 
     36 O           1.5477  -17.3296  -40.3533 O.2       7 UNK        -0.5000 
     37 CA         -0.3594  -16.0903  -41.1052 C.3       7 UNK         0.1400 
     38 CB         -0.0680  -14.5825  -41.0714 C.3       7 UNK        -0.1800 
     39 N          -1.3670  -16.3763  -42.1266 N.am      7 UNK        -0.5000 
     40 C          -2.1342  -17.4764  -42.1382 C.2       6 UNK         0.5000 
     41 O          -2.1230  -18.3288  -41.2507 O.2       6 UNK        -0.5000 
     42 CA         -3.0492  -17.6746  -43.3609 C.3       6 UNK         0.1400 
     43 CB         -4.4184  -17.0208  -43.1239 C.3       6 UNK        -0.1800 
     44 N          -2.4697  -17.1419  -44.5949 N.am      6 UNK        -0.5000 
     45 C          -1.3938  -17.6448  -45.2177 C.2       5 UNK         0.5000 
     46 O          -0.8207  -18.6729  -44.8606 O.2       5 UNK        -0.5000 
     47 CA         -0.8436  -16.8397  -46.4116 C.3       5 UNK         0.1400 
     48 CB         -1.4209  -17.3787  -47.7257 C.3       5 UNK        -0.1800 
     49 N          -1.1291  -15.4053  -46.3050 N.am      5 UNK        -0.5000 
     50 C          -0.5924  -14.6003  -45.3788 C.2       4 UNK         0.5000 
     51 O           0.2380  -14.9757  -44.5499 O.2       4 UNK        -0.5000 
     52 CA         -1.1604  -13.1791  -45.3007 C.3       4 UNK         0.1400 
     53 CB         -2.1210  -13.0555  -44.1014 C.3       4 UNK        -0.1800 
     54 N          -0.0869  -12.1919  -45.2079 N.am      4 UNK        -0.5000 
     55 C          -0.2519  -10.8907  -45.4846 C.2       3 UNK         0.5000 
     56 O          -1.3367  -10.3897  -45.7859 O.2       3 UNK        -0.5000 
     57 CA          0.9991   -9.9923  -45.4667 C.3       3 UNK         0.1400 
     58 CB          1.3891   -9.6037  -44.0319 C.3       3 UNK        -0.1800 
     59 N           2.1489  -10.5730  -46.1649 N.am      3 UNK        -0.5000 
     60 C           2.1828  -10.8488  -47.4781 C.2       2 UNK         0.5000 
     61 O           1.2256  -10.6723  -48.2320 O.2       2 UNK        -0.5000 
     62 CA          3.4998  -11.3937  -48.0712 C.3       2 UNK         0.1400 
     63 CB          3.9916  -10.4915  -49.2154 C.3       2 UNK        -0.1800 
     64 N           4.5855  -11.5158  -47.0926 N.am      2 UNK        -0.5000 
     65 C           4.8479  -12.5421  -46.2719 C.2       1 UNK         0.5000 
     66 O           5.8325  -12.5210  -45.5315 O.2       1 UNK        -0.5000 
     67 C          -1.0225  -22.5103  -47.7516 C.2       11 UNK         0.5000 
     68 O          -1.6920  -23.0948  -48.6029 O.2       11 UNK        -0.5000 
     69 N          -1.5456  -22.0224  -46.6168 N.am      12 UNK        -0.5000 
     70 CA         -2.9522  -22.1776  -46.2490 C.3       12 UNK         0.1400 
     71 CB         -3.2865  -21.2992  -45.0377 C.3       12 UNK        -0.1800 
     72 C          -3.3493  -23.6465  -46.0166 C.2       12 UNK         0.5000 
     73 O          -4.4300  -24.0536  -46.4437 O.2       12 UNK        -0.5000 
     74 N          -2.4564  -24.4228  -45.3920 N.am      13 UNK        -0.5000 
     75 CA         -2.6034  -25.8656  -45.2259 C.3       13 UNK         0.1400 
     76 CB         -1.5992  -26.3626  -44.1742 C.3       13 UNK        -0.1800 
     77 C          -2.4331  -26.6262  -46.5546 C.2       13 UNK         0.5000 
     78 O          -3.2587  -27.4829  -46.8724 O.2       13 UNK        -0.5000 
     79 N          -1.3643  -26.3096  -47.2989 N.am      14 UNK        -0.5000 
     80 CA         -0.9652  -27.0262  -48.5111 C.3       14 UNK         0.1400 
     81 CB          0.4845  -26.6613  -48.8650 C.3       14 UNK        -0.1800 
     82 C          -1.8813  -26.7863  -49.7241 C.2       14 UNK         0.5000 
     83 O          -2.1377  -27.7295  -50.4736 O.2       14 UNK        -0.5000 
     84 N          -2.3340  -25.5407  -49.9135 N.am      15 UNK        -0.5000 
     85 CA         -3.0416  -25.0861  -51.1121 C.3       15 UNK         0.1400 
     86 CB         -2.1688  -24.0481  -51.8439 C.3       15 UNK        -0.1800 
     87 C          -4.4631  -24.5809  -50.8023 C.2       15 UNK         0.5000 
     88 O          -4.9786  -23.7405  -51.5414 O.2       15 UNK        -0.5000 
     89 N          -5.0780  -25.1233  -49.7383 N.am      16 UNK        -0.5000 
     90 CA         -6.4859  -24.9726  -49.3413 C.3       16 UNK         0.1400 
     91 CB         -7.3979  -25.6932  -50.3557 C.3       16 UNK        -0.1800 
     92 C          -6.8940  -23.5015  -49.1336 C.2       16 UNK         0.5000 
     93 O          -7.5672  -22.9141  -49.9812 O.2       16 UNK        -0.5000 
     94 N          -6.4006  -22.9103  -48.0369 N.am      17 UNK        -0.5000 
     95 CA         -6.4778  -21.4819  -47.6920 C.3       17 UNK         0.1400 
     96 CB         -7.9384  -21.0292  -47.4863 C.3       17 UNK        -0.1800 
     97 C          -5.7089  -20.5905  -48.6933 C.2       17 UNK         0.5000 
     98 O          -5.9896  -19.3972  -48.8038 O.2       17 UNK        -0.5000 
     99 N          -4.7607  -21.2124  -49.4109 N.am      18 UNK        -0.5000 
    100 CA        -3.9572  -20.6881  -50.5144 C.3       18 UNK         0.1400 
    101 CB        -3.0379  -19.5542  -50.0355 C.3       18 UNK        -0.1800 
    102 C         -4.7788  -20.3233  -51.7692 C.2       18 UNK         0.5000 
    103 O         -4.2588  -19.6487  -52.6603 O.2       18 UNK        -0.5000 
    104 N         -6.0261  -20.8102  -51.8531 N.am      19 UNK        -0.5000 
    105 CA        -6.9332  -20.5942  -52.9784 C.3       19 UNK         0.1400 
    106 CB        -8.3571  -21.0024  -52.5752 C.3       19 UNK        -0.1800 
    107 C         -6.4942  -21.3460  -54.2454 C.2       19 UNK         0.5000 
    108 O         -6.7238  -20.8495  -55.3475 O.2       19 UNK        -0.5000 
    109 N         -5.8353  -22.5021  -54.0814 N.am      20 UNK        -0.5000 
    110 CA        -5.2539  -23.2616  -55.1906 C.3       20 UNK         0.1400 
    111 CB        -5.0418  -24.7198  -54.7546 C.3       20 UNK        -0.1800 
    112 C         -3.9380  -22.6437  -55.7072 C.2       20 UNK         0.5000 
    113 O         -3.5220  -22.9638  -56.8213 O.2       20 UNK        -0.5000 
    114 N         -3.3078  -21.7825  -54.8964 N.am      21 UNK        -0.5000 
    115 CA        -2.0592  -21.0976  -55.2147 C.3       21 UNK         0.1400 
    116 CB        -1.2022  -20.9865  -53.9442 C.3       21 UNK        -0.1800 
    117 C         -2.3195  -19.7192  -55.8454 C.2       21 UNK         0.5000 
    118 O         -1.8389  -19.4672  -56.9514 O.2       21 UNK        -0.5000 
    119 N         -3.0693  -18.8587  -55.1431 N.am      22 UNK        -0.5000 
    120 CA        -3.3573  -17.4720  -55.5594 C.3       22 UNK         0.1400 
    121 C         -4.7496  -17.2795  -56.2263 C.2       22 UNK         0.5000 
    122 N         -5.5941  -18.2949  -56.3411 N.am      22 UNK        -0.7600 
    123 O         -5.0680  -16.1813  -56.6749 O.2       22 UNK        -0.5000 
    124 C124       -3.1466  -16.4618  -54.3997 C.3       23 UNK        -0.0398 
    125 S125       -1.3985  -16.3720  -53.8793 S.3       23 UNK        -0.2404 
    126 C126       -1.5397  -16.5188  -52.0722 C.3       23 UNK        -0.0205 
    127 H127        4.2332  -13.8187  -41.9264 H         1 UNK         0.0600 
    128 H128        2.6401  -14.5701  -41.9559 H         1 UNK         0.0600 
    129 H129        4.0314  -15.4371  -42.6058 H         1 UNK         0.0600 
    130 H130        4.5081  -15.1711  -44.7894 H         1 UNK         0.3000 
    131 H131        2.9009  -13.4691  -46.4873 H         1 UNK         0.0600 
    132 H132        5.2355  -15.3770  -46.9834 H         1 UNK         0.0800 
    133 H133        4.6959  -14.3140  -48.2443 H         1 UNK         0.0800 
    134 H134        2.2877  -14.5044  -49.4948 H         1 UNK         0.0800 
    135 H135        3.6535  -15.4633  -50.0223 H         1 UNK         0.0800 
    136 H136        0.2801  -15.0332  -50.6428 H         1 UNK         0.1150 
    137 H137       -0.4227  -18.9700  -52.1630 H         1 UNK         0.1150 
    138 H138        3.1304  -18.1584  -49.9193 H         1 UNK         0.1150 
    139 H139        1.9187  -20.3712  -52.3085 H         1 UNK         0.0800 
    140 H140        2.8098  -20.3537  -50.8069 H         1 UNK         0.0800 
    141 H141        0.3044  -20.2269  -48.4126 H         1 UNK         0.0800 
    142 H142        1.9211  -20.8546  -48.5860 H         1 UNK         0.0800 
    143 H143        0.8193  -23.2323  -48.5382 H         1 UNK         0.0600 
    144 H144        1.6340  -21.6215  -46.3041 H         1 UNK         0.3000 
    145 H145        1.9386  -24.4648  -44.1117 H         1 UNK         0.0600 
    146 H146        4.1545  -23.3979  -43.9155 H         1 UNK         0.0600 
    147 H147        4.0052  -24.1466  -45.4975 H         1 UNK         0.0600 
    148 H148        3.8483  -22.4007  -45.3356 H         1 UNK         0.0600 
    149 H149        2.2915  -21.7712  -43.4413 H         1 UNK         0.3000 
    150 H150       -1.0188  -20.9312  -42.5083 H         1 UNK         0.0600 
    151 H151       -0.3144  -22.3733  -40.6343 H         1 UNK         0.0600 
    152 H152       -0.0059  -20.6840  -40.2610 H         1 UNK         0.0600 
    153 H153        1.3253  -21.7472  -40.7180 H         1 UNK         0.0600 
    154 H154        0.1005  -19.1926  -43.1604 H         1 UNK         0.3000 
    155 H155        3.2491  -17.8044  -42.4482 H         1 UNK         0.0600 
    156 H156        2.7844  -16.8725  -44.7670 H         1 UNK         0.0600 
    157 H157        1.8086  -18.2928  -45.1118 H         1 UNK         0.0600 
    158 H158        3.5256  -18.4654  -44.7887 H         1 UNK         0.0600 
    159 H159        0.7566  -16.7048  -43.3439 H         1 UNK         0.3000 
    160 H160       -0.7624  -16.3703  -40.1294 H         1 UNK         0.0600 
    161 H161       -0.9664  -14.0150  -40.8289 H         1 UNK         0.0600 
    162 H162        0.3100  -14.2174  -42.0260 H         1 UNK         0.0600 
    163 H163        0.6778  -14.3469  -40.3113 H         1 UNK         0.0600 
    164 H164       -1.4050  -15.7439  -42.9118 H         1 UNK         0.3000 
    165 H165       -3.2013  -18.7478  -43.4843 H         1 UNK         0.0600 
    166 H166       -5.0982  -17.2183  -43.9530 H         1 UNK         0.0600 
    167 H167       -4.8871  -17.4135  -42.2206 H         1 UNK         0.0600 
    168 H168       -4.3350  -15.9395  -43.0069 H         1 UNK         0.0600 
    169 H169       -2.8944  -16.3084  -44.9720 H         1 UNK         0.3000 
    170 H170        0.2402  -16.9701  -46.4350 H         1 UNK         0.0600 
    171 H171       -1.1588  -18.4281  -47.8558 H         1 UNK         0.0600 
    172 H172       -2.5085  -17.3025  -47.7551 H         1 UNK         0.0600 
    173 H173       -1.0226  -16.8384  -48.5828 H         1 UNK         0.0600 
    174 H174       -1.8098  -15.0327  -46.9512 H         1 UNK         0.3000 
    175 H175       -1.7224  -12.9903  -46.2180 H         1 UNK         0.0600 
    176 H176       -2.6469  -12.1010  -44.1076 H         1 UNK         0.0600 
    177 H177       -2.8809  -13.8376  -44.1198 H         1 UNK         0.0600 
    178 H178       -1.5895  -13.1329  -43.1534 H         1 UNK         0.0600 
    179 H179        0.8252  -12.5404  -44.9207 H         1 UNK         0.3000 
    180 H180        0.7400   -9.0707  -45.9926 H         1 UNK         0.0600 
    181 H181        1.6652  -10.4709  -43.4331 H         1 UNK         0.0600 
    182 H182        0.5582   -9.1115  -43.5250 H         1 UNK         0.0600 
    183 H183        2.2294   -8.9095  -44.0251 H         1 UNK         0.0600 
    184 H184        2.9651  -10.7670  -45.6028 H         1 UNK         0.3000 
    185 H185        3.2787  -12.3693  -48.5049 H         1 UNK         0.0600 
    186 H186        4.8985  -10.8905  -49.6705 H         1 UNK         0.0600 
    187 H187        3.2448  -10.4130  -50.0066 H         1 UNK         0.0600 
    188 H188        4.2076   -9.4808  -48.8668 H         1 UNK         0.0600 
    189 H189        5.2085  -10.7220  -47.0558 H         1 UNK         0.3000 
    190 H190       -0.9395  -21.5788  -45.9429 H         1 UNK         0.3000 
    191 H191       -3.5423  -21.8141  -47.0878 H         1 UNK         0.0600 
    192 H192       -3.1193  -20.2486  -45.2704 H         1 UNK         0.0600 
    193 H193       -4.3334  -21.4059  -44.7515 H         1 UNK         0.0600 
    194 H194       -2.6824  -21.5560  -44.1687 H         1 UNK         0.0600 
    195 H195       -1.6165  -23.9989  -45.0091 H         1 UNK         0.3000 
    196 H196       -3.6093  -26.0670  -44.8513 H         1 UNK         0.0600 
    197 H197       -1.6928  -27.4384  -44.0214 H         1 UNK         0.0600 
    198 H198       -1.7688  -25.8802  -43.2114 H         1 UNK         0.0600 
    199 H199       -0.5692  -26.1597  -44.4695 H         1 UNK         0.0600 
    200 H200       -0.7106  -25.6135  -46.9504 H         1 UNK         0.3000 
    201 H201       -0.9921  -28.0952  -48.2889 H         1 UNK         0.0600 
    202 H202        1.1645  -26.9100  -48.0500 H         1 UNK         0.0600 
    203 H203        0.5899  -25.5970  -49.0769 H         1 UNK         0.0600 
    204 H204        0.8222  -27.2067  -49.7471 H         1 UNK         0.0600 
    205 H205       -2.0806  -24.8082  -49.2534 H         1 UNK         0.3000 
    206 H206       -3.1889  -25.9168  -51.8044 H         1 UNK         0.0600 
    207 H207       -1.2416  -24.5017  -52.1937 H         1 UNK         0.0600 
    208 H208       -2.6704  -23.6357  -52.7185 H         1 UNK         0.0600 
    209 H209       -1.8963  -23.2161  -51.1977 H         1 UNK         0.0600 
    210 H210       -4.5367  -25.7675  -49.1783 H         1 UNK         0.3000 
    211 H211       -6.5988  -25.4754  -48.3795 H         1 UNK         0.0600 
    212 H212       -7.3239  -25.2571  -51.3528 H         1 UNK         0.0600 
    213 H213       -8.4432  -25.6336  -50.0504 H         1 UNK         0.0600 
    214 H214       -7.1416  -26.7497  -50.4338 H         1 UNK         0.0600 
    215 H215       -5.8098  -23.4684  -47.4201 H         1 UNK         0.3000 
    216 H216       -5.9682  -21.3733  -46.7344 H         1 UNK         0.0600 
    217 H217       -8.4636  -21.6915  -46.7982 H         1 UNK         0.0600 
    218 H218       -8.4953  -21.0070  -48.4234 H         1 UNK         0.0600 
    219 H219       -7.9785  -20.0251  -47.0628 H         1 UNK         0.0600 
    220 H220       -4.6496  -22.2027  -49.2471 H         1 UNK         0.3000 
    221 H221       -3.3123  -21.5095  -50.8201 H         1 UNK         0.0600 
    222 H222       -3.5912  -18.6415  -49.8138 H         1 UNK         0.0600 
    223 H223       -2.4928  -19.8518  -49.1407 H         1 UNK         0.0600 
    224 H224       -2.2972  -19.3189  -50.7961 H         1 UNK         0.0600 
    225 H225       -6.3641  -21.4170  -51.1149 H         1 UNK         0.3000 
    226 H226       -6.9365  -19.5265  -53.2083 H         1 UNK         0.0600 
    227 H227       -8.6808  -20.4763  -51.6769 H         1 UNK         0.0600 
    228 H228       -9.0686  -20.7662  -53.3672 H         1 UNK         0.0600 
    229 H229       -8.4278  -22.0733  -52.3808 H         1 UNK         0.0600 
    230 H230       -5.6688  -22.8568  -53.1424 H         1 UNK         0.3000 
    231 H231       -5.9631  -23.2639  -56.0212 H         1 UNK         0.0600 
    232 H232       -5.9666  -25.1595  -54.3807 H         1 UNK         0.0600 
    233 H233       -4.2905  -24.8040  -53.9712 H         1 UNK         0.0600 
    234 H234       -4.7063  -25.3309  -55.5932 H         1 UNK         0.0600 
    235 H235       -3.7500  -21.5365  -54.0229 H         1 UNK         0.3000 
    236 H236       -1.4897  -21.6869  -55.9368 H         1 UNK         0.0600 
    237 H237       -0.8751  -21.9691  -53.6048 H         1 UNK         0.0600 
    238 H238       -0.3049  -20.3937  -54.1263 H         1 UNK         0.0600 
    239 H239       -1.7499  -20.5212  -53.1257 H         1 UNK         0.0600 
    240 H240       -3.4505  -19.1410  -54.2428 H         1 UNK         0.3000 
    241 H241       -2.6501  -17.1887  -56.3412 H         1 UNK         0.0600 
    242 H242       -5.3834  -19.2115  -55.9739 H         1 UNK         0.3800 
    243 H243       -6.4852  -18.1420  -56.7856 H         1 UNK         0.3800 
    244 H244       -3.7856  -16.7224  -53.5546 H         1 UNK         0.0800 
    245 H245       -3.4378  -15.4540  -54.7007 H         1 UNK         0.0800 
    246 H246       -1.8655  -15.5649  -51.6550 H         1 UNK         0.0800 
    247 H247       -2.3110  -17.2469  -51.8212 H         1 UNK         0.0800 
@<TRIPOS>BOND
     1    1    2 1    
     2    1  127 1    
     3    1  128 1    
     4    1  129 1    
     5    2    3 2    
     6    2    4 am   BACKBONE|DICT|INTERRES
     7    4    5 1    
     8    4  130 1    
     9    5    6 1    
    10    5   65 1    
    11    5  131 1    
    12    6    7 1    
    13    6  132 1    
    14    6  133 1    
    15    7    8 1    
    16    8    9 1    
    17    8  134 1    
    18    8  135 1    
    19    9   10 ar   
    20    9   14 ar   
    21   10   11 ar   
    22   10  136 1    
    23   11   12 ar   
    24   11  126 1    
    25   12   13 ar   
    26   12  137 1    
    27   13   14 ar   
    28   13   15 1    
    29   14  138 1    
    30   15   16 1    
    31   15  139 1    
    32   15  140 1    
    33   16   17 1    
    34   17   18 1    
    35   17  141 1    
    36   17  142 1    
    37   18   19 1    
    38   18   67 1    
    39   18  143 1    
    40   19   20 am   BACKBONE|DICT|INTERRES
    41   19  144 1    
    42   20   21 2    
    43   20   22 1    
    44   22   23 1    
    45   22   24 1    
    46   22  145 1    
    47   23  146 1    
    48   23  147 1    
    49   23  148 1    
    50   24   25 am   BACKBONE|DICT|INTERRES
    51   24  149 1    
    52   25   26 2    
    53   25   27 1    
    54   27   28 1    
    55   27   29 1    
    56   27  150 1    
    57   28  151 1    
    58   28  152 1    
    59   28  153 1    
    60   29   30 am   BACKBONE|DICT|INTERRES
    61   29  154 1    
    62   30   31 2    
    63   30   32 1    
    64   32   33 1    
    65   32   34 1    
    66   32  155 1    
    67   33  156 1    
    68   33  157 1    
    69   33  158 1    
    70   34   35 am   BACKBONE|DICT|INTERRES
    71   34  159 1    
    72   35   36 2    
    73   35   37 1    
    74   37   38 1    
    75   37   39 1    
    76   37  160 1    
    77   38  161 1    
    78   38  162 1    
    79   38  163 1    
    80   39   40 am   BACKBONE|DICT|INTERRES
    81   39  164 1    
    82   40   41 2    
    83   40   42 1    
    84   42   43 1    
    85   42   44 1    
    86   42  165 1    
    87   43  166 1    
    88   43  167 1    
    89   43  168 1    
    90   44   45 am   BACKBONE|DICT|INTERRES
    91   44  169 1    
    92   45   46 2    
    93   45   47 1    
    94   47   48 1    
    95   47   49 1    
    96   47  170 1    
    97   48  171 1    
    98   48  172 1    
    99   48  173 1    
   100   49   50 am   BACKBONE|DICT|INTERRES
   101   49  174 1    
   102   50   51 2    
   103   50   52 1    
   104   52   53 1    
   105   52   54 1    
   106   52  175 1    
   107   53  176 1    
   108   53  177 1    
   109   53  178 1    
   110   54   55 am   BACKBONE|DICT|INTERRES
   111   54  179 1    
   112   55   56 2    
   113   55   57 1    
   114   57   58 1    
   115   57   59 1    
   116   57  180 1    
   117   58  181 1    
   118   58  182 1    
   119   58  183 1    
   120   59   60 am   BACKBONE|DICT|INTERRES
   121   59  184 1    
   122   60   61 2    
   123   60   62 1    
   124   62   63 1    
   125   62   64 1    
   126   62  185 1    
   127   63  186 1    
   128   63  187 1    
   129   63  188 1    
   130   64   65 am   BACKBONE|DICT|INTERRES
   131   64  189 1    
   132   65   66 2    
   133   67   68 2    
   134   67   69 am   BACKBONE|DICT|INTERRES
   135   69   70 1    
   136   69  190 1    
   137   70   71 1    
   138   70   72 1    
   139   70  191 1    
   140   71  192 1    
   141   71  193 1    
   142   71  194 1    
   143   72   73 2    
   144   72   74 am   BACKBONE|DICT|INTERRES
   145   74   75 1    
   146   74  195 1    
   147   75   76 1    
   148   75   77 1    
   149   75  196 1    
   150   76  197 1    
   151   76  198 1    
   152   76  199 1    
   153   77   78 2    
   154   77   79 am   BACKBONE|DICT|INTERRES
   155   79   80 1    
   156   79  200 1    
   157   80   81 1    
   158   80   82 1    
   159   80  201 1    
   160   81  202 1    
   161   81  203 1    
   162   81  204 1    
   163   82   83 2    
   164   82   84 am   BACKBONE|DICT|INTERRES
   165   84   85 1    
   166   84  205 1    
   167   85   86 1    
   168   85   87 1    
   169   85  206 1    
   170   86  207 1    
   171   86  208 1    
   172   86  209 1    
   173   87   88 2    
   174   87   89 am   BACKBONE|DICT|INTERRES
   175   89   90 1    
   176   89  210 1    
   177   90   91 1    
   178   90   92 1    
   179   90  211 1    
   180   91  212 1    
   181   91  213 1    
   182   91  214 1    
   183   92   93 2    
   184   92   94 am   BACKBONE|DICT|INTERRES
   185   94   95 1    
   186   94  215 1    
   187   95   96 1    
   188   95   97 1    
   189   95  216 1    
   190   96  217 1    
   191   96  218 1    
   192   96  219 1    
   193   97   98 2    
   194   97   99 am   BACKBONE|DICT|INTERRES
   195   99  100 1    
   196   99  220 1    
   197  100  101 1    
   198  100  102 1    
   199  100  221 1    
   200  101  222 1    
   201  101  223 1    
   202  101  224 1    
   203  102  103 2    
   204  102  104 am   BACKBONE|DICT|INTERRES
   205  104  105 1    
   206  104  225 1    
   207  105  106 1    
   208  105  107 1    
   209  105  226 1    
   210  106  227 1    
   211  106  228 1    
   212  106  229 1    
   213  107  108 2    
   214  107  109 am   BACKBONE|DICT|INTERRES
   215  109  110 1    
   216  109  230 1    
   217  110  111 1    
   218  110  112 1    
   219  110  231 1    
   220  111  232 1    
   221  111  233 1    
   222  111  234 1    
   223  112  113 2    
   224  112  114 am   BACKBONE|DICT|INTERRES
   225  114  115 1    
   226  114  235 1    
   227  115  116 1    
   228  115  117 1    
   229  115  236 1    
   230  116  237 1    
   231  116  238 1    
   232  116  239 1    
   233  117  118 2    
   234  117  119 am   BACKBONE|DICT|INTERRES
   235  119  120 1    
   236  119  240 1    
   237  120  121 1    
   238  120  124 1    
   239  120  241 1    
   240  121  122 am   BACKBONE|DICT|INTERRES
   241  121  123 2    
   242  122  242 1    
   243  122  243 1    
   244  124  125 1    
   245  124  244 1    
   246  124  245 1    
   247  125  126 1    
   248  126  246 1    
   249  126  247 1    
@<TRIPOS>SUBSTRUCTURE
     1 UNK         1 GROUP             0       ****    0 ROOT    
