@<TRIPOS>MOLECULE
3R540
247   249    1
SMALL
USER_CHARGES


@<TRIPOS>ATOM
      1 CA          7.1992  -12.0282  -51.9647 C.3       0 UNK        -0.1800 
      2 C           6.7332  -13.4171  -51.5503 C.2       0 UNK         0.5000 
      3 O           7.5393  -14.2168  -51.0732 O.2       0 UNK        -0.5000 
      4 N           5.4409  -13.7077  -51.7394 N.am      1 UNK        -0.5000 
      5 CA          4.7904  -14.9571  -51.3345 C.3       1 UNK         0.1400 
      6 C6          3.5444  -15.2556  -52.2100 C.3       23 UNK        -0.0398 
      7 S7          2.1882  -14.0402  -52.0513 S.3       23 UNK        -0.2404 
      8 C8          0.7528  -15.0462  -52.5429 C.3       23 UNK        -0.0205 
      9 C9          0.1379  -15.8046  -51.3740 C.ar      23 UNK        -0.0193 
     10 C10        -0.8255  -15.1820  -50.5755 C.ar      23 UNK        -0.1150 
     11 C11        -1.4699  -15.8904  -49.5582 C.ar      23 UNK        -0.0193 
     12 C12        -1.1198  -17.2212  -49.3228 C.ar      23 UNK        -0.1150 
     13 C13        -0.1315  -17.8528  -50.0865 C.ar      23 UNK        -0.0193 
     14 C14         0.4830  -17.1374  -51.1211 C.ar      23 UNK        -0.1150 
     15 C15         0.2565  -19.3121  -49.8420 C.3       23 UNK        -0.0205 
     16 S16         0.1187  -19.8382  -48.0946 S.3       23 UNK        -0.2404 
     17 C17         0.7193  -21.5508  -48.1768 C.3       23 UNK        -0.0398 
     18 CA          0.0256  -22.5437  -47.2128 C.3       11 UNK         0.1400 
     19 N           0.3346  -22.3144  -45.7949 N.am      11 UNK        -0.5000 
     20 C           0.2336  -23.2733  -44.8601 C.2       10 UNK         0.5000 
     21 O          -0.1601  -24.4154  -45.1051 O.2       10 UNK        -0.5000 
     22 CA          0.5825  -22.8935  -43.4135 C.3       10 UNK         0.1400 
     23 CB          2.0980  -22.7212  -43.2254 C.3       10 UNK        -0.1800 
     24 N          -0.1209  -21.6801  -43.0059 N.am      10 UNK        -0.5000 
     25 C          -1.3998  -21.6581  -42.6033 C.2       9 UNK         0.5000 
     26 O          -2.0917  -22.6695  -42.4839 O.2       9 UNK        -0.5000 
     27 CA         -2.0236  -20.2837  -42.2864 C.3       9 UNK         0.1400 
     28 CB         -1.9107  -19.9788  -40.7852 C.3       9 UNK        -0.1800 
     29 N          -1.4339  -19.1785  -43.0413 N.am      9 UNK        -0.5000 
     30 C          -1.4775  -19.0515  -44.3751 C.2       8 UNK         0.5000 
     31 O          -2.0623  -19.8369  -45.1174 O.2       8 UNK        -0.5000 
     32 CA         -0.6770  -17.8870  -44.9781 C.3       8 UNK         0.1400 
     33 CB         -1.4860  -16.5828  -44.9221 C.3       8 UNK        -0.1800 
     34 N           0.6160  -17.7028  -44.3203 N.am      8 UNK        -0.5000 
     35 C           1.5935  -18.6171  -44.2461 C.2       7 UNK         0.5000 
     36 O           1.5173  -19.7445  -44.7359 O.2       7 UNK        -0.5000 
     37 CA          2.8400  -18.2266  -43.4331 C.3       7 UNK         0.1400 
     38 CB          3.8242  -17.3930  -44.2679 C.3       7 UNK        -0.1800 
     39 N           2.4671  -17.4706  -42.2399 N.am      7 UNK        -0.5000 
     40 C           2.0703  -18.0233  -41.0868 C.2       6 UNK         0.5000 
     41 O           2.0258  -19.2379  -40.8896 O.2       6 UNK        -0.5000 
     42 CA          1.6396  -17.0561  -39.9669 C.3       6 UNK         0.1400 
     43 CB          2.8432  -16.6773  -39.0910 C.3       6 UNK        -0.1800 
     44 N           1.0073  -15.8333  -40.4677 N.am      6 UNK        -0.5000 
     45 C          -0.1901  -15.7965  -41.0671 C.2       5 UNK         0.5000 
     46 O          -0.8851  -16.7932  -41.2670 O.2       5 UNK        -0.5000 
     47 CA         -0.6777  -14.4191  -41.5588 C.3       5 UNK         0.1400 
     48 CB         -1.3222  -13.6373  -40.4040 C.3       5 UNK        -0.1800 
     49 N           0.3388  -13.5766  -42.2047 N.am      5 UNK        -0.5000 
     50 C           1.1424  -13.9505  -43.2096 C.2       4 UNK         0.5000 
     51 O           1.2726  -15.1134  -43.5887 O.2       4 UNK        -0.5000 
     52 CA          1.9588  -12.8503  -43.9080 C.3       4 UNK         0.1400 
     53 CB          3.4073  -12.8548  -43.3972 C.3       4 UNK        -0.1800 
     54 N           1.9630  -13.0542  -45.3583 N.am      4 UNK        -0.5000 
     55 C           0.8886  -12.9342  -46.1525 C.2       3 UNK         0.5000 
     56 O          -0.2046  -12.5230  -45.7607 O.2       3 UNK        -0.5000 
     57 CA          1.0565  -13.3258  -47.6336 C.3       3 UNK         0.1400 
     58 CB          1.2389  -12.0778  -48.5100 C.3       3 UNK        -0.1800 
     59 N           2.1747  -14.2371  -47.8729 N.am      3 UNK        -0.5000 
     60 C           2.1661  -15.5501  -47.6161 C.2       2 UNK         0.5000 
     61 O           1.2040  -16.1252  -47.1133 O.2       2 UNK        -0.5000 
     62 CA          3.4451  -16.3422  -47.9849 C.3       2 UNK         0.1400 
     63 CB          3.2714  -17.8632  -47.8254 C.3       2 UNK        -0.1800 
     64 N           3.9159  -16.0956  -49.3503 N.am      2 UNK        -0.5000 
     65 C           4.4746  -14.9738  -49.8203 C.2       1 UNK         0.5000 
     66 O           4.7017  -13.9855  -49.1151 O.2       1 UNK        -0.5000 
     67 C          -1.4812  -22.7573  -47.4854 C.2       11 UNK         0.5000 
     68 O          -1.8220  -23.3763  -48.4931 O.2       11 UNK        -0.5000 
     69 N          -2.3595  -22.3421  -46.5599 N.am      12 UNK        -0.5000 
     70 CA         -3.7814  -22.7028  -46.5330 C.3       12 UNK         0.1400 
     71 CB         -4.4850  -21.9775  -45.3772 C.3       12 UNK        -0.1800 
     72 C          -4.0249  -24.2213  -46.4468 C.2       12 UNK         0.5000 
     73 O          -4.9996  -24.7081  -47.0190 O.2       12 UNK        -0.5000 
     74 N          -3.1234  -24.9418  -45.7675 N.am      13 UNK        -0.5000 
     75 CA         -3.1227  -26.3990  -45.7010 C.3       13 UNK         0.1400 
     76 CB         -2.6430  -26.8454  -44.3104 C.3       13 UNK        -0.1800 
     77 C          -2.2371  -26.9982  -46.8055 C.2       13 UNK         0.5000 
     78 O          -2.6789  -27.9053  -47.5108 O.2       13 UNK        -0.5000 
     79 N          -0.9999  -26.4958  -46.9262 N.am      14 UNK        -0.5000 
     80 CA          0.0451  -27.0943  -47.7599 C.3       14 UNK         0.1400 
     81 CB          1.4180  -26.5860  -47.2926 C.3       14 UNK        -0.1800 
     82 C          -0.1267  -26.8726  -49.2746 C.2       14 UNK         0.5000 
     83 O           0.2951  -27.7332  -50.0485 O.2       14 UNK        -0.5000 
     84 N          -0.7131  -25.7374  -49.6765 N.am      15 UNK        -0.5000 
     85 CA         -0.8596  -25.3268  -51.0779 C.3       15 UNK         0.1400 
     86 CB          0.0368  -24.1019  -51.3299 C.3       15 UNK        -0.1800 
     87 C          -2.3188  -25.0139  -51.4567 C.2       15 UNK         0.5000 
     88 O          -2.5609  -24.6096  -52.5938 O.2       15 UNK        -0.5000 
     89 N          -3.2554  -25.1922  -50.5124 N.am      16 UNK        -0.5000 
     90 CA         -4.6843  -24.8770  -50.6145 C.3       16 UNK         0.1400 
     91 CB         -5.3838  -25.7984  -51.6364 C.3       16 UNK        -0.1800 
     92 C          -4.9534  -23.3770  -50.8642 C.2       16 UNK         0.5000 
     93 O          -5.7989  -23.0259  -51.6911 O.2       16 UNK        -0.5000 
     94 N          -4.2216  -22.5082  -50.1511 N.am      17 UNK        -0.5000 
     95 CA         -4.4266  -21.0581  -50.1725 C.3       17 UNK         0.1400 
     96 CB         -3.2835  -20.3511  -49.4341 C.3       17 UNK        -0.1800 
     97 C          -5.7973  -20.6340  -49.6075 C.2       17 UNK         0.5000 
     98 O          -6.4067  -21.3717  -48.8304 O.2       17 UNK        -0.5000 
     99 N          -6.2444  -19.4492  -50.0431 N.am      18 UNK        -0.5000 
    100 CA        -7.6116  -18.9232  -49.9670 C.3       18 UNK         0.1400 
    101 CB        -8.1304  -18.8337  -48.5162 C.3       18 UNK        -0.1800 
    102 C         -8.5596  -19.6797  -50.9243 C.2       18 UNK         0.5000 
    103 O         -9.7575  -19.7854  -50.6558 O.2       18 UNK        -0.5000 
    104 N         -7.9965  -20.1765  -52.0343 N.am      19 UNK        -0.5000 
    105 CA        -8.6685  -20.9106  -53.1007 C.3       19 UNK         0.1400 
    106 CB        -9.1751  -22.2867  -52.6188 C.3       19 UNK        -0.1800 
    107 C         -7.7125  -21.0312  -54.2962 C.2       19 UNK         0.5000 
    108 O         -7.9227  -20.3622  -55.3083 O.2       19 UNK        -0.5000 
    109 N         -6.6689  -21.8616  -54.1565 N.am      20 UNK        -0.5000 
    110 CA        -5.6707  -22.1184  -55.2022 C.3       20 UNK         0.1400 
    111 CB        -5.1053  -23.5336  -55.0147 C.3       20 UNK        -0.1800 
    112 C         -4.5305  -21.0816  -55.2100 C.2       20 UNK         0.5000 
    113 O         -3.8663  -20.9129  -56.2334 O.2       20 UNK        -0.5000 
    114 N         -4.3377  -20.4014  -54.0773 N.am      21 UNK        -0.5000 
    115 CA        -3.4253  -19.2815  -53.8744 C.3       21 UNK         0.1400 
    116 CB        -2.1334  -19.7819  -53.2039 C.3       21 UNK        -0.1800 
    117 C         -4.1447  -18.2352  -53.0098 C.2       21 UNK         0.5000 
    118 O         -5.1924  -18.5391  -52.4314 O.2       21 UNK        -0.5000 
    119 N         -3.5760  -17.0282  -52.9287 N.am      22 UNK        -0.5000 
    120 CA        -4.1485  -15.8553  -52.2395 C.3       22 UNK         0.1400 
    121 C         -5.3666  -15.2049  -52.9714 C.2       22 UNK         0.5000 
    122 N         -5.6274  -15.5240  -54.2336 N.am      22 UNK        -0.7600 
    123 O         -6.0770  -14.3802  -52.4035 O.2       22 UNK        -0.5000 
    124 C124       -4.4100  -16.0981  -50.7202 C.3       23 UNK        -0.0398 
    125 S125       -3.9716  -14.6406  -49.7063 S.3       23 UNK        -0.2404 
    126 C126       -2.5595  -15.2370  -48.7172 C.3       23 UNK        -0.0205 
    127 H127        6.3848  -11.4348  -52.3811 H         1 UNK         0.0600 
    128 H128        7.9838  -12.1041  -52.7175 H         1 UNK         0.0600 
    129 H129        7.6016  -11.4954  -51.1032 H         1 UNK         0.0600 
    130 H130        4.8194  -12.9987  -52.1021 H         1 UNK         0.3000 
    131 H131        5.4989  -15.7704  -51.5065 H         1 UNK         0.0600 
    132 H132        3.8403  -15.2883  -53.2595 H         1 UNK         0.0800 
    133 H133        3.1621  -16.2526  -51.9922 H         1 UNK         0.0800 
    134 H134        0.0015  -14.3839  -52.9755 H         1 UNK         0.0800 
    135 H135        1.0355  -15.7346  -53.3408 H         1 UNK         0.0800 
    136 H136       -1.0990  -14.1537  -50.7660 H         1 UNK         0.1150 
    137 H137       -1.6219  -17.7646  -48.5359 H         1 UNK         0.1150 
    138 H138        1.2197  -17.6260  -51.7423 H         1 UNK         0.1150 
    139 H139       -0.3679  -19.9472  -50.4692 H         1 UNK         0.0800 
    140 H140        1.2840  -19.4782  -50.1679 H         1 UNK         0.0800 
    141 H141        1.7909  -21.5356  -47.9739 H         1 UNK         0.0800 
    142 H142        0.6234  -21.9077  -49.2017 H         1 UNK         0.0800 
    143 H143        0.4743  -23.5071  -47.4568 H         1 UNK         0.0600 
    144 H144        0.6495  -21.3841  -45.5327 H         1 UNK         0.3000 
    145 H145        0.2672  -23.7160  -42.7677 H         1 UNK         0.0600 
    146 H146        2.3382  -22.4459  -42.1982 H         1 UNK         0.0600 
    147 H147        2.6214  -23.6528  -43.4436 H         1 UNK         0.0600 
    148 H148        2.5130  -21.9566  -43.8810 H         1 UNK         0.0600 
    149 H149        0.3687  -20.8046  -43.1368 H         1 UNK         0.3000 
    150 H150       -3.0825  -20.3369  -42.5477 H         1 UNK         0.0600 
    151 H151       -2.3480  -20.7797  -40.1875 H         1 UNK         0.0600 
    152 H152       -2.4368  -19.0589  -40.5294 H         1 UNK         0.0600 
    153 H153       -0.8705  -19.8662  -40.4764 H         1 UNK         0.0600 
    154 H154       -0.9726  -18.4541  -42.5008 H         1 UNK         0.3000 
    155 H155       -0.4818  -18.1087  -46.0253 H         1 UNK         0.0600 
    156 H156       -1.7359  -16.3090  -43.8981 H         1 UNK         0.0600 
    157 H157       -2.4214  -16.6834  -45.4735 H         1 UNK         0.0600 
    158 H158       -0.9333  -15.7552  -45.3677 H         1 UNK         0.0600 
    159 H159        0.8006  -16.7719  -43.9507 H         1 UNK         0.3000 
    160 H160        3.3498  -19.1439  -43.1302 H         1 UNK         0.0600 
    161 H161        3.3417  -16.5256  -44.7200 H         1 UNK         0.0600 
    162 H162        4.2552  -17.9930  -45.0688 H         1 UNK         0.0600 
    163 H163        4.6535  -17.0339  -43.6584 H         1 UNK         0.0600 
    164 H164        2.3820  -16.4685  -42.3533 H         1 UNK         0.3000 
    165 H165        0.9142  -17.5805  -39.3410 H         1 UNK         0.0600 
    166 H166        2.5379  -16.0584  -38.2470 H         1 UNK         0.0600 
    167 H167        3.3243  -17.5672  -38.6827 H         1 UNK         0.0600 
    168 H168        3.5962  -16.1274  -39.6570 H         1 UNK         0.0600 
    169 H169        1.5195  -14.9706  -40.3566 H         1 UNK         0.3000 
    170 H170       -1.4520  -14.6023  -42.3053 H         1 UNK         0.0600 
    171 H171       -2.0962  -14.2296  -39.9138 H         1 UNK         0.0600 
    172 H172       -0.5888  -13.3627  -39.6449 H         1 UNK         0.0600 
    173 H173       -1.7949  -12.7222  -40.7613 H         1 UNK         0.0600 
    174 H174        0.3252  -12.6013  -41.9438 H         1 UNK         0.3000 
    175 H175        1.5106  -11.8776  -43.6957 H         1 UNK         0.0600 
    176 H176        3.9016  -13.8071  -43.5950 H         1 UNK         0.0600 
    177 H177        3.9948  -12.0672  -43.8694 H         1 UNK         0.0600 
    178 H178        3.4424  -12.6844  -42.3204 H         1 UNK         0.0600 
    179 H179        2.8076  -13.4303  -45.7610 H         1 UNK         0.3000 
    180 H180        0.1379  -13.8248  -47.9447 H         1 UNK         0.0600 
    181 H181        2.1615  -11.5484  -48.2691 H         1 UNK         0.0600 
    182 H182        0.4119  -11.3796  -48.3746 H         1 UNK         0.0600 
    183 H183        1.2692  -12.3422  -49.5672 H         1 UNK         0.0600 
    184 H184        3.0123  -13.8471  -48.2962 H         1 UNK         0.3000 
    185 H185        4.2207  -16.0198  -47.2875 H         1 UNK         0.0600 
    186 H186        2.8144  -18.1268  -46.8732 H         1 UNK         0.0600 
    187 H187        2.6305  -18.2687  -48.6057 H         1 UNK         0.0600 
    188 H188        4.2304  -18.3783  -47.8794 H         1 UNK         0.0600 
    189 H189        3.7454  -16.8502  -49.9976 H         1 UNK         0.3000 
    190 H190       -2.0331  -21.7314  -45.8179 H         1 UNK         0.3000 
    191 H191       -4.2365  -22.3624  -47.4605 H         1 UNK         0.0600 
    192 H192       -4.4571  -20.8971  -45.5167 H         1 UNK         0.0600 
    193 H193       -5.5357  -22.2642  -45.3171 H         1 UNK         0.0600 
    194 H194       -4.0244  -22.2079  -44.4166 H         1 UNK         0.0600 
    195 H195       -2.3298  -24.4696  -45.3525 H         1 UNK         0.3000 
    196 H196       -4.1368  -26.7808  -45.8377 H         1 UNK         0.0600 
    197 H197       -2.6359  -27.9332  -44.2312 H         1 UNK         0.0600 
    198 H198       -3.3021  -26.4670  -43.5289 H         1 UNK         0.0600 
    199 H199       -1.6340  -26.4939  -44.0927 H         1 UNK         0.0600 
    200 H200       -0.7064  -25.7588  -46.2898 H         1 UNK         0.3000 
    201 H201        0.0237  -28.1733  -47.5912 H         1 UNK         0.0600 
    202 H202        1.5742  -26.7878  -46.2327 H         1 UNK         0.0600 
    203 H203        1.5307  -25.5143  -47.4488 H         1 UNK         0.0600 
    204 H204        2.2224  -27.0805  -47.8386 H         1 UNK         0.0600 
    205 H205       -1.0433  -25.0668  -48.9896 H         1 UNK         0.3000 
    206 H206       -0.5357  -26.1257  -51.7475 H         1 UNK         0.0600 
    207 H207        1.0603  -24.2802  -50.9999 H         1 UNK         0.0600 
    208 H208        0.0756  -23.8591  -52.3924 H         1 UNK         0.0600 
    209 H209       -0.3403  -23.2209  -50.8115 H         1 UNK         0.0600 
    210 H210       -2.9452  -25.5243  -49.6112 H         1 UNK         0.3000 
    211 H211       -5.1154  -25.0978  -49.6382 H         1 UNK         0.0600 
    212 H212       -5.0389  -25.6170  -52.6541 H         1 UNK         0.0600 
    213 H213       -6.4632  -25.6426  -51.6266 H         1 UNK         0.0600 
    214 H214       -5.2064  -26.8485  -51.4048 H         1 UNK         0.0600 
    215 H215       -3.5072  -22.8654  -49.5266 H         1 UNK         0.3000 
    216 H216       -4.3861  -20.7623  -51.2197 H         1 UNK         0.0600 
    217 H217       -3.2443  -19.2964  -49.7057 H         1 UNK         0.0600 
    218 H218       -2.3227  -20.7905  -49.6934 H         1 UNK         0.0600 
    219 H219       -3.3940  -20.3988  -48.3513 H         1 UNK         0.0600 
    220 H220       -5.6633  -18.9568  -50.7177 H         1 UNK         0.3000 
    221 H221       -7.5559  -17.9038  -50.3513 H         1 UNK         0.0600 
    222 H222       -8.3464  -19.8163  -48.0968 H         1 UNK         0.0600 
    223 H223       -7.4063  -18.3409  -47.8674 H         1 UNK         0.0600 
    224 H224       -9.0536  -18.2552  -48.4713 H         1 UNK         0.0600 
    225 H225       -7.0208  -19.9688  -52.1975 H         1 UNK         0.3000 
    226 H226       -9.5293  -20.3242  -53.4287 H         1 UNK         0.0600 
    227 H227       -9.9949  -22.1807  -51.9086 H         1 UNK         0.0600 
    228 H228       -9.5511  -22.8793  -53.4537 H         1 UNK         0.0600 
    229 H229       -8.3912  -22.8648  -52.1307 H         1 UNK         0.0600 
    230 H230       -6.5365  -22.3595  -53.2772 H         1 UNK         0.3000 
    231 H231       -6.1583  -22.0801  -56.1787 H         1 UNK         0.0600 
    232 H232       -4.5660  -23.6247  -54.0722 H         1 UNK         0.0600 
    233 H233       -4.4086  -23.7863  -55.8148 H         1 UNK         0.0600 
    234 H234       -5.8975  -24.2823  -55.0222 H         1 UNK         0.0600 
    235 H235       -4.9819  -20.5625  -53.3179 H         1 UNK         0.3000 
    236 H236       -3.1837  -18.8169  -54.8325 H         1 UNK         0.0600 
    237 H237       -1.6268  -20.5149  -53.8319 H         1 UNK         0.0600 
    238 H238       -1.4328  -18.9637  -53.0327 H         1 UNK         0.0600 
    239 H239       -2.3278  -20.2522  -52.2410 H         1 UNK         0.0600 
    240 H240       -2.7107  -16.8603  -53.4216 H         1 UNK         0.3000 
    241 H241       -3.3595  -15.1073  -52.3236 H         1 UNK         0.0600 
    242 H242       -6.4104  -15.0929  -54.6996 H         1 UNK         0.3800 
    243 H243       -5.0531  -16.1856  -54.7294 H         1 UNK         0.3800 
    244 H244       -5.4530  -16.3585  -50.5341 H         1 UNK         0.0800 
    245 H245       -3.8377  -16.9538  -50.3638 H         1 UNK         0.0800 
    246 H246       -2.9342  -15.9322  -47.9646 H         1 UNK         0.0800 
    247 H247       -2.1347  -14.3965  -48.1683 H         1 UNK         0.0800 
@<TRIPOS>BOND
     1    1    2 1    
     2    1  127 1    
     3    1  128 1    
     4    1  129 1    
     5    2    3 2    
     6    2    4 am   BACKBONE|DICT|INTERRES
     7    4    5 1    
     8    4  130 1    
     9    5    6 1    
    10    5   65 1    
    11    5  131 1    
    12    6    7 1    
    13    6  132 1    
    14    6  133 1    
    15    7    8 1    
    16    8    9 1    
    17    8  134 1    
    18    8  135 1    
    19    9   10 ar   
    20    9   14 ar   
    21   10   11 ar   
    22   10  136 1    
    23   11   12 ar   
    24   11  126 1    
    25   12   13 ar   
    26   12  137 1    
    27   13   14 ar   
    28   13   15 1    
    29   14  138 1    
    30   15   16 1    
    31   15  139 1    
    32   15  140 1    
    33   16   17 1    
    34   17   18 1    
    35   17  141 1    
    36   17  142 1    
    37   18   19 1    
    38   18   67 1    
    39   18  143 1    
    40   19   20 am   BACKBONE|DICT|INTERRES
    41   19  144 1    
    42   20   21 2    
    43   20   22 1    
    44   22   23 1    
    45   22   24 1    
    46   22  145 1    
    47   23  146 1    
    48   23  147 1    
    49   23  148 1    
    50   24   25 am   BACKBONE|DICT|INTERRES
    51   24  149 1    
    52   25   26 2    
    53   25   27 1    
    54   27   28 1    
    55   27   29 1    
    56   27  150 1    
    57   28  151 1    
    58   28  152 1    
    59   28  153 1    
    60   29   30 am   BACKBONE|DICT|INTERRES
    61   29  154 1    
    62   30   31 2    
    63   30   32 1    
    64   32   33 1    
    65   32   34 1    
    66   32  155 1    
    67   33  156 1    
    68   33  157 1    
    69   33  158 1    
    70   34   35 am   BACKBONE|DICT|INTERRES
    71   34  159 1    
    72   35   36 2    
    73   35   37 1    
    74   37   38 1    
    75   37   39 1    
    76   37  160 1    
    77   38  161 1    
    78   38  162 1    
    79   38  163 1    
    80   39   40 am   BACKBONE|DICT|INTERRES
    81   39  164 1    
    82   40   41 2    
    83   40   42 1    
    84   42   43 1    
    85   42   44 1    
    86   42  165 1    
    87   43  166 1    
    88   43  167 1    
    89   43  168 1    
    90   44   45 am   BACKBONE|DICT|INTERRES
    91   44  169 1    
    92   45   46 2    
    93   45   47 1    
    94   47   48 1    
    95   47   49 1    
    96   47  170 1    
    97   48  171 1    
    98   48  172 1    
    99   48  173 1    
   100   49   50 am   BACKBONE|DICT|INTERRES
   101   49  174 1    
   102   50   51 2    
   103   50   52 1    
   104   52   53 1    
   105   52   54 1    
   106   52  175 1    
   107   53  176 1    
   108   53  177 1    
   109   53  178 1    
   110   54   55 am   BACKBONE|DICT|INTERRES
   111   54  179 1    
   112   55   56 2    
   113   55   57 1    
   114   57   58 1    
   115   57   59 1    
   116   57  180 1    
   117   58  181 1    
   118   58  182 1    
   119   58  183 1    
   120   59   60 am   BACKBONE|DICT|INTERRES
   121   59  184 1    
   122   60   61 2    
   123   60   62 1    
   124   62   63 1    
   125   62   64 1    
   126   62  185 1    
   127   63  186 1    
   128   63  187 1    
   129   63  188 1    
   130   64   65 am   BACKBONE|DICT|INTERRES
   131   64  189 1    
   132   65   66 2    
   133   67   68 2    
   134   67   69 am   BACKBONE|DICT|INTERRES
   135   69   70 1    
   136   69  190 1    
   137   70   71 1    
   138   70   72 1    
   139   70  191 1    
   140   71  192 1    
   141   71  193 1    
   142   71  194 1    
   143   72   73 2    
   144   72   74 am   BACKBONE|DICT|INTERRES
   145   74   75 1    
   146   74  195 1    
   147   75   76 1    
   148   75   77 1    
   149   75  196 1    
   150   76  197 1    
   151   76  198 1    
   152   76  199 1    
   153   77   78 2    
   154   77   79 am   BACKBONE|DICT|INTERRES
   155   79   80 1    
   156   79  200 1    
   157   80   81 1    
   158   80   82 1    
   159   80  201 1    
   160   81  202 1    
   161   81  203 1    
   162   81  204 1    
   163   82   83 2    
   164   82   84 am   BACKBONE|DICT|INTERRES
   165   84   85 1    
   166   84  205 1    
   167   85   86 1    
   168   85   87 1    
   169   85  206 1    
   170   86  207 1    
   171   86  208 1    
   172   86  209 1    
   173   87   88 2    
   174   87   89 am   BACKBONE|DICT|INTERRES
   175   89   90 1    
   176   89  210 1    
   177   90   91 1    
   178   90   92 1    
   179   90  211 1    
   180   91  212 1    
   181   91  213 1    
   182   91  214 1    
   183   92   93 2    
   184   92   94 am   BACKBONE|DICT|INTERRES
   185   94   95 1    
   186   94  215 1    
   187   95   96 1    
   188   95   97 1    
   189   95  216 1    
   190   96  217 1    
   191   96  218 1    
   192   96  219 1    
   193   97   98 2    
   194   97   99 am   BACKBONE|DICT|INTERRES
   195   99  100 1    
   196   99  220 1    
   197  100  101 1    
   198  100  102 1    
   199  100  221 1    
   200  101  222 1    
   201  101  223 1    
   202  101  224 1    
   203  102  103 2    
   204  102  104 am   BACKBONE|DICT|INTERRES
   205  104  105 1    
   206  104  225 1    
   207  105  106 1    
   208  105  107 1    
   209  105  226 1    
   210  106  227 1    
   211  106  228 1    
   212  106  229 1    
   213  107  108 2    
   214  107  109 am   BACKBONE|DICT|INTERRES
   215  109  110 1    
   216  109  230 1    
   217  110  111 1    
   218  110  112 1    
   219  110  231 1    
   220  111  232 1    
   221  111  233 1    
   222  111  234 1    
   223  112  113 2    
   224  112  114 am   BACKBONE|DICT|INTERRES
   225  114  115 1    
   226  114  235 1    
   227  115  116 1    
   228  115  117 1    
   229  115  236 1    
   230  116  237 1    
   231  116  238 1    
   232  116  239 1    
   233  117  118 2    
   234  117  119 am   BACKBONE|DICT|INTERRES
   235  119  120 1    
   236  119  240 1    
   237  120  121 1    
   238  120  124 1    
   239  120  241 1    
   240  121  122 am   BACKBONE|DICT|INTERRES
   241  121  123 2    
   242  122  242 1    
   243  122  243 1    
   244  124  125 1    
   245  124  244 1    
   246  124  245 1    
   247  125  126 1    
   248  126  246 1    
   249  126  247 1    
@<TRIPOS>SUBSTRUCTURE
     1 UNK         1 GROUP             0       ****    0 ROOT    
