@<TRIPOS>MOLECULE
3R540
247   249    1
SMALL
USER_CHARGES


@<TRIPOS>ATOM
      1 CA         -4.0699  -13.7372  -47.7742 C.3       0 UNK        -0.1800 
      2 C          -2.8211  -13.6286  -46.9119 C.2       0 UNK         0.5000 
      3 O          -2.5486  -12.5652  -46.3554 O.2       0 UNK        -0.5000 
      4 N          -2.0678  -14.7284  -46.7804 N.am      1 UNK        -0.5000 
      5 CA         -0.8089  -14.8005  -46.0256 C.3       1 UNK         0.1400 
      6 C6         -0.0718  -16.1428  -46.2335 C.3       23 UNK        -0.0398 
      7 S7          0.4045  -16.4152  -47.9733 S.3       23 UNK        -0.2404 
      8 C8         -0.7419  -17.7405  -48.4668 C.3       23 UNK        -0.0205 
      9 C9         -0.2070  -18.5117  -49.6619 C.ar      23 UNK        -0.0193 
     10 C10        -0.7866  -18.3878  -50.9261 C.ar      23 UNK        -0.1150 
     11 C11        -0.3012  -19.1321  -52.0074 C.ar      23 UNK        -0.0193 
     12 C12         0.7766  -20.0047  -51.8148 C.ar      23 UNK        -0.1150 
     13 C13         1.3673  -20.1302  -50.5536 C.ar      23 UNK        -0.0193 
     14 C14         0.8747  -19.3731  -49.4902 C.ar      23 UNK        -0.1150 
     15 C15         2.5402  -21.0722  -50.3205 C.3       23 UNK        -0.0205 
     16 S16         2.0047  -22.7495  -49.8483 S.3       23 UNK        -0.2404 
     17 C17         0.9299  -22.4194  -48.4114 C.3       23 UNK        -0.0398 
     18 CA          0.6355  -23.7009  -47.6017 C.3       11 UNK         0.1400 
     19 N           1.6997  -23.9982  -46.6412 N.am      11 UNK        -0.5000 
     20 C           1.9047  -25.1948  -46.0785 C.2       10 UNK         0.5000 
     21 O           1.2345  -26.1944  -46.3359 O.2       10 UNK        -0.5000 
     22 CA          3.0188  -25.2704  -45.0172 C.3       10 UNK         0.1400 
     23 CB          4.3982  -25.3800  -45.6840 C.3       10 UNK        -0.1800 
     24 N           3.0085  -24.1253  -44.1024 N.am      10 UNK        -0.5000 
     25 C           2.0226  -23.8722  -43.2306 C.2       9 UNK         0.5000 
     26 O           1.0331  -24.5913  -43.0980 O.2       9 UNK        -0.5000 
     27 CA          2.1335  -22.5872  -42.3866 C.3       9 UNK         0.1400 
     28 CB          2.9574  -22.8523  -41.1177 C.3       9 UNK        -0.1800 
     29 N           2.6764  -21.4097  -43.0740 N.am      9 UNK        -0.5000 
     30 C           2.2835  -20.9211  -44.2592 C.2       8 UNK         0.5000 
     31 O           1.5002  -21.4948  -45.0175 O.2       8 UNK        -0.5000 
     32 CA          2.8454  -19.5321  -44.6228 C.3       8 UNK         0.1400 
     33 CB          2.4487  -19.0771  -46.0392 C.3       8 UNK        -0.1800 
     34 N           2.4720  -18.5108  -43.6384 N.am      8 UNK        -0.5000 
     35 C           1.2411  -18.1710  -43.2276 C.2       7 UNK         0.5000 
     36 O           0.2021  -18.6771  -43.6499 O.2       7 UNK        -0.5000 
     37 CA          1.1474  -17.0460  -42.1807 C.3       7 UNK         0.1400 
     38 CB          1.6428  -17.5115  -40.7982 C.3       7 UNK        -0.1800 
     39 N           1.7899  -15.7948  -42.5987 N.am      7 UNK        -0.5000 
     40 C           3.0894  -15.5269  -42.8019 C.2       6 UNK         0.5000 
     41 O           3.9981  -16.3420  -42.6364 O.2       6 UNK        -0.5000 
     42 CA          3.4257  -14.1040  -43.2838 C.3       6 UNK         0.1400 
     43 CB          3.4783  -14.0601  -44.8191 C.3       6 UNK        -0.1800 
     44 N           2.4361  -13.1334  -42.8197 N.am      6 UNK        -0.5000 
     45 C           2.4514  -12.5242  -41.6277 C.2       5 UNK         0.5000 
     46 O           3.3710  -12.6433  -40.8162 O.2       5 UNK        -0.5000 
     47 CA          1.2157  -11.6671  -41.2751 C.3       5 UNK         0.1400 
     48 CB          1.5482  -10.4843  -40.3420 C.3       5 UNK        -0.1800 
     49 N           0.4542  -11.2244  -42.4494 N.am      5 UNK        -0.5000 
     50 C           0.8361  -10.3670  -43.4092 C.2       4 UNK         0.5000 
     51 O           1.9175   -9.7783  -43.4136 O.2       4 UNK        -0.5000 
     52 CA         -0.1420  -10.1457  -44.5837 C.3       4 UNK         0.1400 
     53 CB          0.4179  -10.7813  -45.8660 C.3       4 UNK        -0.1800 
     54 N          -1.4819  -10.6865  -44.3422 N.am      4 UNK        -0.5000 
     55 C          -2.3877  -10.1629  -43.5046 C.2       3 UNK         0.5000 
     56 O          -2.2237   -9.1097  -42.8883 O.2       3 UNK        -0.5000 
     57 CA         -3.6718  -10.9834  -43.2855 C.3       3 UNK         0.1400 
     58 CB         -4.7336  -10.6335  -44.3394 C.3       3 UNK        -0.1800 
     59 N          -3.4153  -12.4261  -43.3084 N.am      3 UNK        -0.5000 
     60 C          -2.7882  -13.1027  -42.3349 C.2       2 UNK         0.5000 
     61 O          -2.3774  -12.5842  -41.2972 O.2       2 UNK        -0.5000 
     62 CA         -2.5379  -14.6019  -42.5821 C.3       2 UNK         0.1400 
     63 CB         -3.7764  -15.4309  -42.2122 C.3       2 UNK        -0.1800 
     64 N          -2.1618  -14.8824  -43.9680 N.am      2 UNK        -0.5000 
     65 C          -0.9943  -14.5239  -44.5196 C.2       1 UNK         0.5000 
     66 O          -0.0871  -13.9772  -43.8912 O.2       1 UNK        -0.5000 
     67 C          -0.7389  -23.6181  -46.9100 C.2       11 UNK         0.5000 
     68 O          -1.7358  -24.0209  -47.5090 O.2       11 UNK        -0.5000 
     69 N          -0.7774  -23.1358  -45.6602 N.am      12 UNK        -0.5000 
     70 CA         -1.9786  -23.1208  -44.8247 C.3       12 UNK         0.1400 
     71 CB         -1.7181  -22.3113  -43.5463 C.3       12 UNK        -0.1800 
     72 C          -2.4671  -24.5446  -44.4962 C.2       12 UNK         0.5000 
     73 O          -3.6605  -24.8179  -44.6221 O.2       12 UNK        -0.5000 
     74 N          -1.5309  -25.4394  -44.1461 N.am      13 UNK        -0.5000 
     75 CA         -1.7780  -26.8649  -43.9150 C.3       13 UNK         0.1400 
     76 CB         -0.5219  -27.5106  -43.3110 C.3       13 UNK        -0.1800 
     77 C          -2.2159  -27.6152  -45.1879 C.2       13 UNK         0.5000 
     78 O          -3.0710  -28.4975  -45.1077 O.2       13 UNK        -0.5000 
     79 N          -1.6509  -27.2305  -46.3412 N.am      14 UNK        -0.5000 
     80 CA         -2.0222  -27.7373  -47.6661 C.3       14 UNK         0.1400 
     81 CB         -0.8894  -27.4254  -48.6562 C.3       14 UNK        -0.1800 
     82 C          -3.3624  -27.1783  -48.1918 C.2       14 UNK         0.5000 
     83 O          -3.8666  -27.6869  -49.1938 O.2       14 UNK        -0.5000 
     84 N          -3.9049  -26.1525  -47.5189 N.am      15 UNK        -0.5000 
     85 CA         -5.1302  -25.4159  -47.8326 C.3       15 UNK         0.1400 
     86 CB         -6.3704  -26.3267  -47.7129 C.3       15 UNK        -0.1800 
     87 C          -5.0392  -24.6715  -49.1802 C.2       15 UNK         0.5000 
     88 O          -5.9082  -24.8323  -50.0403 O.2       15 UNK        -0.5000 
     89 N          -3.9749  -23.8702  -49.3359 N.am      16 UNK        -0.5000 
     90 CA         -3.7369  -22.9801  -50.4756 C.3       16 UNK         0.1400 
     91 CB         -2.4004  -22.2525  -50.2707 C.3       16 UNK        -0.1800 
     92 C          -4.8793  -21.9662  -50.6976 C.2       16 UNK         0.5000 
     93 O          -5.4691  -21.4749  -49.7321 O.2       16 UNK        -0.5000 
     94 N          -5.1691  -21.6853  -51.9734 N.am      17 UNK        -0.5000 
     95 CA         -6.3232  -20.9033  -52.4213 C.3       17 UNK         0.1400 
     96 CB         -6.4893  -21.1180  -53.9345 C.3       17 UNK        -0.1800 
     97 C          -6.2468  -19.3948  -52.1210 C.2       17 UNK         0.5000 
     98 O          -7.2925  -18.7455  -52.0812 O.2       17 UNK        -0.5000 
     99 N          -5.0234  -18.8644  -51.9693 N.am      18 UNK        -0.5000 
    100 CA        -4.6851  -17.4349  -51.9402 C.3       18 UNK         0.1400 
    101 CB        -5.2374  -16.7463  -50.6748 C.3       18 UNK        -0.1800 
    102 C         -5.0853  -16.7372  -53.2579 C.2       18 UNK         0.5000 
    103 O         -5.7296  -15.6866  -53.2496 O.2       18 UNK        -0.5000 
    104 N         -4.7110  -17.3752  -54.3713 N.am      19 UNK        -0.5000 
    105 CA        -5.0350  -17.0036  -55.7429 C.3       19 UNK         0.1400 
    106 CB        -6.4537  -17.5042  -56.0837 C.3       19 UNK        -0.1800 
    107 C         -3.9679  -17.6065  -56.6730 C.2       19 UNK         0.5000 
    108 O         -2.9736  -18.1552  -56.1936 O.2       19 UNK        -0.5000 
    109 N         -4.1921  -17.5291  -57.9911 N.am      20 UNK        -0.5000 
    110 CA        -3.3023  -18.0848  -59.0179 C.3       20 UNK         0.1400 
    111 CB        -3.8164  -17.6691  -60.4045 C.3       20 UNK        -0.1800 
    112 C         -3.1329  -19.6177  -58.9442 C.2       20 UNK         0.5000 
    113 O         -2.0929  -20.1309  -59.3585 O.2       20 UNK        -0.5000 
    114 N         -4.1381  -20.3162  -58.3955 N.am      21 UNK        -0.5000 
    115 CA        -4.1828  -21.7726  -58.2376 C.3       21 UNK         0.1400 
    116 CB        -5.5641  -22.1721  -57.6970 C.3       21 UNK        -0.1800 
    117 C         -3.0637  -22.3601  -57.3523 C.2       21 UNK         0.5000 
    118 O         -2.6672  -23.5045  -57.5764 O.2       21 UNK        -0.5000 
    119 N         -2.5654  -21.5750  -56.3881 N.am      22 UNK        -0.5000 
    120 CA        -1.3937  -21.9022  -55.5557 C.3       22 UNK         0.1400 
    121 C         -0.0635  -21.2782  -56.0739 C.2       22 UNK         0.5000 
    122 N         -0.0286  -20.6293  -57.2323 N.am      22 UNK        -0.7600 
    123 O          0.9714  -21.4058  -55.4256 O.2       22 UNK        -0.5000 
    124 C124       -1.6434  -21.6459  -54.0412 C.3       23 UNK        -0.0398 
    125 S125       -2.3813  -20.0269  -53.6306 S.3       23 UNK        -0.2404 
    126 C126       -0.9230  -18.9636  -53.3858 C.3       23 UNK        -0.0205 
    127 H127       -4.2069  -14.7456  -48.1652 H         1 UNK         0.0600 
    128 H128       -4.0020  -13.0506  -48.6178 H         1 UNK         0.0600 
    129 H129       -4.9521  -13.4751  -47.1902 H         1 UNK         0.0600 
    130 H130       -2.3362  -15.5706  -47.2669 H         1 UNK         0.3000 
    131 H131       -0.1635  -14.0080  -46.4089 H         1 UNK         0.0600 
    132 H132        0.8500  -16.1654  -45.6493 H         1 UNK         0.0800 
    133 H133       -0.6742  -16.9768  -45.8691 H         1 UNK         0.0800 
    134 H134       -0.8839  -18.4406  -47.6420 H         1 UNK         0.0800 
    135 H135       -1.7212  -17.3133  -48.6866 H         1 UNK         0.0800 
    136 H136       -1.6096  -17.7058  -51.0666 H         1 UNK         0.1150 
    137 H137        1.1604  -20.5799  -52.6459 H         1 UNK         0.1150 
    138 H138        1.3291  -19.4577  -48.5167 H         1 UNK         0.1150 
    139 H139        3.1480  -21.1366  -51.2241 H         1 UNK         0.0800 
    140 H140        3.1939  -20.6732  -49.5432 H         1 UNK         0.0800 
    141 H141        0.0134  -21.9740  -48.7982 H         1 UNK         0.0800 
    142 H142        1.3869  -21.6630  -47.7728 H         1 UNK         0.0800 
    143 H143        0.5712  -24.5363  -48.3010 H         1 UNK         0.0600 
    144 H144        2.2334  -23.2078  -46.3066 H         1 UNK         0.3000 
    145 H145        2.8533  -26.1753  -44.4284 H         1 UNK         0.0600 
    146 H146        5.1847  -25.5180  -44.9419 H         1 UNK         0.0600 
    147 H147        4.4372  -26.2350  -46.3603 H         1 UNK         0.0600 
    148 H148        4.6379  -24.4896  -46.2665 H         1 UNK         0.0600 
    149 H149        3.7842  -23.4820  -44.1569 H         1 UNK         0.3000 
    150 H150        1.1227  -22.3225  -42.0736 H         1 UNK         0.0600 
    151 H151        4.0014  -23.0628  -41.3531 H         1 UNK         0.0600 
    152 H152        2.5654  -23.7090  -40.5677 H         1 UNK         0.0600 
    153 H153        2.9306  -21.9966  -40.4427 H         1 UNK         0.0600 
    154 H154        3.3240  -20.8533  -42.5351 H         1 UNK         0.3000 
    155 H155        3.9329  -19.6133  -44.5949 H         1 UNK         0.0600 
    156 H156        1.3661  -19.0177  -46.1563 H         1 UNK         0.0600 
    157 H157        2.8278  -19.7760  -46.7851 H         1 UNK         0.0600 
    158 H158        2.8640  -18.0965  -46.2719 H         1 UNK         0.0600 
    159 H159        3.2402  -17.9768  -43.2394 H         1 UNK         0.3000 
    160 H160        0.0879  -16.8062  -42.0771 H         1 UNK         0.0600 
    161 H161        1.0878  -18.3887  -40.4635 H         1 UNK         0.0600 
    162 H162        1.5023  -16.7326  -40.0488 H         1 UNK         0.0600 
    163 H163        2.6991  -17.7807  -40.8062 H         1 UNK         0.0600 
    164 H164        1.1415  -15.0489  -42.8296 H         1 UNK         0.3000 
    165 H165        4.4112  -13.8377  -42.8963 H         1 UNK         0.0600 
    166 H166        3.7692  -13.0709  -45.1733 H         1 UNK         0.0600 
    167 H167        4.2083  -14.7722  -45.2064 H         1 UNK         0.0600 
    168 H168        2.5131  -14.3029  -45.2648 H         1 UNK         0.0600 
    169 H169        1.6038  -13.0302  -43.3896 H         1 UNK         0.3000 
    170 H170        0.5458  -12.3315  -40.7276 H         1 UNK         0.0600 
    171 H171        1.9526  -10.8374  -39.3927 H         1 UNK         0.0600 
    172 H172        2.2883   -9.8148  -40.7807 H         1 UNK         0.0600 
    173 H173        0.6570   -9.8990  -40.1153 H         1 UNK         0.0600 
    174 H174       -0.4503  -11.6618  -42.5603 H         1 UNK         0.3000 
    175 H175       -0.2289   -9.0690  -44.7426 H         1 UNK         0.0600 
    176 H176       -0.2559  -10.6322  -46.7101 H         1 UNK         0.0600 
    177 H177        1.3785  -10.3400  -46.1346 H         1 UNK         0.0600 
    178 H178        0.5738  -11.8531  -45.7454 H         1 UNK         0.0600 
    179 H179       -1.7409  -11.5130  -44.8724 H         1 UNK         0.3000 
    180 H180       -4.0709  -10.7214  -42.3033 H         1 UNK         0.0600 
    181 H181       -4.3979  -10.8716  -45.3491 H         1 UNK         0.0600 
    182 H182       -4.9685   -9.5687  -44.3157 H         1 UNK         0.0600 
    183 H183       -5.6623  -11.1748  -44.1581 H         1 UNK         0.0600 
    184 H184       -3.6705  -12.9149  -44.1540 H         1 UNK         0.3000 
    185 H185       -1.7159  -14.9128  -41.9335 H         1 UNK         0.0600 
    186 H186       -4.0688  -15.2541  -41.1763 H         1 UNK         0.0600 
    187 H187       -4.6320  -15.1833  -42.8418 H         1 UNK         0.0600 
    188 H188       -3.5807  -16.4983  -42.3158 H         1 UNK         0.0600 
    189 H189       -2.8557  -15.3276  -44.5506 H         1 UNK         0.3000 
    190 H190        0.0724  -22.7456  -45.2624 H         1 UNK         0.3000 
    191 H191       -2.7667  -22.6163  -45.3879 H         1 UNK         0.0600 
    192 H192       -1.3295  -21.3184  -43.7761 H         1 UNK         0.0600 
    193 H193       -2.6396  -22.1787  -42.9785 H         1 UNK         0.0600 
    194 H194       -1.0039  -22.8090  -42.8924 H         1 UNK         0.0600 
    195 H195       -0.5758  -25.1197  -44.0077 H         1 UNK         0.3000 
    196 H196       -2.5871  -26.9497  -43.1867 H         1 UNK         0.0600 
    197 H197       -0.6815  -28.5719  -43.1166 H         1 UNK         0.0600 
    198 H198       -0.2563  -27.0426  -42.3629 H         1 UNK         0.0600 
    199 H199        0.3362  -27.4229  -43.9783 H         1 UNK         0.0600 
    200 H200       -0.9040  -26.5466  -46.3115 H         1 UNK         0.3000 
    201 H201       -2.1247  -28.8224  -47.6011 H         1 UNK         0.0600 
    202 H202       -1.0877  -27.8737  -49.6304 H         1 UNK         0.0600 
    203 H203        0.0648  -27.8195  -48.3064 H         1 UNK         0.0600 
    204 H204       -0.7775  -26.3526  -48.8091 H         1 UNK         0.0600 
    205 H205       -3.3851  -25.7954  -46.7281 H         1 UNK         0.3000 
    206 H206       -5.2214  -24.6440  -47.0671 H         1 UNK         0.0600 
    207 H207       -6.4108  -26.8086  -46.7360 H         1 UNK         0.0600 
    208 H208       -7.2884  -25.7494  -47.8281 H         1 UNK         0.0600 
    209 H209       -6.3798  -27.1080  -48.4732 H         1 UNK         0.0600 
    210 H210       -3.2761  -23.8474  -48.5973 H         1 UNK         0.3000 
    211 H211       -3.6547  -23.6081  -51.3649 H         1 UNK         0.0600 
    212 H212       -1.5729  -22.9614  -50.2470 H         1 UNK         0.0600 
    213 H213       -2.3917  -21.6868  -49.3382 H         1 UNK         0.0600 
    214 H214       -2.1982  -21.5494  -51.0779 H         1 UNK         0.0600 
    215 H215       -4.6226  -22.1184  -52.7027 H         1 UNK         0.3000 
    216 H216       -7.2112  -21.2930  -51.9190 H         1 UNK         0.0600 
    217 H217       -7.3611  -20.5834  -54.3144 H         1 UNK         0.0600 
    218 H218       -6.6280  -22.1726  -54.1735 H         1 UNK         0.0600 
    219 H219       -5.6192  -20.7580  -54.4855 H         1 UNK         0.0600 
    220 H220       -4.2377  -19.4972  -52.0355 H         1 UNK         0.3000 
    221 H221       -3.5997  -17.3759  -51.8957 H         1 UNK         0.0600 
    222 H222       -6.3270  -16.7141  -50.6686 H         1 UNK         0.0600 
    223 H223       -4.9117  -17.2637  -49.7724 H         1 UNK         0.0600 
    224 H224       -4.8815  -15.7178  -50.6062 H         1 UNK         0.0600 
    225 H225       -4.1035  -18.1830  -54.3004 H         1 UNK         0.3000 
    226 H226       -4.9914  -15.9175  -55.8446 H         1 UNK         0.0600 
    227 H227       -7.1899  -17.1147  -55.3803 H         1 UNK         0.0600 
    228 H228       -6.7656  -17.1824  -57.0775 H         1 UNK         0.0600 
    229 H229       -6.5122  -18.5930  -56.0528 H         1 UNK         0.0600 
    230 H230       -5.0251  -17.0639  -58.3218 H         1 UNK         0.3000 
    231 H231       -2.3137  -17.6435  -58.8743 H         1 UNK         0.0600 
    232 H232       -4.8170  -18.0586  -60.5961 H         1 UNK         0.0600 
    233 H233       -3.1619  -18.0438  -61.1928 H         1 UNK         0.0600 
    234 H234       -3.8525  -16.5841  -60.5037 H         1 UNK         0.0600 
    235 H235       -4.9489  -19.8051  -58.0805 H         1 UNK         0.3000 
    236 H236       -4.0684  -22.2109  -59.2312 H         1 UNK         0.0600 
    237 H237       -6.3585  -21.8659  -58.3780 H         1 UNK         0.0600 
    238 H238       -5.6407  -23.2536  -57.5765 H         1 UNK         0.0600 
    239 H239       -5.7613  -21.7189  -56.7260 H         1 UNK         0.0600 
    240 H240       -2.9192  -20.6326  -56.2867 H         1 UNK         0.3000 
    241 H241       -1.2090  -22.9748  -55.6346 H         1 UNK         0.0600 
    242 H242       -0.8508  -20.5429  -57.8182 H         1 UNK         0.3800 
    243 H243        0.8463  -20.2439  -57.5498 H         1 UNK         0.3800 
    244 H244       -2.3409  -22.4018  -53.6800 H         1 UNK         0.0800 
    245 H245       -0.7383  -21.8020  -53.4539 H         1 UNK         0.0800 
    246 H246       -0.1837  -19.1504  -54.1642 H         1 UNK         0.0800 
    247 H247       -1.2316  -17.9256  -53.5186 H         1 UNK         0.0800 
@<TRIPOS>BOND
     1    1    2 1    
     2    1  127 1    
     3    1  128 1    
     4    1  129 1    
     5    2    3 2    
     6    2    4 am   BACKBONE|DICT|INTERRES
     7    4    5 1    
     8    4  130 1    
     9    5    6 1    
    10    5   65 1    
    11    5  131 1    
    12    6    7 1    
    13    6  132 1    
    14    6  133 1    
    15    7    8 1    
    16    8    9 1    
    17    8  134 1    
    18    8  135 1    
    19    9   10 ar   
    20    9   14 ar   
    21   10   11 ar   
    22   10  136 1    
    23   11   12 ar   
    24   11  126 1    
    25   12   13 ar   
    26   12  137 1    
    27   13   14 ar   
    28   13   15 1    
    29   14  138 1    
    30   15   16 1    
    31   15  139 1    
    32   15  140 1    
    33   16   17 1    
    34   17   18 1    
    35   17  141 1    
    36   17  142 1    
    37   18   19 1    
    38   18   67 1    
    39   18  143 1    
    40   19   20 am   BACKBONE|DICT|INTERRES
    41   19  144 1    
    42   20   21 2    
    43   20   22 1    
    44   22   23 1    
    45   22   24 1    
    46   22  145 1    
    47   23  146 1    
    48   23  147 1    
    49   23  148 1    
    50   24   25 am   BACKBONE|DICT|INTERRES
    51   24  149 1    
    52   25   26 2    
    53   25   27 1    
    54   27   28 1    
    55   27   29 1    
    56   27  150 1    
    57   28  151 1    
    58   28  152 1    
    59   28  153 1    
    60   29   30 am   BACKBONE|DICT|INTERRES
    61   29  154 1    
    62   30   31 2    
    63   30   32 1    
    64   32   33 1    
    65   32   34 1    
    66   32  155 1    
    67   33  156 1    
    68   33  157 1    
    69   33  158 1    
    70   34   35 am   BACKBONE|DICT|INTERRES
    71   34  159 1    
    72   35   36 2    
    73   35   37 1    
    74   37   38 1    
    75   37   39 1    
    76   37  160 1    
    77   38  161 1    
    78   38  162 1    
    79   38  163 1    
    80   39   40 am   BACKBONE|DICT|INTERRES
    81   39  164 1    
    82   40   41 2    
    83   40   42 1    
    84   42   43 1    
    85   42   44 1    
    86   42  165 1    
    87   43  166 1    
    88   43  167 1    
    89   43  168 1    
    90   44   45 am   BACKBONE|DICT|INTERRES
    91   44  169 1    
    92   45   46 2    
    93   45   47 1    
    94   47   48 1    
    95   47   49 1    
    96   47  170 1    
    97   48  171 1    
    98   48  172 1    
    99   48  173 1    
   100   49   50 am   BACKBONE|DICT|INTERRES
   101   49  174 1    
   102   50   51 2    
   103   50   52 1    
   104   52   53 1    
   105   52   54 1    
   106   52  175 1    
   107   53  176 1    
   108   53  177 1    
   109   53  178 1    
   110   54   55 am   BACKBONE|DICT|INTERRES
   111   54  179 1    
   112   55   56 2    
   113   55   57 1    
   114   57   58 1    
   115   57   59 1    
   116   57  180 1    
   117   58  181 1    
   118   58  182 1    
   119   58  183 1    
   120   59   60 am   BACKBONE|DICT|INTERRES
   121   59  184 1    
   122   60   61 2    
   123   60   62 1    
   124   62   63 1    
   125   62   64 1    
   126   62  185 1    
   127   63  186 1    
   128   63  187 1    
   129   63  188 1    
   130   64   65 am   BACKBONE|DICT|INTERRES
   131   64  189 1    
   132   65   66 2    
   133   67   68 2    
   134   67   69 am   BACKBONE|DICT|INTERRES
   135   69   70 1    
   136   69  190 1    
   137   70   71 1    
   138   70   72 1    
   139   70  191 1    
   140   71  192 1    
   141   71  193 1    
   142   71  194 1    
   143   72   73 2    
   144   72   74 am   BACKBONE|DICT|INTERRES
   145   74   75 1    
   146   74  195 1    
   147   75   76 1    
   148   75   77 1    
   149   75  196 1    
   150   76  197 1    
   151   76  198 1    
   152   76  199 1    
   153   77   78 2    
   154   77   79 am   BACKBONE|DICT|INTERRES
   155   79   80 1    
   156   79  200 1    
   157   80   81 1    
   158   80   82 1    
   159   80  201 1    
   160   81  202 1    
   161   81  203 1    
   162   81  204 1    
   163   82   83 2    
   164   82   84 am   BACKBONE|DICT|INTERRES
   165   84   85 1    
   166   84  205 1    
   167   85   86 1    
   168   85   87 1    
   169   85  206 1    
   170   86  207 1    
   171   86  208 1    
   172   86  209 1    
   173   87   88 2    
   174   87   89 am   BACKBONE|DICT|INTERRES
   175   89   90 1    
   176   89  210 1    
   177   90   91 1    
   178   90   92 1    
   179   90  211 1    
   180   91  212 1    
   181   91  213 1    
   182   91  214 1    
   183   92   93 2    
   184   92   94 am   BACKBONE|DICT|INTERRES
   185   94   95 1    
   186   94  215 1    
   187   95   96 1    
   188   95   97 1    
   189   95  216 1    
   190   96  217 1    
   191   96  218 1    
   192   96  219 1    
   193   97   98 2    
   194   97   99 am   BACKBONE|DICT|INTERRES
   195   99  100 1    
   196   99  220 1    
   197  100  101 1    
   198  100  102 1    
   199  100  221 1    
   200  101  222 1    
   201  101  223 1    
   202  101  224 1    
   203  102  103 2    
   204  102  104 am   BACKBONE|DICT|INTERRES
   205  104  105 1    
   206  104  225 1    
   207  105  106 1    
   208  105  107 1    
   209  105  226 1    
   210  106  227 1    
   211  106  228 1    
   212  106  229 1    
   213  107  108 2    
   214  107  109 am   BACKBONE|DICT|INTERRES
   215  109  110 1    
   216  109  230 1    
   217  110  111 1    
   218  110  112 1    
   219  110  231 1    
   220  111  232 1    
   221  111  233 1    
   222  111  234 1    
   223  112  113 2    
   224  112  114 am   BACKBONE|DICT|INTERRES
   225  114  115 1    
   226  114  235 1    
   227  115  116 1    
   228  115  117 1    
   229  115  236 1    
   230  116  237 1    
   231  116  238 1    
   232  116  239 1    
   233  117  118 2    
   234  117  119 am   BACKBONE|DICT|INTERRES
   235  119  120 1    
   236  119  240 1    
   237  120  121 1    
   238  120  124 1    
   239  120  241 1    
   240  121  122 am   BACKBONE|DICT|INTERRES
   241  121  123 2    
   242  122  242 1    
   243  122  243 1    
   244  124  125 1    
   245  124  244 1    
   246  124  245 1    
   247  125  126 1    
   248  126  246 1    
   249  126  247 1    
@<TRIPOS>SUBSTRUCTURE
     1 UNK         1 GROUP             0       ****    0 ROOT    
