@<TRIPOS>MOLECULE
3R540
247   249    1
SMALL
USER_CHARGES


@<TRIPOS>ATOM
      1 CA          0.4438  -11.0935  -52.2602 C.3       0 UNK        -0.1800 
      2 C           0.6887  -11.9740  -51.0430 C.2       0 UNK         0.5000 
      3 O           1.7315  -12.6226  -50.9563 O.2       0 UNK        -0.5000 
      4 N          -0.2717  -12.0096  -50.1118 N.am      1 UNK        -0.5000 
      5 CA         -0.1908  -12.7686  -48.8621 C.3       1 UNK         0.1400 
      6 C6         -1.5951  -12.9698  -48.2340 C.3       23 UNK        -0.0398 
      7 S7         -1.6910  -14.4903  -47.2260 S.3       23 UNK        -0.2404 
      8 C8         -2.8308  -15.5333  -48.1938 C.3       23 UNK        -0.0205 
      9 C9         -2.1347  -16.2889  -49.3197 C.ar      23 UNK        -0.0193 
     10 C10        -1.6975  -15.6144  -50.4639 C.ar      23 UNK        -0.1150 
     11 C11        -1.0982  -16.3085  -51.5167 C.ar      23 UNK        -0.0193 
     12 C12        -0.9502  -17.6949  -51.4306 C.ar      23 UNK        -0.1150 
     13 C13        -1.3972  -18.3863  -50.3016 C.ar      23 UNK        -0.0193 
     14 C14        -1.9779  -17.6774  -49.2441 C.ar      23 UNK        -0.1150 
     15 C15        -1.3125  -19.9037  -50.2630 C.3       23 UNK        -0.0205 
     16 S16         0.3083  -20.5140  -49.7147 S.3       23 UNK        -0.2404 
     17 C17         0.1894  -20.3446  -47.9051 C.3       23 UNK        -0.0398 
     18 CA         -0.2808  -21.6411  -47.1909 C.3       11 UNK         0.1400 
     19 N           0.3106  -21.7736  -45.8550 N.am      11 UNK        -0.5000 
     20 C           0.1721  -22.8359  -45.0478 C.2       10 UNK         0.5000 
     21 O          -0.4348  -23.8594  -45.3609 O.2       10 UNK        -0.5000 
     22 CA          0.7756  -22.7211  -43.6356 C.3       10 UNK         0.1400 
     23 CB          2.2802  -23.0278  -43.6574 C.3       10 UNK        -0.1800 
     24 N           0.5467  -21.4101  -43.0261 N.am      10 UNK        -0.5000 
     25 C          -0.6614  -20.9142  -42.7199 C.2       9 UNK         0.5000 
     26 O          -1.7134  -21.5326  -42.8746 O.2       9 UNK        -0.5000 
     27 CA         -0.7118  -19.4585  -42.2210 C.3       9 UNK         0.1400 
     28 CB         -0.3045  -19.3621  -40.7437 C.3       9 UNK        -0.1800 
     29 N           0.1231  -18.5676  -43.0259 N.am      9 UNK        -0.5000 
     30 C          -0.0484  -18.3522  -44.3377 C.2       8 UNK         0.5000 
     31 O          -0.9608  -18.8413  -45.0040 O.2       8 UNK        -0.5000 
     32 CA          1.0111  -17.4904  -45.0377 C.3       8 UNK         0.1400 
     33 CB          0.7108  -15.9990  -44.8506 C.3       8 UNK        -0.1800 
     34 N           2.3681  -17.7915  -44.5792 N.am      8 UNK        -0.5000 
     35 C           3.0064  -18.9457  -44.8194 C.2       7 UNK         0.5000 
     36 O           2.5284  -19.8663  -45.4798 O.2       7 UNK        -0.5000 
     37 CA          4.3914  -19.1187  -44.1719 C.3       7 UNK         0.1400 
     38 CB          5.4608  -18.3460  -44.9588 C.3       7 UNK        -0.1800 
     39 N           4.4102  -18.6894  -42.7741 N.am      7 UNK        -0.5000 
     40 C           3.7071  -19.2684  -41.7901 C.2       6 UNK         0.5000 
     41 O           3.0016  -20.2642  -41.9472 O.2       6 UNK        -0.5000 
     42 CA          3.7659  -18.5913  -40.4078 C.3       6 UNK         0.1400 
     43 CB          4.9282  -19.1585  -39.5796 C.3       6 UNK        -0.1800 
     44 N           3.8854  -17.1315  -40.4769 N.am      6 UNK        -0.5000 
     45 C           2.9833  -16.3180  -41.0417 C.2       5 UNK         0.5000 
     46 O           1.9612  -16.7168  -41.6057 O.2       5 UNK        -0.5000 
     47 CA          3.3247  -14.8160  -41.0322 C.3       5 UNK         0.1400 
     48 CB          4.1129  -14.4565  -42.2985 C.3       5 UNK        -0.1800 
     49 N           2.1363  -13.9662  -40.9609 N.am      5 UNK        -0.5000 
     50 C           1.2756  -13.9390  -39.9335 C.2       4 UNK         0.5000 
     51 O           1.4278  -14.5945  -38.9010 O.2       4 UNK        -0.5000 
     52 CA          0.0519  -13.0086  -40.0512 C.3       4 UNK         0.1400 
     53 CB          0.1995  -11.8027  -39.1093 C.3       4 UNK        -0.1800 
     54 N          -0.1954  -12.5115  -41.4054 N.am      4 UNK        -0.5000 
     55 C          -0.7022  -13.2305  -42.4147 C.2       3 UNK         0.5000 
     56 O          -0.9922  -14.4232  -42.3268 O.2       3 UNK        -0.5000 
     57 CA         -0.9602  -12.4858  -43.7390 C.3       3 UNK         0.1400 
     58 CB         -1.2705  -10.9845  -43.5503 C.3       3 UNK        -0.1800 
     59 N           0.1068  -12.6587  -44.7271 N.am      3 UNK        -0.5000 
     60 C           1.4082  -12.3447  -44.6210 C.2       2 UNK         0.5000 
     61 O           1.9383  -11.9728  -43.5734 O.2       2 UNK        -0.5000 
     62 CA          2.2589  -12.4381  -45.9114 C.3       2 UNK         0.1400 
     63 CB          3.4852  -13.3491  -45.7383 C.3       2 UNK        -0.1800 
     64 N           1.4809  -12.8881  -47.0723 N.am      2 UNK        -0.5000 
     65 C           0.7567  -12.0802  -47.8576 C.2       1 UNK         0.5000 
     66 O           0.7597  -10.8502  -47.7645 O.2       1 UNK        -0.5000 
     67 C          -1.8211  -21.7351  -47.1394 C.2       11 UNK         0.5000 
     68 O          -2.4168  -22.5061  -47.8944 O.2       11 UNK        -0.5000 
     69 N          -2.4327  -20.9730  -46.2218 N.am      12 UNK        -0.5000 
     70 CA         -3.8712  -20.9633  -45.9637 C.3       12 UNK         0.1400 
     71 CB         -4.2100  -19.8239  -44.9916 C.3       12 UNK        -0.1800 
     72 C          -4.3908  -22.3135  -45.4381 C.2       12 UNK         0.5000 
     73 O          -5.3986  -22.8073  -45.9458 O.2       12 UNK        -0.5000 
     74 N          -3.6719  -22.9081  -44.4733 N.am      13 UNK        -0.5000 
     75 CA         -3.9691  -24.2181  -43.8822 C.3       13 UNK         0.1400 
     76 CB         -3.0170  -24.4814  -42.7064 C.3       13 UNK        -0.1800 
     77 C          -3.9100  -25.3812  -44.8909 C.2       13 UNK         0.5000 
     78 O          -4.6411  -26.3587  -44.7323 O.2       13 UNK        -0.5000 
     79 N          -3.0893  -25.2323  -45.9384 N.am      14 UNK        -0.5000 
     80 CA         -2.9940  -26.1332  -47.0877 C.3       14 UNK         0.1400 
     81 CB         -1.5912  -25.9947  -47.7060 C.3       14 UNK        -0.1800 
     82 C          -4.1083  -25.9083  -48.1366 C.2       14 UNK         0.5000 
     83 O          -3.9394  -26.3165  -49.2854 O.2       14 UNK        -0.5000 
     84 N          -5.2141  -25.2545  -47.7475 N.am      15 UNK        -0.5000 
     85 CA         -6.3824  -24.9053  -48.5626 C.3       15 UNK         0.1400 
     86 CB         -7.1236  -26.1713  -49.0421 C.3       15 UNK        -0.1800 
     87 C          -6.0054  -23.9509  -49.7097 C.2       15 UNK         0.5000 
     88 O          -6.3233  -24.2130  -50.8707 O.2       15 UNK        -0.5000 
     89 N          -5.2795  -22.8818  -49.3523 N.am      16 UNK        -0.5000 
     90 CA         -4.6706  -21.8951  -50.2506 C.3       16 UNK         0.1400 
     91 CB         -5.7482  -21.0489  -50.9594 C.3       16 UNK        -0.1800 
     92 C          -3.6725  -22.5523  -51.2283 C.2       16 UNK         0.5000 
     93 O          -3.7179  -22.2867  -52.4305 O.2       16 UNK        -0.5000 
     94 N          -2.8241  -23.4367  -50.6815 N.am      17 UNK        -0.5000 
     95 CA         -1.8810  -24.3206  -51.3776 C.3       17 UNK         0.1400 
     96 CB         -0.6769  -23.5173  -51.9055 C.3       17 UNK        -0.1800 
     97 C          -2.5639  -25.1847  -52.4606 C.2       17 UNK         0.5000 
     98 O          -2.1165  -25.2151  -53.6076 O.2       17 UNK        -0.5000 
     99 N          -3.6579  -25.8507  -52.0643 N.am      18 UNK        -0.5000 
    100 CA        -4.5735  -26.6380  -52.8950 C.3       18 UNK         0.1400 
    101 CB        -3.8839  -27.9207  -53.4045 C.3       18 UNK        -0.1800 
    102 C         -5.2130  -25.7961  -54.0203 C.2       18 UNK         0.5000 
    103 O         -5.2047  -26.2033  -55.1839 O.2       18 UNK        -0.5000 
    104 N         -5.7502  -24.6296  -53.6335 N.am      19 UNK        -0.5000 
    105 CA        -6.3910  -23.6141  -54.4733 C.3       19 UNK         0.1400 
    106 CB        -7.7432  -24.1312  -55.0064 C.3       19 UNK        -0.1800 
    107 C         -5.4636  -23.0768  -55.5844 C.2       19 UNK         0.5000 
    108 O         -5.8490  -23.0426  -56.7550 O.2       19 UNK        -0.5000 
    109 N         -4.2484  -22.6672  -55.1953 N.am      20 UNK        -0.5000 
    110 CA        -3.2319  -22.1152  -56.0944 C.3       20 UNK         0.1400 
    111 CB        -1.8743  -22.0917  -55.3764 C.3       20 UNK        -0.1800 
    112 C         -3.5724  -20.7038  -56.6050 C.2       20 UNK         0.5000 
    113 O         -3.1077  -20.3255  -57.6816 O.2       20 UNK        -0.5000 
    114 N         -4.3433  -19.9424  -55.8103 N.am      21 UNK        -0.5000 
    115 CA        -4.8102  -18.5725  -56.0734 C.3       21 UNK         0.1400 
    116 CB        -5.8767  -18.5820  -57.1879 C.3       21 UNK        -0.1800 
    117 C         -3.6647  -17.5712  -56.3516 C.2       21 UNK         0.5000 
    118 O         -3.8313  -16.6403  -57.1418 O.2       21 UNK        -0.5000 
    119 N         -2.5145  -17.8083  -55.7068 N.am      22 UNK        -0.5000 
    120 CA        -1.2388  -17.0910  -55.8810 C.3       22 UNK         0.1400 
    121 C         -0.5413  -17.3299  -57.2567 C.2       22 UNK         0.5000 
    122 N         -0.9546  -18.3040  -58.0601 N.am      22 UNK        -0.7600 
    123 O          0.4183  -16.6413  -57.5933 O.2       22 UNK        -0.5000 
    124 C124       -1.3055  -15.5806  -55.5061 C.3       23 UNK        -0.0398 
    125 S125       -2.0566  -15.2730  -53.8713 S.3       23 UNK        -0.2404 
    126 C126       -0.6459  -15.5626  -52.7604 C.3       23 UNK        -0.0205 
    127 H127       -0.5141  -10.5761  -52.2007 H         1 UNK         0.0600 
    128 H128        0.4470  -11.6988  -53.1668 H         1 UNK         0.0600 
    129 H129        1.2304  -10.3439  -52.3459 H         1 UNK         0.0600 
    130 H130       -1.0840  -11.4190  -50.2184 H         1 UNK         0.3000 
    131 H131        0.2232  -13.7486  -49.1117 H         1 UNK         0.0600 
    132 H132       -1.8862  -12.1181  -47.6155 H         1 UNK         0.0800 
    133 H133       -2.3591  -13.0179  -49.0097 H         1 UNK         0.0800 
    134 H134       -3.3014  -16.2396  -47.5080 H         1 UNK         0.0800 
    135 H135       -3.6439  -14.9300  -48.5995 H         1 UNK         0.0800 
    136 H136       -1.8380  -14.5487  -50.5549 H         1 UNK         0.1150 
    137 H137       -0.5082  -18.2408  -52.2524 H         1 UNK         0.1150 
    138 H138       -2.3365  -18.2102  -48.3744 H         1 UNK         0.1150 
    139 H139       -2.0868  -20.3033  -49.6135 H         1 UNK         0.0800 
    140 H140       -1.5151  -20.3035  -51.2580 H         1 UNK         0.0800 
    141 H141       -0.4152  -19.4784  -47.6349 H         1 UNK         0.0800 
    142 H142        1.2003  -20.0953  -47.5882 H         1 UNK         0.0800 
    143 H143        0.0762  -22.5002  -47.7631 H         1 UNK         0.0600 
    144 H144        0.8776  -20.9957  -45.5336 H         1 UNK         0.3000 
    145 H145        0.2891  -23.4686  -43.0060 H         1 UNK         0.0600 
    146 H146        2.4733  -24.0075  -44.0960 H         1 UNK         0.0600 
    147 H147        2.8345  -22.2913  -44.2396 H         1 UNK         0.0600 
    148 H148        2.6944  -23.0353  -42.6491 H         1 UNK         0.0600 
    149 H149        1.3725  -20.8532  -42.8248 H         1 UNK         0.3000 
    150 H150       -1.7430  -19.1110  -42.3113 H         1 UNK         0.0600 
    151 H151       -0.3513  -18.3328  -40.3871 H         1 UNK         0.0600 
    152 H152        0.7084  -19.7278  -40.5794 H         1 UNK         0.0600 
    153 H153       -0.9716  -19.9561  -40.1180 H         1 UNK         0.0600 
    154 H154        0.8718  -18.0762  -42.5464 H         1 UNK         0.3000 
    155 H155        0.9514  -17.7122  -46.1055 H         1 UNK         0.0600 
    156 H156        1.0280  -15.6340  -43.8738 H         1 UNK         0.0600 
    157 H157       -0.3572  -15.7966  -44.9375 H         1 UNK         0.0600 
    158 H158        1.2094  -15.4102  -45.6160 H         1 UNK         0.0600 
    159 H159        2.7990  -17.1182  -43.9641 H         1 UNK         0.3000 
    160 H160        4.6438  -20.1809  -44.2028 H         1 UNK         0.0600 
    161 H161        5.4743  -18.6553  -46.0048 H         1 UNK         0.0600 
    162 H162        6.4564  -18.5293  -44.5545 H         1 UNK         0.0600 
    163 H163        5.2824  -17.2701  -44.9369 H         1 UNK         0.0600 
    164 H164        4.9674  -17.8783  -42.5514 H         1 UNK         0.3000 
    165 H165        2.8342  -18.8217  -39.8880 H         1 UNK         0.0600 
    166 H166        4.9267  -18.7530  -38.5676 H         1 UNK         0.0600 
    167 H167        4.8526  -20.2434  -39.4932 H         1 UNK         0.0600 
    168 H168        5.8944  -18.9317  -40.0319 H         1 UNK         0.0600 
    169 H169        4.7062  -16.7293  -40.0472 H         1 UNK         0.3000 
    170 H170        3.9430  -14.5994  -40.1587 H         1 UNK         0.0600 
    171 H171        4.3634  -13.3956  -42.3232 H         1 UNK         0.0600 
    172 H172        5.0488  -15.0136  -42.3538 H         1 UNK         0.0600 
    173 H173        3.5386  -14.6880  -43.1948 H         1 UNK         0.0600 
    174 H174        1.9346  -13.3931  -41.7704 H         1 UNK         0.3000 
    175 H175       -0.8207  -13.5833  -39.7339 H         1 UNK         0.0600 
    176 H176        1.0537  -11.1819  -39.3828 H         1 UNK         0.0600 
    177 H177       -0.6921  -11.1756  -39.1276 H         1 UNK         0.0600 
    178 H178        0.3455  -12.1257  -38.0777 H         1 UNK         0.0600 
    179 H179        0.0519  -11.5488  -41.5843 H         1 UNK         0.3000 
    180 H180       -1.8501  -12.9452  -44.1725 H         1 UNK         0.0600 
    181 H181       -1.6035  -10.5382  -44.4874 H         1 UNK         0.0600 
    182 H182       -0.4021  -10.4195  -43.2102 H         1 UNK         0.0600 
    183 H183       -2.0697  -10.8364  -42.8228 H         1 UNK         0.0600 
    184 H184       -0.2031  -13.0139  -45.6194 H         1 UNK         0.3000 
    185 H185        2.6339  -11.4309  -46.1046 H         1 UNK         0.0600 
    186 H186        3.2104  -14.3804  -45.5246 H         1 UNK         0.0600 
    187 H187        4.0996  -13.3505  -46.6388 H         1 UNK         0.0600 
    188 H188        4.1183  -12.9986  -44.9227 H         1 UNK         0.0600 
    189 H189        1.4339  -13.8859  -47.2218 H         1 UNK         0.3000 
    190 H190       -1.8692  -20.3415  -45.6562 H         1 UNK         0.3000 
    191 H191       -4.3759  -20.7593  -46.9102 H         1 UNK         0.0600 
    192 H192       -3.7031  -19.9465  -44.0338 H         1 UNK         0.0600 
    193 H193       -5.2819  -19.7824  -44.7949 H         1 UNK         0.0600 
    194 H194       -3.9156  -18.8575  -45.4015 H         1 UNK         0.0600 
    195 H195       -2.8739  -22.4126  -44.0822 H         1 UNK         0.3000 
    196 H196       -4.9878  -24.1779  -43.4917 H         1 UNK         0.0600 
    197 H197       -3.2281  -25.4437  -42.2383 H         1 UNK         0.0600 
    198 H198       -3.1204  -23.7172  -41.9361 H         1 UNK         0.0600 
    199 H199       -1.9761  -24.4944  -43.0300 H         1 UNK         0.0600 
    200 H200       -2.4899  -24.4154  -45.9627 H         1 UNK         0.3000 
    201 H201       -3.1000  -27.1607  -46.7347 H         1 UNK         0.0600 
    202 H202       -0.8159  -26.2006  -46.9679 H         1 UNK         0.0600 
    203 H203       -1.4197  -24.9912  -48.0949 H         1 UNK         0.0600 
    204 H204       -1.4464  -26.6978  -48.5270 H         1 UNK         0.0600 
    205 H205       -5.2365  -24.9017  -46.7995 H         1 UNK         0.3000 
    206 H206       -7.0607  -24.3524  -47.9111 H         1 UNK         0.0600 
    207 H207       -8.0516  -25.9081  -49.5509 H         1 UNK         0.0600 
    208 H208       -6.5257  -26.7569  -49.7409 H         1 UNK         0.0600 
    209 H209       -7.3850  -26.8157  -48.2029 H         1 UNK         0.0600 
    210 H210       -5.0379  -22.7919  -48.3740 H         1 UNK         0.3000 
    211 H211       -4.1002  -21.2210  -49.6148 H         1 UNK         0.0600 
    212 H212       -6.3547  -21.6457  -51.6402 H         1 UNK         0.0600 
    213 H213       -5.2923  -20.2487  -51.5438 H         1 UNK         0.0600 
    214 H214       -6.4179  -20.5815  -50.2377 H         1 UNK         0.0600 
    215 H215       -2.8462  -23.5262  -49.6719 H         1 UNK         0.3000 
    216 H216       -1.5032  -25.0211  -50.6321 H         1 UNK         0.0600 
    217 H217        0.0308  -24.1618  -52.4279 H         1 UNK         0.0600 
    218 H218       -0.1355  -23.0497  -51.0851 H         1 UNK         0.0600 
    219 H219       -0.9820  -22.7329  -52.5970 H         1 UNK         0.0600 
    220 H220       -3.9031  -25.8079  -51.0772 H         1 UNK         0.3000 
    221 H221       -5.3906  -26.9427  -52.2394 H         1 UNK         0.0600 
    222 H222       -3.0730  -27.6989  -54.0988 H         1 UNK         0.0600 
    223 H223       -3.4696  -28.4987  -52.5785 H         1 UNK         0.0600 
    224 H224       -4.5939  -28.5634  -53.9261 H         1 UNK         0.0600 
    225 H225       -5.7372  -24.4151  -52.6384 H         1 UNK         0.3000 
    226 H226       -6.6008  -22.7678  -53.8183 H         1 UNK         0.0600 
    227 H227       -8.3868  -24.4609  -54.1908 H         1 UNK         0.0600 
    228 H228       -8.2772  -23.3464  -55.5433 H         1 UNK         0.0600 
    229 H229       -7.6157  -24.9689  -55.6927 H         1 UNK         0.0600 
    230 H230       -4.0097  -22.7035  -54.2054 H         1 UNK         0.3000 
    231 H231       -3.1484  -22.7715  -56.9631 H         1 UNK         0.0600 
    232 H232       -1.9073  -21.4790  -54.4748 H         1 UNK         0.0600 
    233 H233       -1.5627  -23.0954  -55.0907 H         1 UNK         0.0600 
    234 H234       -1.0949  -21.6849  -56.0221 H         1 UNK         0.0600 
    235 H235       -4.6431  -20.3485  -54.9351 H         1 UNK         0.3000 
    236 H236       -5.2927  -18.2304  -55.1569 H         1 UNK         0.0600 
    237 H237       -5.4503  -18.8636  -58.1513 H         1 UNK         0.0600 
    238 H238       -6.6789  -19.2837  -56.9593 H         1 UNK         0.0600 
    239 H239       -6.3319  -17.5980  -57.3054 H         1 UNK         0.0600 
    240 H240       -2.4844  -18.6010  -55.0834 H         1 UNK         0.3000 
    241 H241       -0.5645  -17.5601  -55.1643 H         1 UNK         0.0600 
    242 H242       -0.4826  -18.4478  -58.9386 H         1 UNK         0.3800 
    243 H243       -1.7434  -18.8953  -57.8183 H         1 UNK         0.3800 
    244 H244       -0.3094  -15.1349  -55.5164 H         1 UNK         0.0800 
    245 H245       -1.8839  -15.0319  -56.2504 H         1 UNK         0.0800 
    246 H246        0.1347  -16.1296  -53.2694 H         1 UNK         0.0800 
    247 H247       -0.1992  -14.6063  -52.4852 H         1 UNK         0.0800 
@<TRIPOS>BOND
     1    1    2 1    
     2    1  127 1    
     3    1  128 1    
     4    1  129 1    
     5    2    3 2    
     6    2    4 am   BACKBONE|DICT|INTERRES
     7    4    5 1    
     8    4  130 1    
     9    5    6 1    
    10    5   65 1    
    11    5  131 1    
    12    6    7 1    
    13    6  132 1    
    14    6  133 1    
    15    7    8 1    
    16    8    9 1    
    17    8  134 1    
    18    8  135 1    
    19    9   10 ar   
    20    9   14 ar   
    21   10   11 ar   
    22   10  136 1    
    23   11   12 ar   
    24   11  126 1    
    25   12   13 ar   
    26   12  137 1    
    27   13   14 ar   
    28   13   15 1    
    29   14  138 1    
    30   15   16 1    
    31   15  139 1    
    32   15  140 1    
    33   16   17 1    
    34   17   18 1    
    35   17  141 1    
    36   17  142 1    
    37   18   19 1    
    38   18   67 1    
    39   18  143 1    
    40   19   20 am   BACKBONE|DICT|INTERRES
    41   19  144 1    
    42   20   21 2    
    43   20   22 1    
    44   22   23 1    
    45   22   24 1    
    46   22  145 1    
    47   23  146 1    
    48   23  147 1    
    49   23  148 1    
    50   24   25 am   BACKBONE|DICT|INTERRES
    51   24  149 1    
    52   25   26 2    
    53   25   27 1    
    54   27   28 1    
    55   27   29 1    
    56   27  150 1    
    57   28  151 1    
    58   28  152 1    
    59   28  153 1    
    60   29   30 am   BACKBONE|DICT|INTERRES
    61   29  154 1    
    62   30   31 2    
    63   30   32 1    
    64   32   33 1    
    65   32   34 1    
    66   32  155 1    
    67   33  156 1    
    68   33  157 1    
    69   33  158 1    
    70   34   35 am   BACKBONE|DICT|INTERRES
    71   34  159 1    
    72   35   36 2    
    73   35   37 1    
    74   37   38 1    
    75   37   39 1    
    76   37  160 1    
    77   38  161 1    
    78   38  162 1    
    79   38  163 1    
    80   39   40 am   BACKBONE|DICT|INTERRES
    81   39  164 1    
    82   40   41 2    
    83   40   42 1    
    84   42   43 1    
    85   42   44 1    
    86   42  165 1    
    87   43  166 1    
    88   43  167 1    
    89   43  168 1    
    90   44   45 am   BACKBONE|DICT|INTERRES
    91   44  169 1    
    92   45   46 2    
    93   45   47 1    
    94   47   48 1    
    95   47   49 1    
    96   47  170 1    
    97   48  171 1    
    98   48  172 1    
    99   48  173 1    
   100   49   50 am   BACKBONE|DICT|INTERRES
   101   49  174 1    
   102   50   51 2    
   103   50   52 1    
   104   52   53 1    
   105   52   54 1    
   106   52  175 1    
   107   53  176 1    
   108   53  177 1    
   109   53  178 1    
   110   54   55 am   BACKBONE|DICT|INTERRES
   111   54  179 1    
   112   55   56 2    
   113   55   57 1    
   114   57   58 1    
   115   57   59 1    
   116   57  180 1    
   117   58  181 1    
   118   58  182 1    
   119   58  183 1    
   120   59   60 am   BACKBONE|DICT|INTERRES
   121   59  184 1    
   122   60   61 2    
   123   60   62 1    
   124   62   63 1    
   125   62   64 1    
   126   62  185 1    
   127   63  186 1    
   128   63  187 1    
   129   63  188 1    
   130   64   65 am   BACKBONE|DICT|INTERRES
   131   64  189 1    
   132   65   66 2    
   133   67   68 2    
   134   67   69 am   BACKBONE|DICT|INTERRES
   135   69   70 1    
   136   69  190 1    
   137   70   71 1    
   138   70   72 1    
   139   70  191 1    
   140   71  192 1    
   141   71  193 1    
   142   71  194 1    
   143   72   73 2    
   144   72   74 am   BACKBONE|DICT|INTERRES
   145   74   75 1    
   146   74  195 1    
   147   75   76 1    
   148   75   77 1    
   149   75  196 1    
   150   76  197 1    
   151   76  198 1    
   152   76  199 1    
   153   77   78 2    
   154   77   79 am   BACKBONE|DICT|INTERRES
   155   79   80 1    
   156   79  200 1    
   157   80   81 1    
   158   80   82 1    
   159   80  201 1    
   160   81  202 1    
   161   81  203 1    
   162   81  204 1    
   163   82   83 2    
   164   82   84 am   BACKBONE|DICT|INTERRES
   165   84   85 1    
   166   84  205 1    
   167   85   86 1    
   168   85   87 1    
   169   85  206 1    
   170   86  207 1    
   171   86  208 1    
   172   86  209 1    
   173   87   88 2    
   174   87   89 am   BACKBONE|DICT|INTERRES
   175   89   90 1    
   176   89  210 1    
   177   90   91 1    
   178   90   92 1    
   179   90  211 1    
   180   91  212 1    
   181   91  213 1    
   182   91  214 1    
   183   92   93 2    
   184   92   94 am   BACKBONE|DICT|INTERRES
   185   94   95 1    
   186   94  215 1    
   187   95   96 1    
   188   95   97 1    
   189   95  216 1    
   190   96  217 1    
   191   96  218 1    
   192   96  219 1    
   193   97   98 2    
   194   97   99 am   BACKBONE|DICT|INTERRES
   195   99  100 1    
   196   99  220 1    
   197  100  101 1    
   198  100  102 1    
   199  100  221 1    
   200  101  222 1    
   201  101  223 1    
   202  101  224 1    
   203  102  103 2    
   204  102  104 am   BACKBONE|DICT|INTERRES
   205  104  105 1    
   206  104  225 1    
   207  105  106 1    
   208  105  107 1    
   209  105  226 1    
   210  106  227 1    
   211  106  228 1    
   212  106  229 1    
   213  107  108 2    
   214  107  109 am   BACKBONE|DICT|INTERRES
   215  109  110 1    
   216  109  230 1    
   217  110  111 1    
   218  110  112 1    
   219  110  231 1    
   220  111  232 1    
   221  111  233 1    
   222  111  234 1    
   223  112  113 2    
   224  112  114 am   BACKBONE|DICT|INTERRES
   225  114  115 1    
   226  114  235 1    
   227  115  116 1    
   228  115  117 1    
   229  115  236 1    
   230  116  237 1    
   231  116  238 1    
   232  116  239 1    
   233  117  118 2    
   234  117  119 am   BACKBONE|DICT|INTERRES
   235  119  120 1    
   236  119  240 1    
   237  120  121 1    
   238  120  124 1    
   239  120  241 1    
   240  121  122 am   BACKBONE|DICT|INTERRES
   241  121  123 2    
   242  122  242 1    
   243  122  243 1    
   244  124  125 1    
   245  124  244 1    
   246  124  245 1    
   247  125  126 1    
   248  126  246 1    
   249  126  247 1    
@<TRIPOS>SUBSTRUCTURE
     1 UNK         1 GROUP             0       ****    0 ROOT    
