@<TRIPOS>MOLECULE
3R540
247   249    1
SMALL
USER_CHARGES


@<TRIPOS>ATOM
      1 CA          6.7139  -15.0877  -49.4019 C.3       0 UNK        -0.1800 
      2 C           5.5618  -16.0399  -49.0864 C.2       0 UNK         0.5000 
      3 O           5.8075  -17.1118  -48.5386 O.2       0 UNK        -0.5000 
      4 N           4.2990  -15.7149  -49.4021 N.am      1 UNK        -0.5000 
      5 CA          3.7886  -14.4922  -50.0446 C.3       1 UNK         0.1400 
      6 C6          4.3898  -14.2327  -51.4587 C.3       23 UNK        -0.0398 
      7 S7          3.1840  -13.5376  -52.6435 S.3       23 UNK        -0.2404 
      8 C8          2.5419  -15.0381  -53.4570 C.3       23 UNK        -0.0205 
      9 C9          1.7718  -15.9088  -52.4774 C.ar      23 UNK        -0.0193 
     10 C10         0.4746  -15.5545  -52.0962 C.ar      23 UNK        -0.1150 
     11 C11        -0.2078  -16.3061  -51.1383 C.ar      23 UNK        -0.0193 
     12 C12         0.4170  -17.4146  -50.5646 C.ar      23 UNK        -0.1150 
     13 C13         1.7094  -17.7964  -50.9442 C.ar      23 UNK        -0.0193 
     14 C14         2.3726  -17.0401  -51.9156 C.ar      23 UNK        -0.1150 
     15 C15         2.4099  -19.0163  -50.3397 C.3       23 UNK        -0.0205 
     16 S16         2.1417  -19.2430  -48.5450 S.3       23 UNK        -0.2404 
     17 C17         0.5260  -20.0902  -48.5174 C.3       23 UNK        -0.0398 
     18 CA          0.5665  -21.4863  -47.8576 C.3       11 UNK         0.1400 
     19 N           0.6771  -21.4197  -46.3981 N.am      11 UNK        -0.5000 
     20 C           0.7820  -22.4809  -45.5850 C.2       10 UNK         0.5000 
     21 O           0.8737  -23.6434  -45.9808 O.2       10 UNK        -0.5000 
     22 CA          0.7123  -22.2054  -44.0724 C.3       10 UNK         0.1400 
     23 CB          2.0559  -21.6818  -43.5438 C.3       10 UNK        -0.1800 
     24 N          -0.3635  -21.2767  -43.7187 N.am      10 UNK        -0.5000 
     25 C          -1.6681  -21.5245  -43.9095 C.2       9 UNK         0.5000 
     26 O          -2.1023  -22.5807  -44.3684 O.2       9 UNK        -0.5000 
     27 CA         -2.6567  -20.3947  -43.5685 C.3       9 UNK         0.1400 
     28 CB         -2.9198  -20.3385  -42.0566 C.3       9 UNK        -0.1800 
     29 N          -2.2146  -19.0838  -44.0443 N.am      9 UNK        -0.5000 
     30 C          -2.0162  -18.7692  -45.3329 C.2       8 UNK         0.5000 
     31 O          -2.2161  -19.5507  -46.2620 O.2       8 UNK        -0.5000 
     32 CA         -1.4258  -17.3756  -45.6241 C.3       8 UNK         0.1400 
     33 CB         -2.4913  -16.2772  -45.4919 C.3       8 UNK        -0.1800 
     34 N          -0.2916  -17.0580  -44.7549 N.am      8 UNK        -0.5000 
     35 C           0.8379  -17.7769  -44.6836 C.2       7 UNK         0.5000 
     36 O           1.0675  -18.7665  -45.3757 O.2       7 UNK        -0.5000 
     37 CA          1.8541  -17.3590  -43.6101 C.3       7 UNK         0.1400 
     38 CB          2.6759  -16.1458  -44.0684 C.3       7 UNK        -0.1800 
     39 N           1.1987  -17.0710  -42.3346 N.am      7 UNK        -0.5000 
     40 C           0.6255  -18.0024  -41.5582 C.2       6 UNK         0.5000 
     41 O           0.6283  -19.2055  -41.8171 O.2       6 UNK        -0.5000 
     42 CA         -0.1086  -17.5002  -40.3018 C.3       6 UNK         0.1400 
     43 CB          0.8783  -17.2949  -39.1430 C.3       6 UNK        -0.1800 
     44 N          -0.8428  -16.2572  -40.5401 N.am      6 UNK        -0.5000 
     45 C          -1.9022  -16.1466  -41.3542 C.2       5 UNK         0.5000 
     46 O          -2.4006  -17.0939  -41.9600 O.2       5 UNK        -0.5000 
     47 CA         -2.4695  -14.7308  -41.5626 C.3       5 UNK         0.1400 
     48 CB         -3.5246  -14.4093  -40.4939 C.3       5 UNK        -0.1800 
     49 N          -1.4372  -13.6905  -41.5569 N.am      5 UNK        -0.5000 
     50 C          -0.4495  -13.5969  -42.4565 C.2       4 UNK         0.5000 
     51 O          -0.2819  -14.4014  -43.3763 O.2       4 UNK        -0.5000 
     52 CA          0.5530  -12.4469  -42.2514 C.3       4 UNK         0.1400 
     53 CB          1.8259  -12.9693  -41.5668 C.3       4 UNK        -0.1800 
     54 N           0.9236  -11.7965  -43.5071 N.am      4 UNK        -0.5000 
     55 C           0.0881  -11.1126  -44.3016 C.2       3 UNK         0.5000 
     56 O          -1.1019  -10.9292  -44.0400 O.2       3 UNK        -0.5000 
     57 CA          0.6770  -10.4956  -45.5881 C.3       3 UNK         0.1400 
     58 CB          0.7307   -8.9634  -45.4732 C.3       3 UNK        -0.1800 
     59 N           2.0183  -10.9844  -45.9234 N.am      3 UNK        -0.5000 
     60 C           2.2756  -12.1737  -46.4796 C.2       2 UNK         0.5000 
     61 O           1.4068  -13.0073  -46.7459 O.2       2 UNK        -0.5000 
     62 CA          3.7585  -12.4855  -46.7535 C.3       2 UNK         0.1400 
     63 CB          4.4551  -12.9883  -45.4795 C.3       2 UNK        -0.1800 
     64 N           3.8913  -13.4999  -47.7965 N.am      2 UNK        -0.5000 
     65 C           3.7971  -13.2581  -49.1108 C.2       1 UNK         0.5000 
     66 O           3.7139  -12.1228  -49.5817 O.2       1 UNK        -0.5000 
     67 C          -0.6672  -22.2975  -48.2939 C.2       11 UNK         0.5000 
     68 O          -0.5252  -23.2094  -49.1067 O.2       11 UNK        -0.5000 
     69 N          -1.8424  -21.9697  -47.7377 N.am      12 UNK        -0.5000 
     70 CA         -3.1075  -22.6425  -48.0295 C.3       12 UNK         0.1400 
     71 CB         -4.2608  -21.9182  -47.3225 C.3       12 UNK        -0.1800 
     72 C          -3.0915  -24.1359  -47.6670 C.2       12 UNK         0.5000 
     73 O          -3.5855  -24.9446  -48.4508 O.2       12 UNK        -0.5000 
     74 N          -2.4928  -24.4814  -46.5196 N.am      13 UNK        -0.5000 
     75 CA         -2.2947  -25.8604  -46.0759 C.3       13 UNK         0.1400 
     76 CB         -1.7852  -25.8682  -44.6266 C.3       13 UNK        -0.1800 
     77 C          -1.3445  -26.6502  -46.9947 C.2       13 UNK         0.5000 
     78 O          -1.6515  -27.7909  -47.3423 O.2       13 UNK        -0.5000 
     79 N          -0.2226  -26.0287  -47.3842 N.am      14 UNK        -0.5000 
     80 CA          0.7876  -26.6191  -48.2635 C.3       14 UNK         0.1400 
     81 CB          2.0577  -25.7548  -48.2350 C.3       14 UNK        -0.1800 
     82 C           0.2928  -26.8072  -49.7090 C.2       14 UNK         0.5000 
     83 O           0.5321  -27.8593  -50.3029 O.2       14 UNK        -0.5000 
     84 N          -0.3869  -25.7869  -50.2465 N.am      15 UNK        -0.5000 
     85 CA         -0.9014  -25.7576  -51.6163 C.3       15 UNK         0.1400 
     86 CB         -1.0550  -24.2910  -52.0443 C.3       15 UNK        -0.1800 
     87 C          -2.2390  -26.5022  -51.7890 C.2       15 UNK         0.5000 
     88 O          -2.6470  -26.7335  -52.9275 O.2       15 UNK        -0.5000 
     89 N          -2.9024  -26.8342  -50.6715 N.am      16 UNK        -0.5000 
     90 CA         -4.2468  -27.4117  -50.5701 C.3       16 UNK         0.1400 
     91 CB         -4.2920  -28.8321  -51.1719 C.3       16 UNK        -0.1800 
     92 C          -5.3230  -26.4627  -51.1408 C.2       16 UNK         0.5000 
     93 O          -6.1873  -26.8912  -51.9076 O.2       16 UNK        -0.5000 
     94 N          -5.2270  -25.1844  -50.7425 N.am      17 UNK        -0.5000 
     95 CA         -6.0705  -24.0474  -51.1238 C.3       17 UNK         0.1400 
     96 CB         -7.4646  -24.1746  -50.4777 C.3       17 UNK        -0.1800 
     97 C          -6.1281  -23.8463  -52.6519 C.2       17 UNK         0.5000 
     98 O          -7.1915  -23.9797  -53.2618 O.2       17 UNK        -0.5000 
     99 N          -4.9642  -23.5488  -53.2457 N.am      18 UNK        -0.5000 
    100 CA        -4.7993  -23.3036  -54.6826 C.3       18 UNK         0.1400 
    101 CB        -3.3027  -23.2657  -55.0223 C.3       18 UNK        -0.1800 
    102 C         -5.4990  -22.0181  -55.1657 C.2       18 UNK         0.5000 
    103 O         -5.9165  -21.9473  -56.3224 O.2       18 UNK        -0.5000 
    104 N         -5.6400  -21.0458  -54.2616 N.am      19 UNK        -0.5000 
    105 CA        -6.4545  -19.8465  -54.4026 C.3       19 UNK         0.1400 
    106 CB        -5.6802  -18.7542  -55.1634 C.3       19 UNK        -0.1800 
    107 C         -6.8862  -19.4075  -52.9943 C.2       19 UNK         0.5000 
    108 O         -6.5064  -20.0538  -52.0124 O.2       19 UNK        -0.5000 
    109 N         -7.6864  -18.3359  -52.9191 N.am      20 UNK        -0.5000 
    110 CA        -8.2545  -17.7641  -51.6949 C.3       20 UNK         0.1400 
    111 CB        -9.1292  -16.5557  -52.0706 C.3       20 UNK        -0.1800 
    112 C         -7.1799  -17.3868  -50.6538 C.2       20 UNK         0.5000 
    113 O         -6.5805  -16.3149  -50.7502 O.2       20 UNK        -0.5000 
    114 N         -6.9524  -18.3051  -49.7041 N.am      21 UNK        -0.5000 
    115 CA        -5.9329  -18.2740  -48.6519 C.3       21 UNK         0.1400 
    116 CB        -6.2030  -17.1266  -47.6558 C.3       21 UNK        -0.1800 
    117 C         -4.4831  -18.2815  -49.1875 C.2       21 UNK         0.5000 
    118 O         -3.5970  -17.7384  -48.5287 O.2       21 UNK        -0.5000 
    119 N         -4.2588  -18.9101  -50.3496 N.am      22 UNK        -0.5000 
    120 CA        -2.9353  -19.0957  -50.9636 C.3       22 UNK         0.1400 
    121 C         -2.7161  -20.5697  -51.4040 C.2       22 UNK         0.5000 
    122 N         -1.4870  -20.9413  -51.7363 N.am      22 UNK        -0.7600 
    123 O         -3.6397  -21.3774  -51.4815 O.2       22 UNK        -0.5000 
    124 C124       -2.6678  -18.1350  -52.1564 C.3       23 UNK        -0.0398 
    125 S125       -2.9211  -16.3499  -51.8546 S.3       23 UNK        -0.2404 
    126 C126       -1.6006  -15.9016  -50.6780 C.3       23 UNK        -0.0205 
    127 H127        6.4775  -14.0546  -49.1538 H         1 UNK         0.0600 
    128 H128        6.9764  -15.1459  -50.4578 H         1 UNK         0.0600 
    129 H129        7.5976  -15.3628  -48.8258 H         1 UNK         0.0600 
    130 H130        3.5801  -16.3896  -49.1791 H         1 UNK         0.3000 
    131 H131        2.7271  -14.7046  -50.1728 H         1 UNK         0.0600 
    132 H132        5.2478  -13.5609  -51.4056 H         1 UNK         0.0800 
    133 H133        4.7742  -15.1596  -51.8855 H         1 UNK         0.0800 
    134 H134        3.3652  -15.5932  -53.9094 H         1 UNK         0.0800 
    135 H135        1.8844  -14.7442  -54.2764 H         1 UNK         0.0800 
    136 H136        0.0071  -14.6790  -52.5247 H         1 UNK         0.1150 
    137 H137       -0.1161  -17.9594  -49.8058 H         1 UNK         0.1150 
    138 H138        3.3750  -17.3137  -52.2141 H         1 UNK         0.1150 
    139 H139        2.1057  -19.9136  -50.8797 H         1 UNK         0.0800 
    140 H140        3.4871  -18.9276  -50.4905 H         1 UNK         0.0800 
    141 H141        0.1735  -20.1761  -49.5455 H         1 UNK         0.0800 
    142 H142       -0.1914  -19.4476  -48.0055 H         1 UNK         0.0800 
    143 H143        1.4452  -22.0184  -48.2284 H         1 UNK         0.0600 
    144 H144        0.6578  -20.4880  -45.9884 H         1 UNK         0.3000 
    145 H145        0.5039  -23.1548  -43.5750 H         1 UNK         0.0600 
    146 H146        2.0352  -21.5692  -42.4598 H         1 UNK         0.0600 
    147 H147        2.3118  -20.7143  -43.9754 H         1 UNK         0.0600 
    148 H148        2.8651  -22.3727  -43.7837 H         1 UNK         0.0600 
    149 H149       -0.0844  -20.3960  -43.2990 H         1 UNK         0.3000 
    150 H150       -3.6011  -20.6227  -44.0666 H         1 UNK         0.0600 
    151 H151       -3.2606  -21.3047  -41.6826 H         1 UNK         0.0600 
    152 H152       -3.6923  -19.6070  -41.8186 H         1 UNK         0.0600 
    153 H153       -2.0215  -20.0684  -41.5009 H         1 UNK         0.0600 
    154 H154       -2.0665  -18.3707  -43.3352 H         1 UNK         0.3000 
    155 H155       -1.0642  -17.3756  -46.6545 H         1 UNK         0.0600 
    156 H156       -2.9057  -16.2334  -44.4853 H         1 UNK         0.0600 
    157 H157       -3.3189  -16.4536  -46.1784 H         1 UNK         0.0600 
    158 H158       -2.0776  -15.2963  -45.7270 H         1 UNK         0.0600 
    159 H159       -0.3794  -16.2324  -44.1701 H         1 UNK         0.3000 
    160 H160        2.5430  -18.1927  -43.4574 H         1 UNK         0.0600 
    161 H161        2.0473  -15.2764  -44.2621 H         1 UNK         0.0600 
    162 H162        3.2122  -16.3707  -44.9913 H         1 UNK         0.0600 
    163 H163        3.4183  -15.8659  -43.3210 H         1 UNK         0.0600 
    164 H164        1.0998  -16.0993  -42.0830 H         1 UNK         0.3000 
    165 H165       -0.8274  -18.2677  -40.0069 H         1 UNK         0.0600 
    166 H166        0.3580  -17.0134  -38.2273 H         1 UNK         0.0600 
    167 H167        1.4292  -18.2128  -38.9333 H         1 UNK         0.0600 
    168 H168        1.6094  -16.5170  -39.3672 H         1 UNK         0.0600 
    169 H169       -0.5024  -15.4276  -40.0774 H         1 UNK         0.3000 
    170 H170       -2.9571  -14.7109  -42.5392 H         1 UNK         0.0600 
    171 H171       -4.3171  -15.1590  -40.4907 H         1 UNK         0.0600 
    172 H172       -3.0916  -14.3849  -39.4931 H         1 UNK         0.0600 
    173 H173       -3.9942  -13.4434  -40.6812 H         1 UNK         0.0600 
    174 H174       -1.5038  -12.9964  -40.8263 H         1 UNK         0.3000 
    175 H175        0.0976  -11.6921  -41.6070 H         1 UNK         0.0600 
    176 H176        2.3470  -13.6996  -42.1870 H         1 UNK         0.0600 
    177 H177        2.5203  -12.1565  -41.3533 H         1 UNK         0.0600 
    178 H178        1.5920  -13.4518  -40.6170 H         1 UNK         0.0600 
    179 H179        1.8766  -11.9140  -43.8135 H         1 UNK         0.3000 
    180 H180       -0.0003  -10.7497  -46.4064 H         1 UNK         0.0600 
    181 H181        1.0804   -8.5098  -46.4008 H         1 UNK         0.0600 
    182 H182        1.3955   -8.6431  -44.6699 H         1 UNK         0.0600 
    183 H183       -0.2573   -8.5503  -45.2654 H         1 UNK         0.0600 
    184 H184        2.7847  -10.3566  -45.7257 H         1 UNK         0.3000 
    185 H185        4.2547  -11.5690  -47.0803 H         1 UNK         0.0600 
    186 H186        5.5089  -13.1977  -45.6644 H         1 UNK         0.0600 
    187 H187        4.4087  -12.2437  -44.6840 H         1 UNK         0.0600 
    188 H188        3.9952  -13.9004  -45.1022 H         1 UNK         0.0600 
    189 H189        3.9109  -14.4615  -47.4902 H         1 UNK         0.3000 
    190 H190       -1.8865  -21.1842  -47.0913 H         1 UNK         0.3000 
    191 H191       -3.2742  -22.5719  -49.1053 H         1 UNK         0.0600 
    192 H192       -4.3087  -20.8735  -47.6260 H         1 UNK         0.0600 
    193 H193       -4.1484  -21.9453  -46.2383 H         1 UNK         0.0600 
    194 H194       -5.2199  -22.3754  -47.5688 H         1 UNK         0.0600 
    195 H195       -2.1554  -23.7492  -45.9002 H         1 UNK         0.3000 
    196 H196       -3.2657  -26.3596  -46.0950 H         1 UNK         0.0600 
    197 H197       -2.4998  -25.3902  -43.9563 H         1 UNK         0.0600 
    198 H198       -0.8350  -25.3417  -44.5304 H         1 UNK         0.0600 
    199 H199       -1.6353  -26.8877  -44.2695 H         1 UNK         0.0600 
    200 H200       -0.0271  -25.0968  -47.0302 H         1 UNK         0.3000 
    201 H201        1.0426  -27.6050  -47.8693 H         1 UNK         0.0600 
    202 H202        2.4689  -25.6935  -47.2273 H         1 UNK         0.0600 
    203 H203        1.8604  -24.7378  -48.5765 H         1 UNK         0.0600 
    204 H204        2.8324  -26.1745  -48.8779 H         1 UNK         0.0600 
    205 H205       -0.5040  -24.9321  -49.7041 H         1 UNK         0.3000 
    206 H206       -0.1709  -26.2298  -52.2765 H         1 UNK         0.0600 
    207 H207       -1.8457  -23.7952  -51.4793 H         1 UNK         0.0600 
    208 H208       -0.1279  -23.7378  -51.8922 H         1 UNK         0.0600 
    209 H209       -1.3029  -24.2194  -53.1021 H         1 UNK         0.0600 
    210 H210       -2.4905  -26.5533  -49.7913 H         1 UNK         0.3000 
    211 H211       -4.4566  -27.5035  -49.5034 H         1 UNK         0.0600 
    212 H212       -4.1497  -28.8234  -52.2527 H         1 UNK         0.0600 
    213 H213       -5.2538  -29.3067  -50.9745 H         1 UNK         0.0600 
    214 H214       -3.5211  -29.4680  -50.7367 H         1 UNK         0.0600 
    215 H215       -4.5010  -24.9806  -50.0593 H         1 UNK         0.3000 
    216 H216       -5.5995  -23.1553  -50.7077 H         1 UNK         0.0600 
    217 H217       -8.0764  -23.2993  -50.6994 H         1 UNK         0.0600 
    218 H218       -7.3888  -24.2517  -49.3930 H         1 UNK         0.0600 
    219 H219       -8.0023  -25.0516  -50.8394 H         1 UNK         0.0600 
    220 H220       -4.1521  -23.3993  -52.6630 H         1 UNK         0.3000 
    221 H221       -5.2487  -24.1405  -55.2211 H         1 UNK         0.0600 
    222 H222       -2.7749  -22.5123  -54.4360 H         1 UNK         0.0600 
    223 H223       -2.8389  -24.2340  -54.8356 H         1 UNK         0.0600 
    224 H224       -3.1450  -23.0332  -56.0763 H         1 UNK         0.0600 
    225 H225       -5.3122  -21.2087  -53.3149 H         1 UNK         0.3000 
    226 H226       -7.3614  -20.0972  -54.9567 H         1 UNK         0.0600 
    227 H227       -5.3829  -19.0999  -56.1535 H         1 UNK         0.0600 
    228 H228       -6.2898  -17.8620  -55.3077 H         1 UNK         0.0600 
    229 H229       -4.7787  -18.4523  -54.6353 H         1 UNK         0.0600 
    230 H230       -7.9311  -17.8606  -53.7753 H         1 UNK         0.3000 
    231 H231       -8.9092  -18.5180  -51.2527 H         1 UNK         0.0600 
    232 H232       -9.5654  -16.0987  -51.1814 H         1 UNK         0.0600 
    233 H233       -9.9534  -16.8512  -52.7200 H         1 UNK         0.0600 
    234 H234       -8.5546  -15.7857  -52.5870 H         1 UNK         0.0600 
    235 H235       -7.4632  -19.1746  -49.7739 H         1 UNK         0.3000 
    236 H236       -6.0489  -19.2089  -48.1027 H         1 UNK         0.0600 
    237 H237       -6.0080  -16.1503  -48.1005 H         1 UNK         0.0600 
    238 H238       -7.2360  -17.1385  -47.3086 H         1 UNK         0.0600 
    239 H239       -5.5667  -17.2178  -46.7751 H         1 UNK         0.0600 
    240 H240       -5.0271  -19.3776  -50.8221 H         1 UNK         0.3000 
    241 H241       -2.1760  -18.9138  -50.2031 H         1 UNK         0.0600 
    242 H242       -1.3357  -21.8940  -52.0223 H         1 UNK         0.3800 
    243 H243       -0.7159  -20.2949  -51.7505 H         1 UNK         0.3800 
    244 H244       -1.6533  -18.2652  -52.5353 H         1 UNK         0.0800 
    245 H245       -3.3197  -18.4058  -52.9844 H         1 UNK         0.0800 
    246 H246       -1.6266  -14.8221  -50.5242 H         1 UNK         0.0800 
    247 H247       -1.8193  -16.3414  -49.7055 H         1 UNK         0.0800 
@<TRIPOS>BOND
     1    1    2 1    
     2    1  127 1    
     3    1  128 1    
     4    1  129 1    
     5    2    3 2    
     6    2    4 am   BACKBONE|DICT|INTERRES
     7    4    5 1    
     8    4  130 1    
     9    5    6 1    
    10    5   65 1    
    11    5  131 1    
    12    6    7 1    
    13    6  132 1    
    14    6  133 1    
    15    7    8 1    
    16    8    9 1    
    17    8  134 1    
    18    8  135 1    
    19    9   10 ar   
    20    9   14 ar   
    21   10   11 ar   
    22   10  136 1    
    23   11   12 ar   
    24   11  126 1    
    25   12   13 ar   
    26   12  137 1    
    27   13   14 ar   
    28   13   15 1    
    29   14  138 1    
    30   15   16 1    
    31   15  139 1    
    32   15  140 1    
    33   16   17 1    
    34   17   18 1    
    35   17  141 1    
    36   17  142 1    
    37   18   19 1    
    38   18   67 1    
    39   18  143 1    
    40   19   20 am   BACKBONE|DICT|INTERRES
    41   19  144 1    
    42   20   21 2    
    43   20   22 1    
    44   22   23 1    
    45   22   24 1    
    46   22  145 1    
    47   23  146 1    
    48   23  147 1    
    49   23  148 1    
    50   24   25 am   BACKBONE|DICT|INTERRES
    51   24  149 1    
    52   25   26 2    
    53   25   27 1    
    54   27   28 1    
    55   27   29 1    
    56   27  150 1    
    57   28  151 1    
    58   28  152 1    
    59   28  153 1    
    60   29   30 am   BACKBONE|DICT|INTERRES
    61   29  154 1    
    62   30   31 2    
    63   30   32 1    
    64   32   33 1    
    65   32   34 1    
    66   32  155 1    
    67   33  156 1    
    68   33  157 1    
    69   33  158 1    
    70   34   35 am   BACKBONE|DICT|INTERRES
    71   34  159 1    
    72   35   36 2    
    73   35   37 1    
    74   37   38 1    
    75   37   39 1    
    76   37  160 1    
    77   38  161 1    
    78   38  162 1    
    79   38  163 1    
    80   39   40 am   BACKBONE|DICT|INTERRES
    81   39  164 1    
    82   40   41 2    
    83   40   42 1    
    84   42   43 1    
    85   42   44 1    
    86   42  165 1    
    87   43  166 1    
    88   43  167 1    
    89   43  168 1    
    90   44   45 am   BACKBONE|DICT|INTERRES
    91   44  169 1    
    92   45   46 2    
    93   45   47 1    
    94   47   48 1    
    95   47   49 1    
    96   47  170 1    
    97   48  171 1    
    98   48  172 1    
    99   48  173 1    
   100   49   50 am   BACKBONE|DICT|INTERRES
   101   49  174 1    
   102   50   51 2    
   103   50   52 1    
   104   52   53 1    
   105   52   54 1    
   106   52  175 1    
   107   53  176 1    
   108   53  177 1    
   109   53  178 1    
   110   54   55 am   BACKBONE|DICT|INTERRES
   111   54  179 1    
   112   55   56 2    
   113   55   57 1    
   114   57   58 1    
   115   57   59 1    
   116   57  180 1    
   117   58  181 1    
   118   58  182 1    
   119   58  183 1    
   120   59   60 am   BACKBONE|DICT|INTERRES
   121   59  184 1    
   122   60   61 2    
   123   60   62 1    
   124   62   63 1    
   125   62   64 1    
   126   62  185 1    
   127   63  186 1    
   128   63  187 1    
   129   63  188 1    
   130   64   65 am   BACKBONE|DICT|INTERRES
   131   64  189 1    
   132   65   66 2    
   133   67   68 2    
   134   67   69 am   BACKBONE|DICT|INTERRES
   135   69   70 1    
   136   69  190 1    
   137   70   71 1    
   138   70   72 1    
   139   70  191 1    
   140   71  192 1    
   141   71  193 1    
   142   71  194 1    
   143   72   73 2    
   144   72   74 am   BACKBONE|DICT|INTERRES
   145   74   75 1    
   146   74  195 1    
   147   75   76 1    
   148   75   77 1    
   149   75  196 1    
   150   76  197 1    
   151   76  198 1    
   152   76  199 1    
   153   77   78 2    
   154   77   79 am   BACKBONE|DICT|INTERRES
   155   79   80 1    
   156   79  200 1    
   157   80   81 1    
   158   80   82 1    
   159   80  201 1    
   160   81  202 1    
   161   81  203 1    
   162   81  204 1    
   163   82   83 2    
   164   82   84 am   BACKBONE|DICT|INTERRES
   165   84   85 1    
   166   84  205 1    
   167   85   86 1    
   168   85   87 1    
   169   85  206 1    
   170   86  207 1    
   171   86  208 1    
   172   86  209 1    
   173   87   88 2    
   174   87   89 am   BACKBONE|DICT|INTERRES
   175   89   90 1    
   176   89  210 1    
   177   90   91 1    
   178   90   92 1    
   179   90  211 1    
   180   91  212 1    
   181   91  213 1    
   182   91  214 1    
   183   92   93 2    
   184   92   94 am   BACKBONE|DICT|INTERRES
   185   94   95 1    
   186   94  215 1    
   187   95   96 1    
   188   95   97 1    
   189   95  216 1    
   190   96  217 1    
   191   96  218 1    
   192   96  219 1    
   193   97   98 2    
   194   97   99 am   BACKBONE|DICT|INTERRES
   195   99  100 1    
   196   99  220 1    
   197  100  101 1    
   198  100  102 1    
   199  100  221 1    
   200  101  222 1    
   201  101  223 1    
   202  101  224 1    
   203  102  103 2    
   204  102  104 am   BACKBONE|DICT|INTERRES
   205  104  105 1    
   206  104  225 1    
   207  105  106 1    
   208  105  107 1    
   209  105  226 1    
   210  106  227 1    
   211  106  228 1    
   212  106  229 1    
   213  107  108 2    
   214  107  109 am   BACKBONE|DICT|INTERRES
   215  109  110 1    
   216  109  230 1    
   217  110  111 1    
   218  110  112 1    
   219  110  231 1    
   220  111  232 1    
   221  111  233 1    
   222  111  234 1    
   223  112  113 2    
   224  112  114 am   BACKBONE|DICT|INTERRES
   225  114  115 1    
   226  114  235 1    
   227  115  116 1    
   228  115  117 1    
   229  115  236 1    
   230  116  237 1    
   231  116  238 1    
   232  116  239 1    
   233  117  118 2    
   234  117  119 am   BACKBONE|DICT|INTERRES
   235  119  120 1    
   236  119  240 1    
   237  120  121 1    
   238  120  124 1    
   239  120  241 1    
   240  121  122 am   BACKBONE|DICT|INTERRES
   241  121  123 2    
   242  122  242 1    
   243  122  243 1    
   244  124  125 1    
   245  124  244 1    
   246  124  245 1    
   247  125  126 1    
   248  126  246 1    
   249  126  247 1    
@<TRIPOS>SUBSTRUCTURE
     1 UNK         1 GROUP             0       ****    0 ROOT    
