@<TRIPOS>MOLECULE
3R540
247   249    1
SMALL
USER_CHARGES


@<TRIPOS>ATOM
      1 CA          0.5152  -12.6900  -53.8982 C.3       0 UNK        -0.1800 
      2 C           0.9351  -12.9721  -52.4624 C.2       0 UNK         0.5000 
      3 O           1.3850  -12.0581  -51.7712 O.2       0 UNK        -0.5000 
      4 N           0.8014  -14.2294  -52.0188 N.am      1 UNK        -0.5000 
      5 CA          1.1102  -14.6756  -50.6547 C.3       1 UNK         0.1400 
      6 C6          1.1770  -16.2215  -50.5524 C.3       23 UNK        -0.0398 
      7 S7          2.1520  -16.7918  -49.1156 S.3       23 UNK        -0.2404 
      8 C8          3.6316  -17.5041  -49.9067 C.3       23 UNK        -0.0205 
      9 C9          3.3682  -18.9165  -50.4070 C.ar      23 UNK        -0.0193 
     10 C10         2.9227  -19.1337  -51.7123 C.ar      23 UNK        -0.1150 
     11 C11         2.6128  -20.4223  -52.1541 C.ar      23 UNK        -0.0193 
     12 C12         2.7984  -21.5061  -51.2904 C.ar      23 UNK        -0.1150 
     13 C13         3.2851  -21.3111  -49.9934 C.ar      23 UNK        -0.0193 
     14 C14         3.5657  -20.0097  -49.5597 C.ar      23 UNK        -0.1150 
     15 C15         3.5157  -22.5180  -49.0849 C.3       23 UNK        -0.0205 
     16 S16         3.0307  -22.2446  -47.3465 S.3       23 UNK        -0.2404 
     17 C17         1.2597  -21.8584  -47.5263 C.3       23 UNK        -0.0398 
     18 CA          0.3603  -22.8189  -46.7235 C.3       11 UNK         0.1400 
     19 N           0.6361  -22.7561  -45.2886 N.am      11 UNK        -0.5000 
     20 C           0.1555  -23.5724  -44.3435 C.2       10 UNK         0.5000 
     21 O          -0.5887  -24.5241  -44.5927 O.2       10 UNK        -0.5000 
     22 CA          0.4931  -23.2139  -42.8796 C.3       10 UNK         0.1400 
     23 CB          0.9863  -24.4349  -42.0788 C.3       10 UNK        -0.1800 
     24 N           1.3937  -22.0561  -42.7474 N.am      10 UNK        -0.5000 
     25 C           2.7062  -21.9775  -43.0192 C.2       9 UNK         0.5000 
     26 O           3.4020  -22.9412  -43.3377 O.2       9 UNK        -0.5000 
     27 CA          3.3480  -20.5742  -42.9787 C.3       9 UNK         0.1400 
     28 CB          3.6197  -20.0706  -44.4051 C.3       9 UNK        -0.1800 
     29 N           2.5359  -19.5719  -42.2870 N.am      9 UNK        -0.5000 
     30 C           2.4120  -19.4719  -40.9569 C.2       8 UNK         0.5000 
     31 O           2.9788  -20.2168  -40.1569 O.2       8 UNK        -0.5000 
     32 CA          1.4766  -18.3651  -40.4390 C.3       8 UNK         0.1400 
     33 CB          2.1987  -17.0094  -40.3967 C.3       8 UNK        -0.1800 
     34 N           0.2680  -18.2471  -41.2549 N.am      8 UNK        -0.5000 
     35 C          -0.7486  -19.1202  -41.2312 C.2       7 UNK         0.5000 
     36 O          -0.7908  -20.1024  -40.4905 O.2       7 UNK        -0.5000 
     37 CA         -1.8999  -18.8705  -42.2214 C.3       7 UNK         0.1400 
     38 CB         -2.9613  -17.9540  -41.5968 C.3       7 UNK        -0.1800 
     39 N          -1.4368  -18.3043  -43.4907 N.am      7 UNK        -0.5000 
     40 C          -0.7291  -19.0001  -44.3913 C.2       6 UNK         0.5000 
     41 O          -0.4399  -20.1881  -44.2524 O.2       6 UNK        -0.5000 
     42 CA         -0.2546  -18.2682  -45.6560 C.3       6 UNK         0.1400 
     43 CB         -1.3230  -18.3324  -46.7521 C.3       6 UNK        -0.1800 
     44 N           0.1287  -16.8774  -45.4343 N.am      6 UNK        -0.5000 
     45 C           1.1459  -16.4870  -44.6539 C.2       5 UNK         0.5000 
     46 O           1.7975  -17.2549  -43.9448 O.2       5 UNK        -0.5000 
     47 CA          1.4814  -14.9894  -44.6593 C.3       5 UNK         0.1400 
     48 CB          2.2635  -14.6188  -45.9268 C.3       5 UNK        -0.1800 
     49 N           0.2646  -14.1842  -44.5823 N.am      5 UNK        -0.5000 
     50 C          -0.2854  -13.7740  -43.4321 C.2       4 UNK         0.5000 
     51 O           0.2154  -13.9685  -42.3238 O.2       4 UNK        -0.5000 
     52 CA         -1.6358  -13.0383  -43.5304 C.3       4 UNK         0.1400 
     53 CB         -1.4165  -11.5368  -43.7702 C.3       4 UNK        -0.1800 
     54 N          -2.5227  -13.5657  -44.5695 N.am      4 UNK        -0.5000 
     55 C          -2.9959  -14.8189  -44.6110 C.2       3 UNK         0.5000 
     56 O          -2.7092  -15.6901  -43.7918 O.2       3 UNK        -0.5000 
     57 CA         -3.9182  -15.1750  -45.7899 C.3       3 UNK         0.1400 
     58 CB         -5.3815  -14.8679  -45.4411 C.3       3 UNK        -0.1800 
     59 N          -3.5764  -14.5156  -47.0543 N.am      3 UNK        -0.5000 
     60 C          -2.3938  -14.5950  -47.6808 C.2       2 UNK         0.5000 
     61 O          -1.4128  -15.1708  -47.2042 O.2       2 UNK        -0.5000 
     62 CA         -2.3376  -13.9233  -49.0687 C.3       2 UNK         0.1400 
     63 CB         -2.4393  -12.3883  -48.9590 C.3       2 UNK        -0.1800 
     64 N          -1.1772  -14.3212  -49.8722 N.am      2 UNK        -0.5000 
     65 C           0.1204  -14.0677  -49.6388 C.2       1 UNK         0.5000 
     66 O           0.5436  -13.3635  -48.7207 O.2       1 UNK        -0.5000 
     67 C          -1.1238  -22.5669  -47.0520 C.2       11 UNK         0.5000 
     68 O          -1.5784  -22.9971  -48.1106 O.2       11 UNK        -0.5000 
     69 N          -1.8679  -21.9226  -46.1410 N.am      12 UNK        -0.5000 
     70 CA         -3.3234  -21.7687  -46.2033 C.3       12 UNK         0.1400 
     71 CB         -3.7984  -20.9203  -45.0146 C.3       12 UNK        -0.1800 
     72 C          -4.0721  -23.1149  -46.2204 C.2       12 UNK         0.5000 
     73 O          -5.1215  -23.2110  -46.8553 O.2       12 UNK        -0.5000 
     74 N          -3.5057  -24.1254  -45.5480 N.am      13 UNK        -0.5000 
     75 CA         -4.0005  -25.4977  -45.5500 C.3       13 UNK         0.1400 
     76 CB         -3.8424  -26.0943  -44.1421 C.3       13 UNK        -0.1800 
     77 C          -3.2507  -26.3487  -46.5869 C.2       13 UNK         0.5000 
     78 O          -3.8885  -27.0891  -47.3355 O.2       13 UNK        -0.5000 
     79 N          -1.9134  -26.2437  -46.6042 N.am      14 UNK        -0.5000 
     80 CA         -1.0402  -27.1259  -47.3816 C.3       14 UNK         0.1400 
     81 CB          0.3862  -27.0547  -46.8144 C.3       14 UNK        -0.1800 
     82 C          -1.0356  -26.8591  -48.8994 C.2       14 UNK         0.5000 
     83 O          -0.8347  -27.8040  -49.6639 O.2       14 UNK        -0.5000 
     84 N          -1.2321  -25.5999  -49.3124 N.am      15 UNK        -0.5000 
     85 CA         -1.1391  -25.1618  -50.7102 C.3       15 UNK         0.1400 
     86 CB          0.1517  -24.3386  -50.8770 C.3       15 UNK        -0.1800 
     87 C          -2.3626  -24.3492  -51.1745 C.2       15 UNK         0.5000 
     88 O          -2.4233  -23.9924  -52.3508 O.2       15 UNK        -0.5000 
     89 N          -3.2946  -24.0493  -50.2553 N.am      16 UNK        -0.5000 
     90 CA         -4.4344  -23.1350  -50.4126 C.3       16 UNK         0.1400 
     91 CB         -5.4388  -23.6629  -51.4586 C.3       16 UNK        -0.1800 
     92 C          -3.9981  -21.6777  -50.6851 C.2       16 UNK         0.5000 
     93 O          -4.7200  -20.9291  -51.3440 O.2       16 UNK        -0.5000 
     94 N          -2.8243  -21.2899  -50.1642 N.am      17 UNK        -0.5000 
     95 CA         -2.1369  -20.0330  -50.4797 C.3       17 UNK         0.1400 
     96 CB         -0.6786  -20.1257  -50.0107 C.3       17 UNK        -0.1800 
     97 C          -2.8058  -18.7562  -49.9308 C.2       17 UNK         0.5000 
     98 O          -2.3420  -17.6521  -50.2221 O.2       17 UNK        -0.5000 
     99 N          -3.8821  -18.9096  -49.1488 N.am      18 UNK        -0.5000 
    100 CA        -4.6933  -17.8354  -48.5782 C.3       18 UNK         0.1400 
    101 CB        -5.4562  -18.3846  -47.3606 C.3       18 UNK        -0.1800 
    102 C         -5.6200  -17.1779  -49.6241 C.2       18 UNK         0.5000 
    103 O         -6.8333  -17.1154  -49.4273 O.2       18 UNK        -0.5000 
    104 N         -5.0212  -16.7221  -50.7314 N.am      19 UNK        -0.5000 
    105 CA        -5.6027  -16.0183  -51.8804 C.3       19 UNK         0.1400 
    106 CB        -6.2759  -14.7028  -51.4393 C.3       19 UNK        -0.1800 
    107 C         -6.5279  -16.8596  -52.7872 C.2       19 UNK         0.5000 
    108 O         -6.8978  -16.3757  -53.8584 O.2       19 UNK        -0.5000 
    109 N         -6.8671  -18.0956  -52.3922 N.am      20 UNK        -0.5000 
    110 CA        -7.5701  -19.0672  -53.2366 C.3       20 UNK         0.1400 
    111 CB        -8.1103  -20.2142  -52.3686 C.3       20 UNK        -0.1800 
    112 C         -6.6479  -19.5904  -54.3539 C.2       20 UNK         0.5000 
    113 O         -7.0537  -19.6531  -55.5151 O.2       20 UNK        -0.5000 
    114 N         -5.4033  -19.8864  -53.9743 N.am      21 UNK        -0.5000 
    115 CA        -4.2439  -20.0566  -54.8370 C.3       21 UNK         0.1400 
    116 CB        -3.7697  -21.5168  -54.7460 C.3       21 UNK        -0.1800 
    117 C         -3.1508  -19.0883  -54.3492 C.2       21 UNK         0.5000 
    118 O         -3.3130  -18.4490  -53.3056 O.2       21 UNK        -0.5000 
    119 N         -2.0496  -19.0061  -55.1055 N.am      22 UNK        -0.5000 
    120 CA        -0.8322  -18.2443  -54.7620 C.3       22 UNK         0.1400 
    121 C         -1.0357  -16.7001  -54.6595 C.2       22 UNK         0.5000 
    122 N         -1.9990  -16.1200  -55.3640 N.am      22 UNK        -0.7600 
    123 O         -0.3101  -16.0156  -53.9424 O.2       22 UNK        -0.5000 
    124 C124       -0.0886  -18.8124  -53.5202 C.3       23 UNK        -0.0398 
    125 S125        0.2644  -20.6048  -53.6235 S.3       23 UNK        -0.2404 
    126 C126        2.0854  -20.6458  -53.5648 C.3       23 UNK        -0.0205 
    127 H127       -0.4945  -12.2801  -53.9203 H         1 UNK         0.0600 
    128 H128        1.1892  -11.9648  -54.3547 H         1 UNK         0.0600 
    129 H129        0.5350  -13.5921  -54.5089 H         1 UNK         0.0600 
    130 H130        0.4156  -14.9289  -52.6519 H         1 UNK         0.3000 
    131 H131        2.1027  -14.2849  -50.4185 H         1 UNK         0.0600 
    132 H132        0.1827  -16.6677  -50.5034 H         1 UNK         0.0800 
    133 H133        1.6260  -16.6207  -51.4597 H         1 UNK         0.0800 
    134 H134        3.9687  -16.8605  -50.7206 H         1 UNK         0.0800 
    135 H135        4.4432  -17.5198  -49.1777 H         1 UNK         0.0800 
    136 H136        2.8094  -18.2954  -52.3821 H         1 UNK         0.1150 
    137 H137        2.5684  -22.5047  -51.6344 H         1 UNK         0.1150 
    138 H138        3.9313  -19.8422  -48.5565 H         1 UNK         0.1150 
    139 H139        2.9749  -23.3885  -49.4598 H         1 UNK         0.0800 
    140 H140        4.5748  -22.7759  -49.1149 H         1 UNK         0.0800 
    141 H141        1.0043  -21.9096  -48.5840 H         1 UNK         0.0800 
    142 H142        1.1018  -20.8236  -47.2202 H         1 UNK         0.0800 
    143 H143        0.5802  -23.8335  -47.0547 H         1 UNK         0.0600 
    144 H144        1.1973  -21.9769  -44.9793 H         1 UNK         0.3000 
    145 H145       -0.4496  -22.8945  -42.4332 H         1 UNK         0.0600 
    146 H146        1.2276  -24.1624  -41.0515 H         1 UNK         0.0600 
    147 H147        0.2171  -25.2070  -42.0379 H         1 UNK         0.0600 
    148 H148        1.8713  -24.8876  -42.5260 H         1 UNK         0.0600 
    149 H149        0.9243  -21.1835  -42.5433 H         1 UNK         0.3000 
    150 H150        4.3048  -20.6651  -42.4605 H         1 UNK         0.0600 
    151 H151        4.2713  -20.7578  -44.9459 H         1 UNK         0.0600 
    152 H152        4.1139  -19.0989  -44.3935 H         1 UNK         0.0600 
    153 H153        2.6977  -19.9681  -44.9787 H         1 UNK         0.0600 
    154 H154        2.0894  -18.8692  -42.8697 H         1 UNK         0.3000 
    155 H155        1.1828  -18.6234  -39.4193 H         1 UNK         0.0600 
    156 H156        2.5178  -16.6873  -41.3884 H         1 UNK         0.0600 
    157 H157        3.0879  -17.0615  -39.7673 H         1 UNK         0.0600 
    158 H158        1.5542  -16.2323  -39.9855 H         1 UNK         0.0600 
    159 H159        0.2410  -17.4901  -41.9231 H         1 UNK         0.3000 
    160 H160       -2.3704  -19.8338  -42.4284 H         1 UNK         0.0600 
    161 H161       -3.8086  -17.8182  -42.2691 H         1 UNK         0.0600 
    162 H162       -2.5554  -16.9686  -41.3645 H         1 UNK         0.0600 
    163 H163       -3.3468  -18.3780  -40.6689 H         1 UNK         0.0600 
    164 H164       -1.6810  -17.3348  -43.6753 H         1 UNK         0.3000 
    165 H165        0.6317  -18.7907  -46.0197 H         1 UNK         0.0600 
    166 H166       -0.9583  -17.8868  -47.6780 H         1 UNK         0.0600 
    167 H167       -1.6046  -19.3595  -46.9741 H         1 UNK         0.0600 
    168 H168       -2.2287  -17.8040  -46.4602 H         1 UNK         0.0600 
    169 H169       -0.3591  -16.1859  -45.9984 H         1 UNK         0.3000 
    170 H170        2.1229  -14.7833  -43.7998 H         1 UNK         0.0600 
    171 H171        3.1876  -15.1937  -45.9988 H         1 UNK         0.0600 
    172 H172        1.6831  -14.8199  -46.8269 H         1 UNK         0.0600 
    173 H173        2.5327  -13.5627  -45.9316 H         1 UNK         0.0600 
    174 H174       -0.2325  -14.0238  -45.4486 H         1 UNK         0.3000 
    175 H175       -2.1445  -13.1599  -42.5717 H         1 UNK         0.0600 
    176 H176       -2.3597  -10.9908  -43.7453 H         1 UNK         0.0600 
    177 H177       -0.7739  -11.1080  -43.0000 H         1 UNK         0.0600 
    178 H178       -0.9436  -11.3482  -44.7349 H         1 UNK         0.0600 
    179 H179       -2.7999  -12.9260  -45.2989 H         1 UNK         0.3000 
    180 H180       -3.8335  -16.2504  -45.9454 H         1 UNK         0.0600 
    181 H181       -5.5431  -13.8003  -45.2875 H         1 UNK         0.0600 
    182 H182       -5.6804  -15.3805  -44.5256 H         1 UNK         0.0600 
    183 H183       -6.0556  -15.1987  -46.2314 H         1 UNK         0.0600 
    184 H184       -4.3240  -14.0006  -47.4965 H         1 UNK         0.3000 
    185 H185       -3.2070  -14.2782  -49.6241 H         1 UNK         0.0600 
    186 H186       -1.6548  -11.9706  -48.3274 H         1 UNK         0.0600 
    187 H187       -2.3647  -11.9178  -49.9396 H         1 UNK         0.0600 
    188 H188       -3.3945  -12.0853  -48.5295 H         1 UNK         0.0600 
    189 H189       -1.3929  -14.9283  -50.6501 H         1 UNK         0.3000 
    190 H190       -1.4028  -21.5522  -45.3179 H         1 UNK         0.3000 
    191 H191       -3.5679  -21.2407  -47.1268 H         1 UNK         0.0600 
    192 H192       -3.5109  -21.3670  -44.0622 H         1 UNK         0.0600 
    193 H193       -4.8844  -20.8180  -45.0144 H         1 UNK         0.0600 
    194 H194       -3.3839  -19.9148  -45.0529 H         1 UNK         0.0600 
    195 H195       -2.6233  -23.9667  -45.0783 H         1 UNK         0.3000 
    196 H196       -5.0630  -25.5166  -45.8024 H         1 UNK         0.0600 
    197 H197       -4.2031  -27.1232  -44.1116 H         1 UNK         0.0600 
    198 H198       -4.4168  -25.5271  -43.4096 H         1 UNK         0.0600 
    199 H199       -2.8014  -26.1011  -43.8165 H         1 UNK         0.0600 
    200 H200       -1.4586  -25.6353  -45.9299 H         1 UNK         0.3000 
    201 H201       -1.3946  -28.1493  -47.2395 H         1 UNK         0.0600 
    202 H202        0.4018  -27.3005  -45.7524 H         1 UNK         0.0600 
    203 H203        0.8239  -26.0652  -46.9340 H         1 UNK         0.0600 
    204 H204        1.0423  -27.7637  -47.3210 H         1 UNK         0.0600 
    205 H205       -1.3797  -24.8659  -48.6285 H         1 UNK         0.3000 
    206 H206       -1.0809  -26.0222  -51.3794 H         1 UNK         0.0600 
    207 H207        1.0310  -24.9254  -50.6118 H         1 UNK         0.0600 
    208 H208        0.2808  -24.0092  -51.9089 H         1 UNK         0.0600 
    209 H209        0.1422  -23.4476  -50.2500 H         1 UNK         0.0600 
    210 H210       -3.1382  -24.3831  -49.3156 H         1 UNK         0.3000 
    211 H211       -4.9478  -23.1198  -49.4523 H         1 UNK         0.0600 
    212 H212       -5.0391  -23.6084  -52.4715 H         1 UNK         0.0600 
    213 H213       -6.3596  -23.0791  -51.4433 H         1 UNK         0.0600 
    214 H214       -5.7096  -24.6993  -51.2582 H         1 UNK         0.0600 
    215 H215       -2.3137  -21.9555  -49.5924 H         1 UNK         0.3000 
    216 H216       -2.1325  -19.9480  -51.5649 H         1 UNK         0.0600 
    217 H217       -0.1121  -19.2351  -50.2852 H         1 UNK         0.0600 
    218 H218       -0.1729  -20.9768  -50.4661 H         1 UNK         0.0600 
    219 H219       -0.6181  -20.2261  -48.9297 H         1 UNK         0.0600 
    220 H220       -4.2288  -19.8482  -49.0246 H         1 UNK         0.3000 
    221 H221       -4.0205  -17.0553  -48.2229 H         1 UNK         0.0600 
    222 H222       -6.1055  -19.2175  -47.6327 H         1 UNK         0.0600 
    223 H223       -4.7662  -18.7304  -46.5933 H         1 UNK         0.0600 
    224 H224       -6.0804  -17.6158  -46.9043 H         1 UNK         0.0600 
    225 H225       -4.0238  -16.9073  -50.8070 H         1 UNK         0.3000 
    226 H226       -4.7502  -15.7514  -52.5072 H         1 UNK         0.0600 
    227 H227       -5.5959  -14.0889  -50.8488 H         1 UNK         0.0600 
    228 H228       -6.5773  -14.1101  -52.3037 H         1 UNK         0.0600 
    229 H229       -7.1710  -14.8832  -50.8437 H         1 UNK         0.0600 
    230 H230       -6.5382  -18.4176  -51.4939 H         1 UNK         0.3000 
    231 H231       -8.4209  -18.5691  -53.7065 H         1 UNK         0.0600 
    232 H232       -8.8135  -19.8443  -51.6223 H         1 UNK         0.0600 
    233 H233       -7.3121  -20.7382  -51.8437 H         1 UNK         0.0600 
    234 H234       -8.6385  -20.9481  -52.9785 H         1 UNK         0.0600 
    235 H235       -5.1687  -19.8169  -52.9884 H         1 UNK         0.3000 
    236 H236       -4.4911  -19.8098  -55.8713 H         1 UNK         0.0600 
    237 H237       -2.9382  -21.7068  -55.4252 H         1 UNK         0.0600 
    238 H238       -3.4318  -21.7666  -53.7396 H         1 UNK         0.0600 
    239 H239       -4.5695  -22.2089  -55.0097 H         1 UNK         0.0600 
    240 H240       -1.9955  -19.5536  -55.9520 H         1 UNK         0.3000 
    241 H241       -0.1620  -18.3723  -55.6124 H         1 UNK         0.0600 
    242 H242       -2.6054  -16.6674  -55.9530 H         1 UNK         0.3800 
    243 H243       -2.1273  -15.1233  -55.2998 H         1 UNK         0.3800 
    244 H244       -0.6580  -18.6127  -52.6140 H         1 UNK         0.0800 
    245 H245        0.8506  -18.2782  -53.3948 H         1 UNK         0.0800 
    246 H246        2.4966  -19.9048  -54.2520 H         1 UNK         0.0800 
    247 H247        2.4233  -21.6163  -53.9310 H         1 UNK         0.0800 
@<TRIPOS>BOND
     1    1    2 1    
     2    1  127 1    
     3    1  128 1    
     4    1  129 1    
     5    2    3 2    
     6    2    4 am   BACKBONE|DICT|INTERRES
     7    4    5 1    
     8    4  130 1    
     9    5    6 1    
    10    5   65 1    
    11    5  131 1    
    12    6    7 1    
    13    6  132 1    
    14    6  133 1    
    15    7    8 1    
    16    8    9 1    
    17    8  134 1    
    18    8  135 1    
    19    9   10 ar   
    20    9   14 ar   
    21   10   11 ar   
    22   10  136 1    
    23   11   12 ar   
    24   11  126 1    
    25   12   13 ar   
    26   12  137 1    
    27   13   14 ar   
    28   13   15 1    
    29   14  138 1    
    30   15   16 1    
    31   15  139 1    
    32   15  140 1    
    33   16   17 1    
    34   17   18 1    
    35   17  141 1    
    36   17  142 1    
    37   18   19 1    
    38   18   67 1    
    39   18  143 1    
    40   19   20 am   BACKBONE|DICT|INTERRES
    41   19  144 1    
    42   20   21 2    
    43   20   22 1    
    44   22   23 1    
    45   22   24 1    
    46   22  145 1    
    47   23  146 1    
    48   23  147 1    
    49   23  148 1    
    50   24   25 am   BACKBONE|DICT|INTERRES
    51   24  149 1    
    52   25   26 2    
    53   25   27 1    
    54   27   28 1    
    55   27   29 1    
    56   27  150 1    
    57   28  151 1    
    58   28  152 1    
    59   28  153 1    
    60   29   30 am   BACKBONE|DICT|INTERRES
    61   29  154 1    
    62   30   31 2    
    63   30   32 1    
    64   32   33 1    
    65   32   34 1    
    66   32  155 1    
    67   33  156 1    
    68   33  157 1    
    69   33  158 1    
    70   34   35 am   BACKBONE|DICT|INTERRES
    71   34  159 1    
    72   35   36 2    
    73   35   37 1    
    74   37   38 1    
    75   37   39 1    
    76   37  160 1    
    77   38  161 1    
    78   38  162 1    
    79   38  163 1    
    80   39   40 am   BACKBONE|DICT|INTERRES
    81   39  164 1    
    82   40   41 2    
    83   40   42 1    
    84   42   43 1    
    85   42   44 1    
    86   42  165 1    
    87   43  166 1    
    88   43  167 1    
    89   43  168 1    
    90   44   45 am   BACKBONE|DICT|INTERRES
    91   44  169 1    
    92   45   46 2    
    93   45   47 1    
    94   47   48 1    
    95   47   49 1    
    96   47  170 1    
    97   48  171 1    
    98   48  172 1    
    99   48  173 1    
   100   49   50 am   BACKBONE|DICT|INTERRES
   101   49  174 1    
   102   50   51 2    
   103   50   52 1    
   104   52   53 1    
   105   52   54 1    
   106   52  175 1    
   107   53  176 1    
   108   53  177 1    
   109   53  178 1    
   110   54   55 am   BACKBONE|DICT|INTERRES
   111   54  179 1    
   112   55   56 2    
   113   55   57 1    
   114   57   58 1    
   115   57   59 1    
   116   57  180 1    
   117   58  181 1    
   118   58  182 1    
   119   58  183 1    
   120   59   60 am   BACKBONE|DICT|INTERRES
   121   59  184 1    
   122   60   61 2    
   123   60   62 1    
   124   62   63 1    
   125   62   64 1    
   126   62  185 1    
   127   63  186 1    
   128   63  187 1    
   129   63  188 1    
   130   64   65 am   BACKBONE|DICT|INTERRES
   131   64  189 1    
   132   65   66 2    
   133   67   68 2    
   134   67   69 am   BACKBONE|DICT|INTERRES
   135   69   70 1    
   136   69  190 1    
   137   70   71 1    
   138   70   72 1    
   139   70  191 1    
   140   71  192 1    
   141   71  193 1    
   142   71  194 1    
   143   72   73 2    
   144   72   74 am   BACKBONE|DICT|INTERRES
   145   74   75 1    
   146   74  195 1    
   147   75   76 1    
   148   75   77 1    
   149   75  196 1    
   150   76  197 1    
   151   76  198 1    
   152   76  199 1    
   153   77   78 2    
   154   77   79 am   BACKBONE|DICT|INTERRES
   155   79   80 1    
   156   79  200 1    
   157   80   81 1    
   158   80   82 1    
   159   80  201 1    
   160   81  202 1    
   161   81  203 1    
   162   81  204 1    
   163   82   83 2    
   164   82   84 am   BACKBONE|DICT|INTERRES
   165   84   85 1    
   166   84  205 1    
   167   85   86 1    
   168   85   87 1    
   169   85  206 1    
   170   86  207 1    
   171   86  208 1    
   172   86  209 1    
   173   87   88 2    
   174   87   89 am   BACKBONE|DICT|INTERRES
   175   89   90 1    
   176   89  210 1    
   177   90   91 1    
   178   90   92 1    
   179   90  211 1    
   180   91  212 1    
   181   91  213 1    
   182   91  214 1    
   183   92   93 2    
   184   92   94 am   BACKBONE|DICT|INTERRES
   185   94   95 1    
   186   94  215 1    
   187   95   96 1    
   188   95   97 1    
   189   95  216 1    
   190   96  217 1    
   191   96  218 1    
   192   96  219 1    
   193   97   98 2    
   194   97   99 am   BACKBONE|DICT|INTERRES
   195   99  100 1    
   196   99  220 1    
   197  100  101 1    
   198  100  102 1    
   199  100  221 1    
   200  101  222 1    
   201  101  223 1    
   202  101  224 1    
   203  102  103 2    
   204  102  104 am   BACKBONE|DICT|INTERRES
   205  104  105 1    
   206  104  225 1    
   207  105  106 1    
   208  105  107 1    
   209  105  226 1    
   210  106  227 1    
   211  106  228 1    
   212  106  229 1    
   213  107  108 2    
   214  107  109 am   BACKBONE|DICT|INTERRES
   215  109  110 1    
   216  109  230 1    
   217  110  111 1    
   218  110  112 1    
   219  110  231 1    
   220  111  232 1    
   221  111  233 1    
   222  111  234 1    
   223  112  113 2    
   224  112  114 am   BACKBONE|DICT|INTERRES
   225  114  115 1    
   226  114  235 1    
   227  115  116 1    
   228  115  117 1    
   229  115  236 1    
   230  116  237 1    
   231  116  238 1    
   232  116  239 1    
   233  117  118 2    
   234  117  119 am   BACKBONE|DICT|INTERRES
   235  119  120 1    
   236  119  240 1    
   237  120  121 1    
   238  120  124 1    
   239  120  241 1    
   240  121  122 am   BACKBONE|DICT|INTERRES
   241  121  123 2    
   242  122  242 1    
   243  122  243 1    
   244  124  125 1    
   245  124  244 1    
   246  124  245 1    
   247  125  126 1    
   248  126  246 1    
   249  126  247 1    
@<TRIPOS>SUBSTRUCTURE
     1 UNK         1 GROUP             0       ****    0 ROOT    
