@<TRIPOS>MOLECULE
3R540
247   249    1
SMALL
USER_CHARGES


@<TRIPOS>ATOM
      1 CA         -4.8074  -18.3771  -49.6586 C.3       0 UNK        -0.1800 
      2 C          -4.1634  -17.0026  -49.5897 C.2       0 UNK         0.5000 
      3 O          -4.8690  -15.9940  -49.6176 O.2       0 UNK        -0.5000 
      4 N          -2.8294  -16.9579  -49.5024 N.am      1 UNK        -0.5000 
      5 CA         -2.0571  -15.7316  -49.2841 C.3       1 UNK         0.1400 
      6 C6         -0.5694  -15.9188  -49.6625 C.3       23 UNK        -0.0398 
      7 S7         -0.3349  -15.8419  -51.4679 S.3       23 UNK        -0.2404 
      8 C8          1.3118  -15.0808  -51.6120 C.3       23 UNK        -0.0205 
      9 C9          2.3879  -16.1369  -51.8009 C.ar      23 UNK        -0.0193 
     10 C10         3.0413  -16.2600  -53.0300 C.ar      23 UNK        -0.1150 
     11 C11         4.0200  -17.2392  -53.2199 C.ar      23 UNK        -0.0193 
     12 C12         4.3348  -18.1069  -52.1692 C.ar      23 UNK        -0.1150 
     13 C13         3.6961  -17.9863  -50.9312 C.ar      23 UNK        -0.0193 
     14 C14         2.7325  -16.9909  -50.7501 C.ar      23 UNK        -0.1150 
     15 C15         4.0552  -18.9237  -49.7879 C.3       23 UNK        -0.0205 
     16 S16         3.0374  -20.4322  -49.8079 S.3       23 UNK        -0.2404 
     17 C17         1.4202  -19.7780  -49.2771 C.3       23 UNK        -0.0398 
     18 CA          0.5081  -20.8662  -48.6566 C.3       11 UNK         0.1400 
     19 N           1.0197  -21.3505  -47.3709 N.am      11 UNK        -0.5000 
     20 C           1.5694  -22.5509  -47.1593 C.2       10 UNK         0.5000 
     21 O           1.7670  -23.3837  -48.0432 O.2       10 UNK        -0.5000 
     22 CA          1.9600  -22.8941  -45.7103 C.3       10 UNK         0.1400 
     23 CB          3.4622  -22.6542  -45.4940 C.3       10 UNK        -0.1800 
     24 N           1.2216  -22.1668  -44.6750 N.am      10 UNK        -0.5000 
     25 C          -0.0985  -22.2035  -44.4508 C.2       9 UNK         0.5000 
     26 O          -0.9008  -22.7575  -45.2048 O.2       9 UNK        -0.5000 
     27 CA         -0.6300  -21.4915  -43.1896 C.3       9 UNK         0.1400 
     28 CB         -1.3879  -22.4633  -42.2657 C.3       9 UNK        -0.1800 
     29 N           0.3736  -20.7211  -42.4436 N.am      9 UNK        -0.5000 
     30 C           1.4140  -21.1515  -41.7147 C.2       8 UNK         0.5000 
     31 O           1.7105  -22.3358  -41.5630 O.2       8 UNK        -0.5000 
     32 CA          2.3009  -20.0622  -41.0817 C.3       8 UNK         0.1400 
     33 CB          3.5330  -19.8104  -41.9649 C.3       8 UNK        -0.1800 
     34 N           1.5845  -18.7991  -40.8870 N.am      8 UNK        -0.5000 
     35 C           0.6900  -18.5838  -39.9114 C.2       7 UNK         0.5000 
     36 O           0.4422  -19.3954  -39.0188 O.2       7 UNK        -0.5000 
     37 CA         -0.0838  -17.2539  -39.9643 C.3       7 UNK         0.1400 
     38 CB          0.7865  -16.0918  -39.4629 C.3       7 UNK        -0.1800 
     39 N          -0.5839  -16.9478  -41.3056 N.am      7 UNK        -0.5000 
     40 C          -1.5094  -17.6617  -41.9635 C.2       6 UNK         0.5000 
     41 O          -2.0671  -18.6564  -41.5018 O.2       6 UNK        -0.5000 
     42 CA         -1.8457  -17.2072  -43.3917 C.3       6 UNK         0.1400 
     43 CB         -2.9011  -16.0909  -43.3784 C.3       6 UNK        -0.1800 
     44 N          -0.6477  -16.7573  -44.0970 N.am      6 UNK        -0.5000 
     45 C           0.2155  -17.5746  -44.7152 C.2       5 UNK         0.5000 
     46 O           0.0584  -18.7913  -44.8178 O.2       5 UNK        -0.5000 
     47 CA          1.4909  -16.9396  -45.2976 C.3       5 UNK         0.1400 
     48 CB          1.2891  -16.5944  -46.7760 C.3       5 UNK        -0.1800 
     49 N           1.9283  -15.7427  -44.5810 N.am      5 UNK        -0.5000 
     50 C           2.4233  -15.7448  -43.3362 C.2       4 UNK         0.5000 
     51 O           2.5811  -16.7641  -42.6653 O.2       4 UNK        -0.5000 
     52 CA          2.7396  -14.3714  -42.7148 C.3       4 UNK         0.1400 
     53 CB          4.1723  -13.9413  -43.0617 C.3       4 UNK        -0.1800 
     54 N           1.8062  -13.3141  -43.1142 N.am      4 UNK        -0.5000 
     55 C           0.4792  -13.3436  -42.9281 C.2       3 UNK         0.5000 
     56 O          -0.1100  -14.2940  -42.4109 O.2       3 UNK        -0.5000 
     57 CA         -0.3414  -12.1273  -43.3992 C.3       3 UNK         0.1400 
     58 CB          0.5048  -10.9671  -43.9722 C.3       3 UNK        -0.1800 
     59 N          -1.3955  -12.5136  -44.3428 N.am      3 UNK        -0.5000 
     60 C          -1.2397  -13.0756  -45.5507 C.2       2 UNK         0.5000 
     61 O          -0.1469  -13.3968  -46.0243 O.2       2 UNK        -0.5000 
     62 CA         -2.5359  -13.2622  -46.3664 C.3       2 UNK         0.1400 
     63 CB         -3.2016  -11.9045  -46.6560 C.3       2 UNK        -0.1800 
     64 N          -2.3140  -13.9325  -47.6476 N.am      2 UNK        -0.5000 
     65 C          -2.2165  -15.2550  -47.8242 C.2       1 UNK         0.5000 
     66 O          -2.2550  -16.0763  -46.9070 O.2       1 UNK        -0.5000 
     67 C          -0.9541  -20.4048  -48.4772 C.2       11 UNK         0.5000 
     68 O          -1.3954  -19.4623  -49.1383 O.2       11 UNK        -0.5000 
     69 N          -1.6787  -21.0783  -47.5749 N.am      12 UNK        -0.5000 
     70 CA         -3.0757  -20.8348  -47.2524 C.3       12 UNK         0.1400 
     71 CB         -3.1863  -19.6953  -46.2193 C.3       12 UNK        -0.1800 
     72 C          -3.7105  -22.1667  -46.8207 C.2       12 UNK         0.5000 
     73 O          -3.7670  -23.0935  -47.6309 O.2       12 UNK        -0.5000 
     74 N          -4.1745  -22.2507  -45.5672 N.am      13 UNK        -0.5000 
     75 CA         -4.9632  -23.3569  -45.0218 C.3       13 UNK         0.1400 
     76 CB         -5.4287  -22.9891  -43.6047 C.3       13 UNK        -0.1800 
     77 C          -4.2751  -24.7360  -45.0232 C.2       13 UNK         0.5000 
     78 O          -4.9708  -25.7387  -45.1845 O.2       13 UNK        -0.5000 
     79 N          -2.9431  -24.7841  -44.8705 N.am      14 UNK        -0.5000 
     80 CA         -2.1778  -26.0376  -44.8773 C.3       14 UNK         0.1400 
     81 CB         -0.8356  -25.8461  -44.1553 C.3       14 UNK        -0.1800 
     82 C          -1.9569  -26.5751  -46.3026 C.2       14 UNK         0.5000 
     83 O          -1.8403  -27.7874  -46.4835 O.2       14 UNK        -0.5000 
     84 N          -1.9379  -25.6690  -47.2892 N.am      15 UNK        -0.5000 
     85 CA         -1.9220  -25.9931  -48.7165 C.3       15 UNK         0.1400 
     86 CB         -1.2924  -24.8168  -49.4814 C.3       15 UNK        -0.1800 
     87 C          -3.3322  -26.2924  -49.2645 C.2       15 UNK         0.5000 
     88 O          -3.4477  -26.7937  -50.3832 O.2       15 UNK        -0.5000 
     89 N          -4.3682  -25.9457  -48.4833 N.am      16 UNK        -0.5000 
     90 CA         -5.7921  -25.9162  -48.8327 C.3       16 UNK         0.1400 
     91 CB         -6.3296  -27.3359  -49.1063 C.3       16 UNK        -0.1800 
     92 C          -6.0883  -24.9185  -49.9738 C.2       16 UNK         0.5000 
     93 O          -6.9811  -25.1526  -50.7907 O.2       16 UNK        -0.5000 
     94 N          -5.3131  -23.8275  -50.0175 N.am      17 UNK        -0.5000 
     95 CA         -5.3912  -22.7864  -51.0324 C.3       17 UNK         0.1400 
     96 CB         -4.0217  -22.0962  -51.1355 C.3       17 UNK        -0.1800 
     97 C          -6.5096  -21.7923  -50.6802 C.2       17 UNK         0.5000 
     98 O          -6.4785  -21.1965  -49.6018 O.2       17 UNK        -0.5000 
     99 N          -7.4773  -21.6417  -51.5924 N.am      18 UNK        -0.5000 
    100 CA        -8.6174  -20.7272  -51.4630 C.3       18 UNK         0.1400 
    101 CB        -9.8391  -21.3745  -52.1355 C.3       18 UNK        -0.1800 
    102 C         -8.3409  -19.3378  -52.0742 C.2       18 UNK         0.5000 
    103 O         -9.1393  -18.4197  -51.8827 O.2       18 UNK        -0.5000 
    104 N         -7.2282  -19.2100  -52.8019 N.am      19 UNK        -0.5000 
    105 CA        -6.7233  -17.9935  -53.4271 C.3       19 UNK         0.1400 
    106 CB        -7.1918  -17.9438  -54.8919 C.3       19 UNK        -0.1800 
    107 C         -5.1906  -18.0081  -53.3189 C.2       19 UNK         0.5000 
    108 O         -4.6251  -19.0110  -52.8755 O.2       19 UNK        -0.5000 
    109 N         -4.5480  -16.8985  -53.7065 N.am      20 UNK        -0.5000 
    110 CA        -3.0992  -16.6931  -53.6309 C.3       20 UNK         0.1400 
    111 CB        -2.7534  -15.3128  -54.2110 C.3       20 UNK        -0.1800 
    112 C         -2.2907  -17.7983  -54.3395 C.2       20 UNK         0.5000 
    113 O         -2.5524  -18.0870  -55.5098 O.2       20 UNK        -0.5000 
    114 N         -1.3281  -18.3857  -53.6161 N.am      21 UNK        -0.5000 
    115 CA        -0.5682  -19.5769  -54.0097 C.3       21 UNK         0.1400 
    116 CB         0.3479  -19.9878  -52.8482 C.3       21 UNK        -0.1800 
    117 C          0.2427  -19.4303  -55.3108 C.2       21 UNK         0.5000 
    118 O          0.4123  -20.4171  -56.0286 O.2       21 UNK        -0.5000 
    119 N          0.6977  -18.2063  -55.5962 N.am      22 UNK        -0.5000 
    120 CA         1.3799  -17.8239  -56.8424 C.3       22 UNK         0.1400 
    121 C          0.5048  -16.9006  -57.7427 C.2       22 UNK         0.5000 
    122 N         -0.7976  -16.7756  -57.5108 N.am      22 UNK        -0.7600 
    123 O          1.0072  -16.2938  -58.6849 O.2       22 UNK        -0.5000 
    124 C124        2.7835  -17.2221  -56.5698 C.3       23 UNK        -0.0398 
    125 S125        3.9092  -18.4030  -55.7448 S.3       23 UNK        -0.2404 
    126 C126        4.7662  -17.3390  -54.5425 C.3       23 UNK        -0.0205 
    127 H127       -5.1215  -18.6954  -48.6650 H         1 UNK         0.0600 
    128 H128       -4.1174  -19.1184  -50.0618 H         1 UNK         0.0600 
    129 H129       -5.6884  -18.3559  -50.2993 H         1 UNK         0.0600 
    130 H130       -2.3078  -17.8288  -49.4284 H         1 UNK         0.3000 
    131 H131       -2.4765  -14.9530  -49.9259 H         1 UNK         0.0600 
    132 H132       -0.1935  -16.8755  -49.3009 H         1 UNK         0.0800 
    133 H133        0.0455  -15.1449  -49.2005 H         1 UNK         0.0800 
    134 H134        1.5435  -14.4652  -50.7425 H         1 UNK         0.0800 
    135 H135        1.2969  -14.3995  -52.4641 H         1 UNK         0.0800 
    136 H136        2.7937  -15.5846  -53.8355 H         1 UNK         0.1150 
    137 H137        5.0858  -18.8713  -52.3114 H         1 UNK         0.1150 
    138 H138        2.2382  -16.8891  -49.7955 H         1 UNK         0.1150 
    139 H139        5.1053  -19.2095  -49.8636 H         1 UNK         0.0800 
    140 H140        3.9495  -18.4163  -48.8278 H         1 UNK         0.0800 
    141 H141        0.9548  -19.3107  -50.1443 H         1 UNK         0.0800 
    142 H142        1.5898  -18.9829  -48.5557 H         1 UNK         0.0800 
    143 H143        0.4486  -21.6920  -49.3688 H         1 UNK         0.0600 
    144 H144        0.8754  -20.7419  -46.5759 H         1 UNK         0.3000 
    145 H145        1.7604  -23.9575  -45.5676 H         1 UNK         0.0600 
    146 H146        3.7771  -22.9859  -44.5043 H         1 UNK         0.0600 
    147 H147        4.0565  -23.2052  -46.2243 H         1 UNK         0.0600 
    148 H148        3.7178  -21.5984  -45.5925 H         1 UNK         0.0600 
    149 H149        1.7825  -21.6787  -43.9938 H         1 UNK         0.3000 
    150 H150       -1.3530  -20.7577  -43.5444 H         1 UNK         0.0600 
    151 H151       -2.2122  -22.9424  -42.7922 H         1 UNK         0.0600 
    152 H152       -1.8130  -21.9387  -41.4099 H         1 UNK         0.0600 
    153 H153       -0.7426  -23.2562  -41.8878 H         1 UNK         0.0600 
    154 H154        0.2652  -19.7201  -42.5250 H         1 UNK         0.3000 
    155 H155        2.6427  -20.4284  -40.1113 H         1 UNK         0.0600 
    156 H156        3.2518  -19.4578  -42.9583 H         1 UNK         0.0600 
    157 H157        4.1168  -20.7229  -42.0930 H         1 UNK         0.0600 
    158 H158        4.1906  -19.0634  -41.5198 H         1 UNK         0.0600 
    159 H159        1.7849  -18.0557  -41.5526 H         1 UNK         0.3000 
    160 H160       -0.9466  -17.3417  -39.3008 H         1 UNK         0.0600 
    161 H161        1.6819  -15.9679  -40.0714 H         1 UNK         0.0600 
    162 H162        1.1105  -16.2637  -38.4358 H         1 UNK         0.0600 
    163 H163        0.2371  -15.1502  -39.4789 H         1 UNK         0.0600 
    164 H164       -0.2275  -16.1035  -41.7437 H         1 UNK         0.3000 
    165 H165       -2.2735  -18.0592  -43.9216 H         1 UNK         0.0600 
    166 H166       -3.2081  -15.8332  -44.3908 H         1 UNK         0.0600 
    167 H167       -3.7962  -16.4091  -42.8427 H         1 UNK         0.0600 
    168 H168       -2.5358  -15.1850  -42.8954 H         1 UNK         0.0600 
    169 H169       -0.4205  -15.7751  -44.0213 H         1 UNK         0.3000 
    170 H170        2.2813  -17.6901  -45.2290 H         1 UNK         0.0600 
    171 H171        0.7784  -17.4051  -47.2914 H         1 UNK         0.0600 
    172 H172        0.6742  -15.7044  -46.8967 H         1 UNK         0.0600 
    173 H173        2.2407  -16.4198  -47.2781 H         1 UNK         0.0600 
    174 H174        1.7845  -14.8559  -45.0451 H         1 UNK         0.3000 
    175 H175        2.6706  -14.4764  -41.6310 H         1 UNK         0.0600 
    176 H176        4.2968  -13.7819  -44.1335 H         1 UNK         0.0600 
    177 H177        4.4419  -13.0169  -42.5504 H         1 UNK         0.0600 
    178 H178        4.8928  -14.7015  -42.7566 H         1 UNK         0.0600 
    179 H179        2.2083  -12.5032  -43.5614 H         1 UNK         0.3000 
    180 H180       -0.8497  -11.7510  -42.5104 H         1 UNK         0.0600 
    181 H181        1.0605  -11.2592  -44.8640 H         1 UNK         0.0600 
    182 H182        1.2210  -10.5991  -43.2364 H         1 UNK         0.0600 
    183 H183       -0.1299  -10.1237  -44.2447 H         1 UNK         0.0600 
    184 H184       -2.3353  -12.3161  -44.0298 H         1 UNK         0.3000 
    185 H185       -3.2252  -13.8630  -45.7703 H         1 UNK         0.0600 
    186 H186       -2.5375  -11.2421  -47.2132 H         1 UNK         0.0600 
    187 H187       -4.1144  -12.0300  -47.2390 H         1 UNK         0.0600 
    188 H188       -3.4818  -11.3895  -45.7366 H         1 UNK         0.0600 
    189 H189       -2.2280  -13.3253  -48.4492 H         1 UNK         0.3000 
    190 H190       -1.2467  -21.8394  -47.0623 H         1 UNK         0.3000 
    191 H191       -3.6046  -20.5297  -48.1547 H         1 UNK         0.0600 
    192 H192       -4.2260  -19.4851  -45.9659 H         1 UNK         0.0600 
    193 H193       -2.7625  -18.7709  -46.6124 H         1 UNK         0.0600 
    194 H194       -2.6509  -19.9328  -45.3015 H         1 UNK         0.0600 
    195 H195       -4.0625  -21.4484  -44.9661 H         1 UNK         0.3000 
    196 H196       -5.8521  -23.4499  -45.6495 H         1 UNK         0.0600 
    197 H197       -6.0428  -23.7823  -43.1759 H         1 UNK         0.0600 
    198 H198       -6.0334  -22.0821  -43.6109 H         1 UNK         0.0600 
    199 H199       -4.5873  -22.8266  -42.9312 H         1 UNK         0.0600 
    200 H200       -2.4071  -23.9230  -44.8216 H         1 UNK         0.3000 
    201 H201       -2.7426  -26.7906  -44.3232 H         1 UNK         0.0600 
    202 H202       -0.9736  -25.4108  -43.1660 H         1 UNK         0.0600 
    203 H203       -0.1592  -25.2055  -44.7190 H         1 UNK         0.0600 
    204 H204       -0.3315  -26.8038  -44.0209 H         1 UNK         0.0600 
    205 H205       -2.0604  -24.6943  -47.0502 H         1 UNK         0.3000 
    206 H206       -1.3056  -26.8790  -48.8824 H         1 UNK         0.0600 
    207 H207       -0.2673  -24.6443  -49.1574 H         1 UNK         0.0600 
    208 H208       -1.2616  -25.0164  -50.5532 H         1 UNK         0.0600 
    209 H209       -1.8504  -23.8912  -49.3373 H         1 UNK         0.0600 
    210 H210       -4.1405  -25.5231  -47.5944 H         1 UNK         0.3000 
    211 H211       -6.3105  -25.5317  -47.9532 H         1 UNK         0.0600 
    212 H212       -5.9129  -27.7604  -50.0200 H         1 UNK         0.0600 
    213 H213       -7.4145  -27.3272  -49.2169 H         1 UNK         0.0600 
    214 H214       -6.0936  -28.0110  -48.2837 H         1 UNK         0.0600 
    215 H215       -4.6596  -23.6657  -49.2565 H         1 UNK         0.3000 
    216 H216       -5.6056  -23.2474  -51.9991 H         1 UNK         0.0600 
    217 H217       -4.0240  -21.3362  -51.9154 H         1 UNK         0.0600 
    218 H218       -3.2387  -22.8120  -51.3859 H         1 UNK         0.0600 
    219 H219       -3.7394  -21.6105  -50.2025 H         1 UNK         0.0600 
    220 H220       -7.4424  -22.1917  -52.4392 H         1 UNK         0.3000 
    221 H221       -8.8517  -20.5786  -50.4068 H         1 UNK         0.0600 
    222 H222       -9.6750  -21.5338  -53.2020 H         1 UNK         0.0600 
    223 H223      -10.0725  -22.3387  -51.6835 H         1 UNK         0.0600 
    224 H224      -10.7241  -20.7456  -52.0300 H         1 UNK         0.0600 
    225 H225       -6.5753  -19.9821  -52.8285 H         1 UNK         0.3000 
    226 H226       -7.0910  -17.1169  -52.8897 H         1 UNK         0.0600 
    227 H227       -6.8063  -18.7884  -55.4646 H         1 UNK         0.0600 
    228 H228       -8.2798  -17.9646  -54.9575 H         1 UNK         0.0600 
    229 H229       -6.8563  -17.0309  -55.3849 H         1 UNK         0.0600 
    230 H230       -5.0856  -16.1314  -54.0820 H         1 UNK         0.3000 
    231 H231       -2.8430  -16.6972  -52.5708 H         1 UNK         0.0600 
    232 H232       -3.0640  -15.2256  -55.2530 H         1 UNK         0.0600 
    233 H233       -1.6788  -15.1298  -54.1748 H         1 UNK         0.0600 
    234 H234       -3.2361  -14.5150  -53.6463 H         1 UNK         0.0600 
    235 H235       -1.1631  -18.0504  -52.6773 H         1 UNK         0.3000 
    236 H236       -1.2906  -20.3797  -54.1709 H         1 UNK         0.0600 
    237 H237       -0.2353  -20.2273  -51.9590 H         1 UNK         0.0600 
    238 H238        0.9312  -20.8744  -53.1001 H         1 UNK         0.0600 
    239 H239        1.0526  -19.1944  -52.5936 H         1 UNK         0.0600 
    240 H240        0.4992  -17.4579  -54.9490 H         1 UNK         0.3000 
    241 H241        1.5374  -18.7131  -57.4550 H         1 UNK         0.0600 
    242 H242       -1.3447  -16.1797  -58.1114 H         1 UNK         0.3800 
    243 H243       -1.2629  -17.3120  -56.7858 H         1 UNK         0.3800 
    244 H244        3.2640  -16.9296  -57.5048 H         1 UNK         0.0800 
    245 H245        2.6916  -16.3098  -55.9820 H         1 UNK         0.0800 
    246 H246        4.9254  -16.3462  -54.9662 H         1 UNK         0.0800 
    247 H247        5.7618  -17.7500  -54.3688 H         1 UNK         0.0800 
@<TRIPOS>BOND
     1    1    2 1    
     2    1  127 1    
     3    1  128 1    
     4    1  129 1    
     5    2    3 2    
     6    2    4 am   BACKBONE|DICT|INTERRES
     7    4    5 1    
     8    4  130 1    
     9    5    6 1    
    10    5   65 1    
    11    5  131 1    
    12    6    7 1    
    13    6  132 1    
    14    6  133 1    
    15    7    8 1    
    16    8    9 1    
    17    8  134 1    
    18    8  135 1    
    19    9   10 ar   
    20    9   14 ar   
    21   10   11 ar   
    22   10  136 1    
    23   11   12 ar   
    24   11  126 1    
    25   12   13 ar   
    26   12  137 1    
    27   13   14 ar   
    28   13   15 1    
    29   14  138 1    
    30   15   16 1    
    31   15  139 1    
    32   15  140 1    
    33   16   17 1    
    34   17   18 1    
    35   17  141 1    
    36   17  142 1    
    37   18   19 1    
    38   18   67 1    
    39   18  143 1    
    40   19   20 am   BACKBONE|DICT|INTERRES
    41   19  144 1    
    42   20   21 2    
    43   20   22 1    
    44   22   23 1    
    45   22   24 1    
    46   22  145 1    
    47   23  146 1    
    48   23  147 1    
    49   23  148 1    
    50   24   25 am   BACKBONE|DICT|INTERRES
    51   24  149 1    
    52   25   26 2    
    53   25   27 1    
    54   27   28 1    
    55   27   29 1    
    56   27  150 1    
    57   28  151 1    
    58   28  152 1    
    59   28  153 1    
    60   29   30 am   BACKBONE|DICT|INTERRES
    61   29  154 1    
    62   30   31 2    
    63   30   32 1    
    64   32   33 1    
    65   32   34 1    
    66   32  155 1    
    67   33  156 1    
    68   33  157 1    
    69   33  158 1    
    70   34   35 am   BACKBONE|DICT|INTERRES
    71   34  159 1    
    72   35   36 2    
    73   35   37 1    
    74   37   38 1    
    75   37   39 1    
    76   37  160 1    
    77   38  161 1    
    78   38  162 1    
    79   38  163 1    
    80   39   40 am   BACKBONE|DICT|INTERRES
    81   39  164 1    
    82   40   41 2    
    83   40   42 1    
    84   42   43 1    
    85   42   44 1    
    86   42  165 1    
    87   43  166 1    
    88   43  167 1    
    89   43  168 1    
    90   44   45 am   BACKBONE|DICT|INTERRES
    91   44  169 1    
    92   45   46 2    
    93   45   47 1    
    94   47   48 1    
    95   47   49 1    
    96   47  170 1    
    97   48  171 1    
    98   48  172 1    
    99   48  173 1    
   100   49   50 am   BACKBONE|DICT|INTERRES
   101   49  174 1    
   102   50   51 2    
   103   50   52 1    
   104   52   53 1    
   105   52   54 1    
   106   52  175 1    
   107   53  176 1    
   108   53  177 1    
   109   53  178 1    
   110   54   55 am   BACKBONE|DICT|INTERRES
   111   54  179 1    
   112   55   56 2    
   113   55   57 1    
   114   57   58 1    
   115   57   59 1    
   116   57  180 1    
   117   58  181 1    
   118   58  182 1    
   119   58  183 1    
   120   59   60 am   BACKBONE|DICT|INTERRES
   121   59  184 1    
   122   60   61 2    
   123   60   62 1    
   124   62   63 1    
   125   62   64 1    
   126   62  185 1    
   127   63  186 1    
   128   63  187 1    
   129   63  188 1    
   130   64   65 am   BACKBONE|DICT|INTERRES
   131   64  189 1    
   132   65   66 2    
   133   67   68 2    
   134   67   69 am   BACKBONE|DICT|INTERRES
   135   69   70 1    
   136   69  190 1    
   137   70   71 1    
   138   70   72 1    
   139   70  191 1    
   140   71  192 1    
   141   71  193 1    
   142   71  194 1    
   143   72   73 2    
   144   72   74 am   BACKBONE|DICT|INTERRES
   145   74   75 1    
   146   74  195 1    
   147   75   76 1    
   148   75   77 1    
   149   75  196 1    
   150   76  197 1    
   151   76  198 1    
   152   76  199 1    
   153   77   78 2    
   154   77   79 am   BACKBONE|DICT|INTERRES
   155   79   80 1    
   156   79  200 1    
   157   80   81 1    
   158   80   82 1    
   159   80  201 1    
   160   81  202 1    
   161   81  203 1    
   162   81  204 1    
   163   82   83 2    
   164   82   84 am   BACKBONE|DICT|INTERRES
   165   84   85 1    
   166   84  205 1    
   167   85   86 1    
   168   85   87 1    
   169   85  206 1    
   170   86  207 1    
   171   86  208 1    
   172   86  209 1    
   173   87   88 2    
   174   87   89 am   BACKBONE|DICT|INTERRES
   175   89   90 1    
   176   89  210 1    
   177   90   91 1    
   178   90   92 1    
   179   90  211 1    
   180   91  212 1    
   181   91  213 1    
   182   91  214 1    
   183   92   93 2    
   184   92   94 am   BACKBONE|DICT|INTERRES
   185   94   95 1    
   186   94  215 1    
   187   95   96 1    
   188   95   97 1    
   189   95  216 1    
   190   96  217 1    
   191   96  218 1    
   192   96  219 1    
   193   97   98 2    
   194   97   99 am   BACKBONE|DICT|INTERRES
   195   99  100 1    
   196   99  220 1    
   197  100  101 1    
   198  100  102 1    
   199  100  221 1    
   200  101  222 1    
   201  101  223 1    
   202  101  224 1    
   203  102  103 2    
   204  102  104 am   BACKBONE|DICT|INTERRES
   205  104  105 1    
   206  104  225 1    
   207  105  106 1    
   208  105  107 1    
   209  105  226 1    
   210  106  227 1    
   211  106  228 1    
   212  106  229 1    
   213  107  108 2    
   214  107  109 am   BACKBONE|DICT|INTERRES
   215  109  110 1    
   216  109  230 1    
   217  110  111 1    
   218  110  112 1    
   219  110  231 1    
   220  111  232 1    
   221  111  233 1    
   222  111  234 1    
   223  112  113 2    
   224  112  114 am   BACKBONE|DICT|INTERRES
   225  114  115 1    
   226  114  235 1    
   227  115  116 1    
   228  115  117 1    
   229  115  236 1    
   230  116  237 1    
   231  116  238 1    
   232  116  239 1    
   233  117  118 2    
   234  117  119 am   BACKBONE|DICT|INTERRES
   235  119  120 1    
   236  119  240 1    
   237  120  121 1    
   238  120  124 1    
   239  120  241 1    
   240  121  122 am   BACKBONE|DICT|INTERRES
   241  121  123 2    
   242  122  242 1    
   243  122  243 1    
   244  124  125 1    
   245  124  244 1    
   246  124  245 1    
   247  125  126 1    
   248  126  246 1    
   249  126  247 1    
@<TRIPOS>SUBSTRUCTURE
     1 UNK         1 GROUP             0       ****    0 ROOT    
