@<TRIPOS>MOLECULE
3R540
247   249    1
SMALL
USER_CHARGES


@<TRIPOS>ATOM
      1 CA          3.0613  -13.1117  -45.5657 C.3       0 UNK        -0.1800 
      2 C           2.7503  -13.4050  -47.0339 C.2       0 UNK         0.5000 
      3 O           3.6670  -13.3639  -47.8505 O.2       0 UNK        -0.5000 
      4 N           1.5042  -13.6954  -47.4376 N.am      1 UNK        -0.5000 
      5 CA          0.2726  -13.7680  -46.6379 C.3       1 UNK         0.1400 
      6 C6         -0.8560  -14.5086  -47.3973 C.3       23 UNK        -0.0398 
      7 S7         -0.5396  -16.2973  -47.5574 S.3       23 UNK        -0.2404 
      8 C8          0.2476  -16.3924  -49.1931 C.3       23 UNK        -0.0205 
      9 C9          0.4806  -17.8330  -49.6212 C.ar      23 UNK        -0.0193 
     10 C10        -0.4312  -18.4695  -50.4661 C.ar      23 UNK        -0.1150 
     11 C11        -0.1994  -19.7734  -50.9144 C.ar      23 UNK        -0.0193 
     12 C12         0.9397  -20.4572  -50.4749 C.ar      23 UNK        -0.1150 
     13 C13         1.8479  -19.8405  -49.6082 C.ar      23 UNK        -0.0193 
     14 C14         1.6172  -18.5244  -49.1941 C.ar      23 UNK        -0.1150 
     15 C15         3.1021  -20.5700  -49.1485 C.3       23 UNK        -0.0205 
     16 S16         3.0423  -20.9991  -47.3778 S.3       23 UNK        -0.2404 
     17 C17         2.5917  -22.7655  -47.3701 C.3       23 UNK        -0.0398 
     18 CA          1.2420  -23.1225  -46.6995 C.3       11 UNK         0.1400 
     19 N           1.0897  -22.6552  -45.3143 N.am      11 UNK        -0.5000 
     20 C           0.1988  -23.1957  -44.4657 C.2       10 UNK         0.5000 
     21 O          -0.5458  -24.1281  -44.7694 O.2       10 UNK        -0.5000 
     22 CA          0.0806  -22.5907  -43.0568 C.3       10 UNK         0.1400 
     23 CB          1.2710  -23.0005  -42.1769 C.3       10 UNK        -0.1800 
     24 N          -0.0669  -21.1374  -43.0668 N.am      10 UNK        -0.5000 
     25 C          -1.0950  -20.4781  -43.6211 C.2       9 UNK         0.5000 
     26 O          -2.0487  -21.0325  -44.1660 O.2       9 UNK        -0.5000 
     27 CA         -1.0299  -18.9388  -43.6022 C.3       9 UNK         0.1400 
     28 CB         -1.5589  -18.3826  -42.2723 C.3       9 UNK        -0.1800 
     29 N           0.3174  -18.4252  -43.8451 N.am      9 UNK        -0.5000 
     30 C           1.0221  -18.6555  -44.9623 C.2       8 UNK         0.5000 
     31 O           0.5914  -19.2963  -45.9196 O.2       8 UNK        -0.5000 
     32 CA          2.4697  -18.1374  -44.9749 C.3       8 UNK         0.1400 
     33 CB          2.5248  -16.6305  -45.2591 C.3       8 UNK        -0.1800 
     34 N           3.1513  -18.4259  -43.7139 N.am      8 UNK        -0.5000 
     35 C           3.5192  -19.6531  -43.3177 C.2       7 UNK         0.5000 
     36 O           3.3571  -20.6720  -43.9888 O.2       7 UNK        -0.5000 
     37 CA          4.1415  -19.7617  -41.9139 C.3       7 UNK         0.1400 
     38 CB          5.6417  -19.4345  -41.9579 C.3       7 UNK        -0.1800 
     39 N           3.4832  -18.8918  -40.9375 N.am      7 UNK        -0.5000 
     40 C           2.2203  -19.0502  -40.5172 C.2       6 UNK         0.5000 
     41 O           1.4845  -19.9612  -40.8923 O.2       6 UNK        -0.5000 
     42 CA          1.6739  -17.9893  -39.5458 C.3       6 UNK         0.1400 
     43 CB          2.0214  -18.3557  -38.0953 C.3       6 UNK        -0.1800 
     44 N           2.1499  -16.6337  -39.8330 N.am      6 UNK        -0.5000 
     45 C           1.8967  -15.9616  -40.9630 C.2       5 UNK         0.5000 
     46 O           1.2908  -16.4373  -41.9266 O.2       5 UNK        -0.5000 
     47 CA          2.4477  -14.5282  -41.0462 C.3       5 UNK         0.1400 
     48 CB          3.7051  -14.4875  -41.9284 C.3       5 UNK        -0.1800 
     49 N           1.4539  -13.6058  -41.5902 N.am      5 UNK        -0.5000 
     50 C           0.3217  -13.2392  -40.9725 C.2       4 UNK         0.5000 
     51 O           0.0096  -13.6180  -39.8417 O.2       4 UNK        -0.5000 
     52 CA         -0.6036  -12.2827  -41.7566 C.3       4 UNK         0.1400 
     53 CB         -1.6142  -11.5397  -40.8577 C.3       4 UNK        -0.1800 
     54 N           0.1337  -11.3432  -42.6113 N.am      4 UNK        -0.5000 
     55 C           1.0034  -10.3952  -42.2221 C.2       3 UNK         0.5000 
     56 O           1.2647  -10.1515  -41.0436 O.2       3 UNK        -0.5000 
     57 CA          1.7396   -9.6025  -43.3241 C.3       3 UNK         0.1400 
     58 CB          3.2508   -9.8813  -43.2619 C.3       3 UNK        -0.1800 
     59 N           1.2641   -9.9044  -44.6767 N.am      3 UNK        -0.5000 
     60 C           0.1657   -9.3829  -45.2389 C.2       2 UNK         0.5000 
     61 O          -0.5460   -8.5382  -44.6951 O.2       2 UNK        -0.5000 
     62 CA         -0.2178   -9.9192  -46.6336 C.3       2 UNK         0.1400 
     63 CB          0.3700   -9.0210  -47.7325 C.3       2 UNK        -0.1800 
     64 N           0.1900  -11.3082  -46.8837 N.am      2 UNK        -0.5000 
     65 C          -0.2204  -12.3771  -46.1835 C.2       1 UNK         0.5000 
     66 O          -0.9397  -12.2975  -45.1886 O.2       1 UNK        -0.5000 
     67 C           0.0208  -22.7845  -47.5758 C.2       11 UNK         0.5000 
     68 O          -0.3557  -23.6123  -48.4056 O.2       11 UNK        -0.5000 
     69 N          -0.6219  -21.6313  -47.3379 N.am      12 UNK        -0.5000 
     70 CA         -1.8804  -21.2533  -47.9818 C.3       12 UNK         0.1400 
     71 CB         -2.2542  -19.8143  -47.6041 C.3       12 UNK        -0.1800 
     72 C          -3.0290  -22.2201  -47.6476 C.2       12 UNK         0.5000 
     73 O          -3.7452  -22.6439  -48.5560 O.2       12 UNK        -0.5000 
     74 N          -3.1609  -22.5785  -46.3628 N.am      13 UNK        -0.5000 
     75 CA         -4.1375  -23.5468  -45.8680 C.3       13 UNK         0.1400 
     76 CB         -4.1624  -23.5238  -44.3324 C.3       13 UNK        -0.1800 
     77 C          -3.8743  -24.9691  -46.3903 C.2       13 UNK         0.5000 
     78 O          -4.8102  -25.6211  -46.8535 O.2       13 UNK        -0.5000 
     79 N          -2.6089  -25.4113  -46.3413 N.am      14 UNK        -0.5000 
     80 CA         -2.1676  -26.7280  -46.8101 C.3       14 UNK         0.1400 
     81 CB         -0.6970  -26.9473  -46.4262 C.3       14 UNK        -0.1800 
     82 C          -2.3654  -26.9319  -48.3229 C.2       14 UNK         0.5000 
     83 O          -2.7605  -28.0203  -48.7424 O.2       14 UNK        -0.5000 
     84 N          -2.1166  -25.8768  -49.1098 N.am      15 UNK        -0.5000 
     85 CA         -2.3353  -25.8558  -50.5557 C.3       15 UNK         0.1400 
     86 CB         -1.4887  -24.7269  -51.1673 C.3       15 UNK        -0.1800 
     87 C          -3.8141  -25.6729  -50.9488 C.2       15 UNK         0.5000 
     88 O          -4.1328  -25.8266  -52.1273 O.2       15 UNK        -0.5000 
     89 N          -4.6748  -25.2881  -49.9927 N.am      16 UNK        -0.5000 
     90 CA         -6.0714  -24.8703  -50.1747 C.3       16 UNK         0.1400 
     91 CB         -6.9537  -26.0635  -50.5948 C.3       16 UNK        -0.1800 
     92 C          -6.1715  -23.6698  -51.1392 C.2       16 UNK         0.5000 
     93 O          -6.8968  -23.7171  -52.1353 O.2       16 UNK        -0.5000 
     94 N          -5.3446  -22.6491  -50.8660 N.am      17 UNK        -0.5000 
     95 CA         -5.0924  -21.4553  -51.6819 C.3       17 UNK         0.1400 
     96 CB         -6.3506  -20.5672  -51.7578 C.3       17 UNK        -0.1800 
     97 C          -4.5049  -21.7721  -53.0773 C.2       17 UNK         0.5000 
     98 O          -4.6236  -20.9520  -53.9882 O.2       17 UNK        -0.5000 
     99 N          -3.9198  -22.9708  -53.2302 N.am      18 UNK        -0.5000 
    100 CA        -3.4729  -23.5943  -54.4809 C.3       18 UNK         0.1400 
    101 CB        -2.2610  -22.8463  -55.0695 C.3       18 UNK        -0.1800 
    102 C         -4.6338  -23.7758  -55.4808 C.2       18 UNK         0.5000 
    103 O         -4.4637  -23.5292  -56.6737 O.2       18 UNK        -0.5000 
    104 N         -5.8116  -24.1554  -54.9585 N.am      19 UNK        -0.5000 
    105 CA        -7.1046  -24.2129  -55.6522 C.3       19 UNK         0.1400 
    106 CB        -7.1029  -25.2888  -56.7585 C.3       19 UNK        -0.1800 
    107 C         -7.5504  -22.8194  -56.1476 C.2       19 UNK         0.5000 
    108 O         -8.0450  -22.6797  -57.2673 O.2       19 UNK        -0.5000 
    109 N         -7.3367  -21.8142  -55.2860 N.am      20 UNK        -0.5000 
    110 CA        -7.5812  -20.3811  -55.4831 C.3       20 UNK         0.1400 
    111 CB        -9.0815  -20.0986  -55.7082 C.3       20 UNK        -0.1800 
    112 C         -6.6759  -19.7232  -56.5486 C.2       20 UNK         0.5000 
    113 O         -7.0320  -18.6682  -57.0772 O.2       20 UNK        -0.5000 
    114 N         -5.5157  -20.3305  -56.8365 N.am      21 UNK        -0.5000 
    115 CA        -4.4984  -19.7707  -57.7274 C.3       21 UNK         0.1400 
    116 CB        -3.6552  -20.8998  -58.3362 C.3       21 UNK        -0.1800 
    117 C         -3.5979  -18.7409  -57.0200 C.2       21 UNK         0.5000 
    118 O         -3.0830  -17.8451  -57.6915 O.2       21 UNK        -0.5000 
    119 N         -3.4200  -18.8669  -55.6962 N.am      22 UNK        -0.5000 
    120 CA        -2.7098  -17.8769  -54.8715 C.3       22 UNK         0.1400 
    121 C         -3.5351  -16.5691  -54.7149 C.2       22 UNK         0.5000 
    122 N         -2.8993  -15.4093  -54.8120 N.am      22 UNK        -0.7600 
    123 O         -4.7373  -16.5976  -54.4611 O.2       22 UNK        -0.5000 
    124 C124       -2.3236  -18.4293  -53.4766 C.3       23 UNK        -0.0398 
    125 S125       -1.1206  -19.8008  -53.5495 S.3       23 UNK        -0.2404 
    126 C126       -1.1919  -20.4533  -51.8476 C.3       23 UNK        -0.0205 
    127 H127        3.3792  -12.0751  -45.4651 H         1 UNK         0.0600 
    128 H128        3.8871  -13.7414  -45.2352 H         1 UNK         0.0600 
    129 H129        2.2299  -13.2808  -44.8859 H         1 UNK         0.0600 
    130 H130        1.3721  -13.8767  -48.4214 H         1 UNK         0.3000 
    131 H131        0.4798  -14.3408  -45.7326 H         1 UNK         0.0600 
    132 H132       -1.8030  -14.4164  -46.8614 H         1 UNK         0.0800 
    133 H133       -1.0263  -14.0675  -48.3809 H         1 UNK         0.0800 
    134 H134        1.2016  -15.8651  -49.1721 H         1 UNK         0.0800 
    135 H135       -0.3750  -15.8802  -49.9282 H         1 UNK         0.0800 
    136 H136       -1.3216  -17.9433  -50.7738 H         1 UNK         0.1150 
    137 H137        1.1188  -21.4705  -50.8061 H         1 UNK         0.1150 
    138 H138        2.3211  -18.0403  -48.5319 H         1 UNK         0.1150 
    139 H139        3.2859  -21.4573  -49.7554 H         1 UNK         0.0800 
    140 H140        3.9608  -19.9173  -49.3119 H         1 UNK         0.0800 
    141 H141        2.6220  -23.1633  -48.3855 H         1 UNK         0.0800 
    142 H142        3.3897  -23.2858  -46.8390 H         1 UNK         0.0800 
    143 H143        1.2489  -24.2131  -46.6420 H         1 UNK         0.0600 
    144 H144        1.6672  -21.8751  -45.0219 H         1 UNK         0.3000 
    145 H145       -0.8224  -23.0031  -42.6018 H         1 UNK         0.0600 
    146 H146        1.1293  -22.6743  -41.1466 H         1 UNK         0.0600 
    147 H147        2.2075  -22.5758  -42.5366 H         1 UNK         0.0600 
    148 H148        1.3880  -24.0848  -42.1594 H         1 UNK         0.0600 
    149 H149        0.6470  -20.6060  -42.5792 H         1 UNK         0.3000 
    150 H150       -1.6708  -18.5692  -44.4051 H         1 UNK         0.0600 
    151 H151       -2.5842  -18.7088  -42.0941 H         1 UNK         0.0600 
    152 H152       -1.5577  -17.2924  -42.2716 H         1 UNK         0.0600 
    153 H153       -0.9563  -18.7183  -41.4285 H         1 UNK         0.0600 
    154 H154        0.7314  -17.8569  -43.1115 H         1 UNK         0.3000 
    155 H155        3.0087  -18.6431  -45.7761 H         1 UNK         0.0600 
    156 H156        2.1181  -16.4137  -46.2465 H         1 UNK         0.0600 
    157 H157        3.5513  -16.2648  -45.2469 H         1 UNK         0.0600 
    158 H158        1.9510  -16.0559  -44.5319 H         1 UNK         0.0600 
    159 H159        3.2696  -17.6551  -43.0743 H         1 UNK         0.3000 
    160 H160        4.0273  -20.7949  -41.5788 H         1 UNK         0.0600 
    161 H161        5.8219  -18.4022  -42.2604 H         1 UNK         0.0600 
    162 H162        6.1603  -20.0801  -42.6680 H         1 UNK         0.0600 
    163 H163        6.1069  -19.5855  -40.9836 H         1 UNK         0.0600 
    164 H164        4.0188  -18.1164  -40.5767 H         1 UNK         0.3000 
    165 H165        0.5864  -17.9847  -39.6426 H         1 UNK         0.0600 
    166 H166        1.5599  -17.6625  -37.3918 H         1 UNK         0.0600 
    167 H167        1.6603  -19.3551  -37.8481 H         1 UNK         0.0600 
    168 H168        3.0982  -18.3437  -37.9225 H         1 UNK         0.0600 
    169 H169        2.6608  -16.1731  -39.0935 H         1 UNK         0.3000 
    170 H170        2.7150  -14.1866  -40.0440 H         1 UNK         0.0600 
    171 H171        3.4957  -14.8176  -42.9460 H         1 UNK         0.0600 
    172 H172        4.1180  -13.4798  -41.9816 H         1 UNK         0.0600 
    173 H173        4.4850  -15.1363  -41.5277 H         1 UNK         0.0600 
    174 H174        1.6198  -13.2612  -42.5219 H         1 UNK         0.3000 
    175 H175       -1.1783  -12.9164  -42.4335 H         1 UNK         0.0600 
    176 H176       -1.1170  -10.9366  -40.0976 H         1 UNK         0.0600 
    177 H177       -2.2526  -10.8801  -41.4454 H         1 UNK         0.0600 
    178 H178       -2.2667  -12.2433  -40.3395 H         1 UNK         0.0600 
    179 H179       -0.0482  -11.4501  -43.6034 H         1 UNK         0.3000 
    180 H180        1.5822   -8.5405  -43.1239 H         1 UNK         0.0600 
    181 H181        3.4714  -10.9439  -43.3656 H         1 UNK         0.0600 
    182 H182        3.6673   -9.5567  -42.3074 H         1 UNK         0.0600 
    183 H183        3.7869   -9.3453  -44.0454 H         1 UNK         0.0600 
    184 H184        1.7965  -10.5757  -45.2075 H         1 UNK         0.3000 
    185 H185       -1.3066   -9.8787  -46.7065 H         1 UNK         0.0600 
    186 H186        1.4604   -9.0477  -47.7334 H         1 UNK         0.0600 
    187 H187        0.0250   -9.3277  -48.7201 H         1 UNK         0.0600 
    188 H188        0.0671   -7.9823  -47.5929 H         1 UNK         0.0600 
    189 H189        0.7892  -11.4631  -47.6820 H         1 UNK         0.3000 
    190 H190       -0.2222  -20.9644  -46.6831 H         1 UNK         0.3000 
    191 H191       -1.7226  -21.2930  -49.0599 H         1 UNK         0.0600 
    192 H192       -1.4505  -19.1251  -47.8569 H         1 UNK         0.0600 
    193 H193       -2.4514  -19.7124  -46.5373 H         1 UNK         0.0600 
    194 H194       -3.1462  -19.4874  -48.1394 H         1 UNK         0.0600 
    195 H195       -2.5586  -22.1471  -45.6666 H         1 UNK         0.3000 
    196 H196       -5.1224  -23.2392  -46.2255 H         1 UNK         0.0600 
    197 H197       -4.4456  -22.5396  -43.9591 H         1 UNK         0.0600 
    198 H198       -3.1888  -23.7730  -43.9088 H         1 UNK         0.0600 
    199 H199       -4.8856  -24.2405  -43.9413 H         1 UNK         0.0600 
    200 H200       -1.9000  -24.8239  -45.9085 H         1 UNK         0.3000 
    201 H201       -2.7682  -27.4799  -46.2942 H         1 UNK         0.0600 
    202 H202       -0.5554  -26.8774  -45.3476 H         1 UNK         0.0600 
    203 H203       -0.0462  -26.2120  -46.8993 H         1 UNK         0.0600 
    204 H204       -0.3553  -27.9358  -46.7355 H         1 UNK         0.0600 
    205 H205       -1.7330  -25.0306  -48.6986 H         1 UNK         0.3000 
    206 H206       -1.9961  -26.8038  -50.9783 H         1 UNK         0.0600 
    207 H207       -0.4331  -24.8503  -50.9247 H         1 UNK         0.0600 
    208 H208       -1.8025  -23.7476  -50.8030 H         1 UNK         0.0600 
    209 H209       -1.5679  -24.7165  -52.2546 H         1 UNK         0.0600 
    210 H210       -4.3151  -25.1858  -49.0522 H         1 UNK         0.3000 
    211 H211       -6.4222  -24.5211  -49.2024 H         1 UNK         0.0600 
    212 H212       -6.6839  -26.4457  -51.5797 H         1 UNK         0.0600 
    213 H213       -8.0045  -25.7745  -50.6343 H         1 UNK         0.0600 
    214 H214       -6.8685  -26.8839  -49.8823 H         1 UNK         0.0600 
    215 H215       -4.7758  -22.7182  -50.0214 H         1 UNK         0.3000 
    216 H216       -4.3324  -20.8877  -51.1478 H         1 UNK         0.0600 
    217 H217       -6.1347  -19.6210  -52.2558 H         1 UNK         0.0600 
    218 H218       -6.7207  -20.3275  -50.7610 H         1 UNK         0.0600 
    219 H219       -7.1597  -21.0500  -52.3055 H         1 UNK         0.0600 
    220 H220       -3.9255  -23.5915  -52.4331 H         1 UNK         0.3000 
    221 H221       -3.1375  -24.6009  -54.2314 H         1 UNK         0.0600 
    222 H222       -2.5112  -21.8237  -55.3488 H         1 UNK         0.0600 
    223 H223       -1.4421  -22.8050  -54.3517 H         1 UNK         0.0600 
    224 H224       -1.8835  -23.3475  -55.9613 H         1 UNK         0.0600 
    225 H225       -5.8605  -24.3041  -53.9567 H         1 UNK         0.3000 
    226 H226       -7.8369  -24.5164  -54.9024 H         1 UNK         0.0600 
    227 H227       -6.7794  -26.2539  -56.3688 H         1 UNK         0.0600 
    228 H228       -8.1039  -25.4242  -57.1695 H         1 UNK         0.0600 
    229 H229       -6.4456  -25.0233  -57.5867 H         1 UNK         0.0600 
    230 H230       -6.8985  -22.0531  -54.4076 H         1 UNK         0.3000 
    231 H231       -7.3045  -19.9042  -54.5426 H         1 UNK         0.0600 
    232 H232       -9.2871  -19.0281  -55.6774 H         1 UNK         0.0600 
    233 H233       -9.6913  -20.5656  -54.9348 H         1 UNK         0.0600 
    234 H234       -9.4237  -20.4673  -56.6754 H         1 UNK         0.0600 
    235 H235       -5.2786  -21.1835  -56.3480 H         1 UNK         0.3000 
    236 H236       -4.9989  -19.2583  -58.5519 H         1 UNK         0.0600 
    237 H237       -3.0652  -21.4170  -57.5810 H         1 UNK         0.0600 
    238 H238       -4.2832  -21.6374  -58.8362 H         1 UNK         0.0600 
    239 H239       -2.9593  -20.5073  -59.0785 H         1 UNK         0.0600 
    240 H240       -3.8885  -19.6163  -55.1952 H         1 UNK         0.3000 
    241 H241       -1.7819  -17.6260  -55.3899 H         1 UNK         0.0600 
    242 H242       -3.4215  -14.5544  -54.6974 H         1 UNK         0.3800 
    243 H243       -1.9130  -15.3609  -55.0170 H         1 UNK         0.3800 
    244 H244       -3.2149  -18.7538  -52.9372 H         1 UNK         0.0800 
    245 H245       -1.8723  -17.6330  -52.8847 H         1 UNK         0.0800 
    246 H246       -1.0014  -21.5270  -51.8837 H         1 UNK         0.0800 
    247 H247       -2.1950  -20.3381  -51.4438 H         1 UNK         0.0800 
@<TRIPOS>BOND
     1    1    2 1    
     2    1  127 1    
     3    1  128 1    
     4    1  129 1    
     5    2    3 2    
     6    2    4 am   BACKBONE|DICT|INTERRES
     7    4    5 1    
     8    4  130 1    
     9    5    6 1    
    10    5   65 1    
    11    5  131 1    
    12    6    7 1    
    13    6  132 1    
    14    6  133 1    
    15    7    8 1    
    16    8    9 1    
    17    8  134 1    
    18    8  135 1    
    19    9   10 ar   
    20    9   14 ar   
    21   10   11 ar   
    22   10  136 1    
    23   11   12 ar   
    24   11  126 1    
    25   12   13 ar   
    26   12  137 1    
    27   13   14 ar   
    28   13   15 1    
    29   14  138 1    
    30   15   16 1    
    31   15  139 1    
    32   15  140 1    
    33   16   17 1    
    34   17   18 1    
    35   17  141 1    
    36   17  142 1    
    37   18   19 1    
    38   18   67 1    
    39   18  143 1    
    40   19   20 am   BACKBONE|DICT|INTERRES
    41   19  144 1    
    42   20   21 2    
    43   20   22 1    
    44   22   23 1    
    45   22   24 1    
    46   22  145 1    
    47   23  146 1    
    48   23  147 1    
    49   23  148 1    
    50   24   25 am   BACKBONE|DICT|INTERRES
    51   24  149 1    
    52   25   26 2    
    53   25   27 1    
    54   27   28 1    
    55   27   29 1    
    56   27  150 1    
    57   28  151 1    
    58   28  152 1    
    59   28  153 1    
    60   29   30 am   BACKBONE|DICT|INTERRES
    61   29  154 1    
    62   30   31 2    
    63   30   32 1    
    64   32   33 1    
    65   32   34 1    
    66   32  155 1    
    67   33  156 1    
    68   33  157 1    
    69   33  158 1    
    70   34   35 am   BACKBONE|DICT|INTERRES
    71   34  159 1    
    72   35   36 2    
    73   35   37 1    
    74   37   38 1    
    75   37   39 1    
    76   37  160 1    
    77   38  161 1    
    78   38  162 1    
    79   38  163 1    
    80   39   40 am   BACKBONE|DICT|INTERRES
    81   39  164 1    
    82   40   41 2    
    83   40   42 1    
    84   42   43 1    
    85   42   44 1    
    86   42  165 1    
    87   43  166 1    
    88   43  167 1    
    89   43  168 1    
    90   44   45 am   BACKBONE|DICT|INTERRES
    91   44  169 1    
    92   45   46 2    
    93   45   47 1    
    94   47   48 1    
    95   47   49 1    
    96   47  170 1    
    97   48  171 1    
    98   48  172 1    
    99   48  173 1    
   100   49   50 am   BACKBONE|DICT|INTERRES
   101   49  174 1    
   102   50   51 2    
   103   50   52 1    
   104   52   53 1    
   105   52   54 1    
   106   52  175 1    
   107   53  176 1    
   108   53  177 1    
   109   53  178 1    
   110   54   55 am   BACKBONE|DICT|INTERRES
   111   54  179 1    
   112   55   56 2    
   113   55   57 1    
   114   57   58 1    
   115   57   59 1    
   116   57  180 1    
   117   58  181 1    
   118   58  182 1    
   119   58  183 1    
   120   59   60 am   BACKBONE|DICT|INTERRES
   121   59  184 1    
   122   60   61 2    
   123   60   62 1    
   124   62   63 1    
   125   62   64 1    
   126   62  185 1    
   127   63  186 1    
   128   63  187 1    
   129   63  188 1    
   130   64   65 am   BACKBONE|DICT|INTERRES
   131   64  189 1    
   132   65   66 2    
   133   67   68 2    
   134   67   69 am   BACKBONE|DICT|INTERRES
   135   69   70 1    
   136   69  190 1    
   137   70   71 1    
   138   70   72 1    
   139   70  191 1    
   140   71  192 1    
   141   71  193 1    
   142   71  194 1    
   143   72   73 2    
   144   72   74 am   BACKBONE|DICT|INTERRES
   145   74   75 1    
   146   74  195 1    
   147   75   76 1    
   148   75   77 1    
   149   75  196 1    
   150   76  197 1    
   151   76  198 1    
   152   76  199 1    
   153   77   78 2    
   154   77   79 am   BACKBONE|DICT|INTERRES
   155   79   80 1    
   156   79  200 1    
   157   80   81 1    
   158   80   82 1    
   159   80  201 1    
   160   81  202 1    
   161   81  203 1    
   162   81  204 1    
   163   82   83 2    
   164   82   84 am   BACKBONE|DICT|INTERRES
   165   84   85 1    
   166   84  205 1    
   167   85   86 1    
   168   85   87 1    
   169   85  206 1    
   170   86  207 1    
   171   86  208 1    
   172   86  209 1    
   173   87   88 2    
   174   87   89 am   BACKBONE|DICT|INTERRES
   175   89   90 1    
   176   89  210 1    
   177   90   91 1    
   178   90   92 1    
   179   90  211 1    
   180   91  212 1    
   181   91  213 1    
   182   91  214 1    
   183   92   93 2    
   184   92   94 am   BACKBONE|DICT|INTERRES
   185   94   95 1    
   186   94  215 1    
   187   95   96 1    
   188   95   97 1    
   189   95  216 1    
   190   96  217 1    
   191   96  218 1    
   192   96  219 1    
   193   97   98 2    
   194   97   99 am   BACKBONE|DICT|INTERRES
   195   99  100 1    
   196   99  220 1    
   197  100  101 1    
   198  100  102 1    
   199  100  221 1    
   200  101  222 1    
   201  101  223 1    
   202  101  224 1    
   203  102  103 2    
   204  102  104 am   BACKBONE|DICT|INTERRES
   205  104  105 1    
   206  104  225 1    
   207  105  106 1    
   208  105  107 1    
   209  105  226 1    
   210  106  227 1    
   211  106  228 1    
   212  106  229 1    
   213  107  108 2    
   214  107  109 am   BACKBONE|DICT|INTERRES
   215  109  110 1    
   216  109  230 1    
   217  110  111 1    
   218  110  112 1    
   219  110  231 1    
   220  111  232 1    
   221  111  233 1    
   222  111  234 1    
   223  112  113 2    
   224  112  114 am   BACKBONE|DICT|INTERRES
   225  114  115 1    
   226  114  235 1    
   227  115  116 1    
   228  115  117 1    
   229  115  236 1    
   230  116  237 1    
   231  116  238 1    
   232  116  239 1    
   233  117  118 2    
   234  117  119 am   BACKBONE|DICT|INTERRES
   235  119  120 1    
   236  119  240 1    
   237  120  121 1    
   238  120  124 1    
   239  120  241 1    
   240  121  122 am   BACKBONE|DICT|INTERRES
   241  121  123 2    
   242  122  242 1    
   243  122  243 1    
   244  124  125 1    
   245  124  244 1    
   246  124  245 1    
   247  125  126 1    
   248  126  246 1    
   249  126  247 1    
@<TRIPOS>SUBSTRUCTURE
     1 UNK         1 GROUP             0       ****    0 ROOT    
