@<TRIPOS>MOLECULE
3R540
247   249    1
SMALL
USER_CHARGES


@<TRIPOS>ATOM
      1 CA          9.2408   -8.9611  -46.7612 C.3       0 UNK        -0.1800 
      2 C           7.9975   -9.7618  -46.3997 C.2       0 UNK         0.5000 
      3 O           7.6900   -9.9158  -45.2173 O.2       0 UNK        -0.5000 
      4 N           7.2867  -10.2775  -47.4103 N.am      1 UNK        -0.5000 
      5 CA          6.0320  -11.0165  -47.2606 C.3       1 UNK         0.1400 
      6 C6          5.6824  -11.7896  -48.5576 C.3       23 UNK        -0.0398 
      7 S7          4.2893  -12.9486  -48.3411 S.3       23 UNK        -0.2404 
      8 C8          4.9438  -14.4778  -49.0744 C.3       23 UNK        -0.0205 
      9 C9          3.9011  -15.5852  -49.0404 C.ar      23 UNK        -0.0193 
     10 C10         2.9953  -15.7384  -50.0961 C.ar      23 UNK        -0.1150 
     11 C11         2.0298  -16.7504  -50.0620 C.ar      23 UNK        -0.0193 
     12 C12         1.9707  -17.6040  -48.9582 C.ar      23 UNK        -0.1150 
     13 C13         2.8785  -17.4715  -47.9041 C.ar      23 UNK        -0.0193 
     14 C14         3.8415  -16.4600  -47.9517 C.ar      23 UNK        -0.1150 
     15 C15         2.8210  -18.4183  -46.7148 C.3       23 UNK        -0.0205 
     16 S16         4.0152  -19.7825  -46.8761 S.3       23 UNK        -0.2404 
     17 C17         3.2009  -20.8142  -48.1430 C.3       23 UNK        -0.0398 
     18 CA          2.7582  -22.1998  -47.6170 C.3       11 UNK         0.1400 
     19 N           1.9205  -22.1276  -46.4168 N.am      11 UNK        -0.5000 
     20 C           1.8295  -23.1039  -45.5027 C.2       10 UNK         0.5000 
     21 O           2.4504  -24.1652  -45.5676 O.2       10 UNK        -0.5000 
     22 CA          0.8792  -22.8585  -44.3183 C.3       10 UNK         0.1400 
     23 CB          1.5912  -22.0772  -43.2029 C.3       10 UNK        -0.1800 
     24 N          -0.3245  -22.1417  -44.7385 N.am      10 UNK        -0.5000 
     25 C          -1.3618  -22.7358  -45.3467 C.2       9 UNK         0.5000 
     26 O          -1.4439  -23.9543  -45.5085 O.2       9 UNK        -0.5000 
     27 CA         -2.5154  -21.8467  -45.8511 C.3       9 UNK         0.1400 
     28 CB         -3.7737  -22.0559  -44.9947 C.3       9 UNK        -0.1800 
     29 N          -2.2133  -20.4191  -45.8973 N.am      9 UNK        -0.5000 
     30 C          -1.3626  -19.8224  -46.7426 C.2       8 UNK         0.5000 
     31 O          -0.6685  -20.4157  -47.5709 O.2       8 UNK        -0.5000 
     32 CA         -1.2497  -18.2945  -46.5847 C.3       8 UNK         0.1400 
     33 CB         -2.4510  -17.6260  -47.2707 C.3       8 UNK        -0.1800 
     34 N          -1.1781  -17.8375  -45.1889 N.am      8 UNK        -0.5000 
     35 C          -0.3367  -18.3008  -44.2517 C.2       7 UNK         0.5000 
     36 O           0.4372  -19.2406  -44.4384 O.2       7 UNK        -0.5000 
     37 CA         -0.3767  -17.5996  -42.8845 C.3       7 UNK         0.1400 
     38 CB          0.7254  -18.1025  -41.9274 C.3       7 UNK        -0.1800 
     39 N          -0.2730  -16.1503  -43.0511 N.am      7 UNK        -0.5000 
     40 C          -0.6627  -15.2490  -42.1365 C.2       6 UNK         0.5000 
     41 O          -1.2737  -15.5569  -41.1111 O.2       6 UNK        -0.5000 
     42 CA         -0.3176  -13.7610  -42.3956 C.3       6 UNK         0.1400 
     43 CB         -0.1271  -12.9582  -41.0920 C.3       6 UNK        -0.1800 
     44 N           0.8278  -13.5613  -43.2895 N.am      6 UNK        -0.5000 
     45 C           2.0821  -14.0156  -43.1378 C.2       5 UNK         0.5000 
     46 O           2.4929  -14.5657  -42.1152 O.2       5 UNK        -0.5000 
     47 CA          3.0255  -13.8505  -44.3526 C.3       5 UNK         0.1400 
     48 CB          4.0463  -14.9986  -44.4622 C.3       5 UNK        -0.1800 
     49 N           2.3336  -13.6661  -45.6372 N.am      5 UNK        -0.5000 
     50 C           1.4156  -14.4634  -46.2086 C.2       4 UNK         0.5000 
     51 O           1.0084  -15.5081  -45.6983 O.2       4 UNK        -0.5000 
     52 CA          0.7982  -13.9440  -47.5209 C.3       4 UNK         0.1400 
     53 CB         -0.5651  -14.5765  -47.8349 C.3       4 UNK        -0.1800 
     54 N           0.6718  -12.4901  -47.4627 N.am      4 UNK        -0.5000 
     55 C           0.7098  -11.6435  -48.4938 C.2       3 UNK         0.5000 
     56 O           0.7859  -11.9937  -49.6714 O.2       3 UNK        -0.5000 
     57 CA          0.6883  -10.1418  -48.1442 C.3       3 UNK         0.1400 
     58 CB         -0.7170   -9.6831  -47.7090 C.3       3 UNK        -0.1800 
     59 N           1.7157   -9.7455  -47.1689 N.am      3 UNK        -0.5000 
     60 C           1.8358  -10.0718  -45.8742 C.2       2 UNK         0.5000 
     61 O           1.0408  -10.7951  -45.2689 O.2       2 UNK        -0.5000 
     62 CA          3.1174   -9.5772  -45.1743 C.3       2 UNK         0.1400 
     63 CB          3.0536   -9.7385  -43.6445 C.3       2 UNK        -0.1800 
     64 N           4.2863  -10.2997  -45.6818 N.am      2 UNK        -0.5000 
     65 C           4.8994  -10.0514  -46.8468 C.2       1 UNK         0.5000 
     66 O           4.5864   -9.1226  -47.5963 O.2       1 UNK        -0.5000 
     67 C           2.0197  -22.9779  -48.7194 C.2       11 UNK         0.5000 
     68 O           2.5532  -23.9548  -49.2470 O.2       11 UNK        -0.5000 
     69 N           0.7899  -22.5435  -49.0255 N.am      12 UNK        -0.5000 
     70 CA         -0.1199  -23.2066  -49.9505 C.3       12 UNK         0.1400 
     71 CB         -0.9424  -22.1386  -50.6919 C.3       12 UNK        -0.1800 
     72 C          -0.9966  -24.1532  -49.1242 C.2       12 UNK         0.5000 
     73 O          -2.0891  -23.7586  -48.7188 O.2       12 UNK        -0.5000 
     74 N          -0.4589  -25.3484  -48.8447 N.am      13 UNK        -0.5000 
     75 CA         -0.9430  -26.3675  -47.9063 C.3       13 UNK         0.1400 
     76 CB         -0.2879  -27.7123  -48.2594 C.3       13 UNK        -0.1800 
     77 C          -2.4754  -26.5169  -47.8217 C.2       13 UNK         0.5000 
     78 O          -3.1023  -26.9801  -48.7772 O.2       13 UNK        -0.5000 
     79 N          -3.0362  -26.0911  -46.6816 N.am      14 UNK        -0.5000 
     80 CA         -4.4602  -26.1068  -46.3314 C.3       14 UNK         0.1400 
     81 CB         -4.9762  -27.5561  -46.2056 C.3       14 UNK        -0.1800 
     82 C          -5.3191  -25.2424  -47.2770 C.2       14 UNK         0.5000 
     83 O          -6.4228  -25.6443  -47.6436 O.2       14 UNK        -0.5000 
     84 N          -4.7765  -24.0827  -47.6755 N.am      15 UNK        -0.5000 
     85 CA         -5.3199  -23.1410  -48.6610 C.3       15 UNK         0.1400 
     86 CB         -6.6504  -22.5250  -48.1799 C.3       15 UNK        -0.1800 
     87 C          -5.4096  -23.7959  -50.0514 C.2       15 UNK         0.5000 
     88 O          -6.4673  -23.7841  -50.6829 O.2       15 UNK        -0.5000 
     89 N          -4.2885  -24.4022  -50.4661 N.am      16 UNK        -0.5000 
     90 CA         -4.0993  -25.1808  -51.6932 C.3       16 UNK         0.1400 
     91 CB         -4.0885  -24.2467  -52.9213 C.3       16 UNK        -0.1800 
     92 C          -5.1133  -26.3399  -51.8076 C.2       16 UNK         0.5000 
     93 O          -5.7594  -26.5009  -52.8436 O.2       16 UNK        -0.5000 
     94 N          -5.2448  -27.1017  -50.7112 N.am      17 UNK        -0.5000 
     95 CA         -6.2233  -28.1691  -50.4821 C.3       17 UNK         0.1400 
     96 CB         -5.9433  -29.3775  -51.4000 C.3       17 UNK        -0.1800 
     97 C          -7.6793  -27.6592  -50.5649 C.2       17 UNK         0.5000 
     98 O          -8.4952  -28.2183  -51.3007 O.2       17 UNK        -0.5000 
     99 N          -7.9649  -26.6002  -49.7934 N.am      18 UNK        -0.5000 
    100 CA        -9.2496  -25.9097  -49.6477 C.3       18 UNK         0.1400 
    101 CB       -10.2708  -26.8171  -48.9303 C.3       18 UNK        -0.1800 
    102 C         -9.7849  -25.3154  -50.9679 C.2       18 UNK         0.5000 
    103 O        -10.9826  -25.4073  -51.2464 O.2       18 UNK        -0.5000 
    104 N         -8.8860  -24.7131  -51.7542 N.am      19 UNK        -0.5000 
    105 CA        -9.1927  -24.0486  -53.0164 C.3       19 UNK         0.1400 
    106 CB        -8.1566  -24.4502  -54.0775 C.3       19 UNK        -0.1800 
    107 C         -9.2325  -22.5255  -52.8253 C.2       19 UNK         0.5000 
    108 O        -10.2618  -21.9126  -53.1124 O.2       19 UNK        -0.5000 
    109 N         -8.1293  -21.9428  -52.3365 N.am      20 UNK        -0.5000 
    110 CA        -7.9438  -20.5067  -52.1352 C.3       20 UNK         0.1400 
    111 CB        -7.9591  -19.7526  -53.4815 C.3       20 UNK        -0.1800 
    112 C         -6.6044  -20.2522  -51.4328 C.2       20 UNK         0.5000 
    113 O         -5.6387  -20.9850  -51.6623 O.2       20 UNK        -0.5000 
    114 N         -6.5491  -19.1803  -50.6324 N.am      21 UNK        -0.5000 
    115 CA        -5.3271  -18.6550  -50.0208 C.3       21 UNK         0.1400 
    116 CB        -5.6910  -17.4589  -49.1269 C.3       21 UNK        -0.1800 
    117 C         -4.3052  -18.2490  -51.1005 C.2       21 UNK         0.5000 
    118 O         -4.6392  -17.4416  -51.9703 O.2       21 UNK        -0.5000 
    119 N         -3.1126  -18.8553  -51.0460 N.am      22 UNK        -0.5000 
    120 CA        -2.0576  -18.7764  -52.0746 C.3       22 UNK         0.1400 
    121 C         -2.4144  -19.4850  -53.4206 C.2       22 UNK         0.5000 
    122 N         -3.4473  -20.3177  -53.4919 N.am      22 UNK        -0.7600 
    123 O         -1.7190  -19.3105  -54.4176 O.2       22 UNK        -0.5000 
    124 C124       -1.4843  -17.3426  -52.2787 C.3       23 UNK        -0.0398 
    125 S125       -0.6622  -16.7053  -50.7792 S.3       23 UNK        -0.2404 
    126 C126        1.0824  -16.9643  -51.2335 C.3       23 UNK        -0.0205 
    127 H127       10.1237   -9.4157  -46.3118 H         1 UNK         0.0600 
    128 H128        9.1524   -7.9415  -46.3860 H         1 UNK         0.0600 
    129 H129        9.3940   -8.9144  -47.8398 H         1 UNK         0.0600 
    130 H130        7.5750  -10.0895  -48.3600 H         1 UNK         0.3000 
    131 H131        6.1770  -11.7518  -46.4657 H         1 UNK         0.0600 
    132 H132        5.4427  -11.1034  -49.3721 H         1 UNK         0.0800 
    133 H133        6.5552  -12.3538  -48.8892 H         1 UNK         0.0800 
    134 H134        5.2507  -14.2861  -50.1038 H         1 UNK         0.0800 
    135 H135        5.8396  -14.7877  -48.5338 H         1 UNK         0.0800 
    136 H136        3.0450  -15.0694  -50.9438 H         1 UNK         0.1150 
    137 H137        1.2177  -18.3786  -48.9318 H         1 UNK         0.1150 
    138 H138        4.5443  -16.3544  -47.1380 H         1 UNK         0.1150 
    139 H139        3.0243  -17.8704  -45.7950 H         1 UNK         0.0800 
    140 H140        1.8187  -18.8294  -46.6036 H         1 UNK         0.0800 
    141 H141        3.9027  -20.9342  -48.9701 H         1 UNK         0.0800 
    142 H142        2.3468  -20.2801  -48.5550 H         1 UNK         0.0800 
    143 H143        3.6662  -22.7557  -47.3721 H         1 UNK         0.0600 
    144 H144        1.3655  -21.2924  -46.2954 H         1 UNK         0.3000 
    145 H145        0.5889  -23.8292  -43.9100 H         1 UNK         0.0600 
    146 H146        0.9146  -21.8600  -42.3764 H         1 UNK         0.0600 
    147 H147        2.4244  -22.6538  -42.7995 H         1 UNK         0.0600 
    148 H148        1.9976  -21.1318  -43.5630 H         1 UNK         0.0600 
    149 H149       -0.3075  -21.1318  -44.6433 H         1 UNK         0.3000 
    150 H150       -2.7432  -22.1600  -46.8689 H         1 UNK         0.0600 
    151 H151       -4.0480  -23.1101  -44.9446 H         1 UNK         0.0600 
    152 H152       -4.6275  -21.5213  -45.4115 H         1 UNK         0.0600 
    153 H153       -3.6248  -21.7088  -43.9716 H         1 UNK         0.0600 
    154 H154       -2.7032  -19.8371  -45.2339 H         1 UNK         0.3000 
    155 H155       -0.3376  -17.9639  -47.0820 H         1 UNK         0.0600 
    156 H156       -2.4338  -17.8130  -48.3447 H         1 UNK         0.0600 
    157 H157       -2.4516  -16.5469  -47.1292 H         1 UNK         0.0600 
    158 H158       -3.3989  -18.0022  -46.8840 H         1 UNK         0.0600 
    159 H159       -1.7679  -17.0552  -44.9460 H         1 UNK         0.3000 
    160 H160       -1.3476  -17.8391  -42.4464 H         1 UNK         0.0600 
    161 H161        1.7200  -17.8766  -42.3140 H         1 UNK         0.0600 
    162 H162        0.6625  -19.1821  -41.7857 H         1 UNK         0.0600 
    163 H163        0.6393  -17.6453  -40.9418 H         1 UNK         0.0600 
    164 H164        0.2053  -15.8385  -43.8935 H         1 UNK         0.3000 
    165 H165       -1.1802  -13.3424  -42.9155 H         1 UNK         0.0600 
    166 H166        0.6785  -13.3654  -40.4806 H         1 UNK         0.0600 
    167 H167        0.1064  -11.9145  -41.3030 H         1 UNK         0.0600 
    168 H168       -1.0344  -12.9694  -40.4870 H         1 UNK         0.0600 
    169 H169        0.6184  -13.0881  -44.1570 H         1 UNK         0.3000 
    170 H170        3.5859  -12.9334  -44.1733 H         1 UNK         0.0600 
    171 H171        4.6640  -15.0656  -43.5660 H         1 UNK         0.0600 
    172 H172        3.5522  -15.9608  -44.5910 H         1 UNK         0.0600 
    173 H173        4.7196  -14.8456  -45.3052 H         1 UNK         0.0600 
    174 H174        2.5949  -12.8390  -46.1537 H         1 UNK         0.3000 
    175 H175        1.4900  -14.2059  -48.3207 H         1 UNK         0.0600 
    176 H176       -1.2879  -14.3894  -47.0404 H         1 UNK         0.0600 
    177 H177       -0.9785  -14.1923  -48.7673 H         1 UNK         0.0600 
    178 H178       -0.4590  -15.6540  -47.9518 H         1 UNK         0.0600 
    179 H179        0.6229  -12.0755  -46.5348 H         1 UNK         0.3000 
    180 H180        0.9340   -9.6047  -49.0617 H         1 UNK         0.0600 
    181 H181       -1.0513  -10.1829  -46.7997 H         1 UNK         0.0600 
    182 H182       -1.4518   -9.8988  -48.4855 H         1 UNK         0.0600 
    183 H183       -0.7412   -8.6085  -47.5284 H         1 UNK         0.0600 
    184 H184        2.4924   -9.2269  -47.5661 H         1 UNK         0.3000 
    185 H185        3.2281   -8.5126  -45.3914 H         1 UNK         0.0600 
    186 H186        2.9448  -10.7807  -43.3444 H         1 UNK         0.0600 
    187 H187        3.9529   -9.3458  -43.1698 H         1 UNK         0.0600 
    188 H188        2.2049   -9.1913  -43.2321 H         1 UNK         0.0600 
    189 H189        4.6276  -11.0561  -45.1080 H         1 UNK         0.3000 
    190 H190        0.3872  -21.7733  -48.4978 H         1 UNK         0.3000 
    191 H191        0.4301  -23.7881  -50.6936 H         1 UNK         0.0600 
    192 H192       -0.2956  -21.5146  -51.3077 H         1 UNK         0.0600 
    193 H193       -1.6766  -22.5986  -51.3530 H         1 UNK         0.0600 
    194 H194       -1.4824  -21.4878  -50.0033 H         1 UNK         0.0600 
    195 H195        0.4584  -25.5303  -49.2271 H         1 UNK         0.3000 
    196 H196       -0.5742  -26.0776  -46.9209 H         1 UNK         0.0600 
    197 H197        0.7985  -27.6542  -48.1898 H         1 UNK         0.0600 
    198 H198       -0.5434  -28.0289  -49.2715 H         1 UNK         0.0600 
    199 H199       -0.6142  -28.4985  -47.5772 H         1 UNK         0.0600 
    200 H200       -2.4316  -25.6150  -46.0176 H         1 UNK         0.3000 
    201 H201       -4.5378  -25.6444  -45.3466 H         1 UNK         0.0600 
    202 H202       -5.9969  -27.5760  -45.8218 H         1 UNK         0.0600 
    203 H203       -4.3609  -28.1346  -45.5167 H         1 UNK         0.0600 
    204 H204       -4.9794  -28.0721  -47.1659 H         1 UNK         0.0600 
    205 H205       -3.8078  -23.9228  -47.4277 H         1 UNK         0.3000 
    206 H206       -4.5965  -22.3291  -48.7506 H         1 UNK         0.0600 
    207 H207       -6.5397  -22.0700  -47.1959 H         1 UNK         0.0600 
    208 H208       -7.4481  -23.2651  -48.1197 H         1 UNK         0.0600 
    209 H209       -6.9859  -21.7443  -48.8622 H         1 UNK         0.0600 
    210 H210       -3.4877  -24.3548  -49.8425 H         1 UNK         0.3000 
    211 H211       -3.1142  -25.6438  -51.6198 H         1 UNK         0.0600 
    212 H212       -3.2877  -23.5119  -52.8494 H         1 UNK         0.0600 
    213 H213       -3.9302  -24.8072  -53.8431 H         1 UNK         0.0600 
    214 H214       -5.0245  -23.6990  -53.0233 H         1 UNK         0.0600 
    215 H215       -4.6174  -26.9128  -49.9325 H         1 UNK         0.3000 
    216 H216       -6.0746  -28.5005  -49.4535 H         1 UNK         0.0600 
    217 H217       -6.5979  -30.2137  -51.1521 H         1 UNK         0.0600 
    218 H218       -6.1049  -29.1378  -52.4513 H         1 UNK         0.0600 
    219 H219       -4.9164  -29.7256  -51.2893 H         1 UNK         0.0600 
    220 H220       -7.2279  -26.2299  -49.1967 H         1 UNK         0.3000 
    221 H221       -9.0563  -25.0578  -48.9945 H         1 UNK         0.0600 
    222 H222      -10.5476  -27.6771  -49.5408 H         1 UNK         0.0600 
    223 H223       -9.8708  -27.1895  -47.9871 H         1 UNK         0.0600 
    224 H224      -11.1860  -26.2707  -48.6995 H         1 UNK         0.0600 
    225 H225       -7.9331  -24.6098  -51.4101 H         1 UNK         0.3000 
    226 H226      -10.1716  -24.3642  -53.3831 H         1 UNK         0.0600 
    227 H227       -8.1742  -25.5260  -54.2532 H         1 UNK         0.0600 
    228 H228       -8.3605  -23.9593  -55.0297 H         1 UNK         0.0600 
    229 H229       -7.1444  -24.1820  -53.7784 H         1 UNK         0.0600 
    230 H230       -7.3397  -22.5152  -52.0480 H         1 UNK         0.3000 
    231 H231       -8.7512  -20.1395  -51.4986 H         1 UNK         0.0600 
    232 H232       -7.7319  -18.6948  -53.3420 H         1 UNK         0.0600 
    233 H233       -8.9328  -19.8044  -53.9674 H         1 UNK         0.0600 
    234 H234       -7.2178  -20.1566  -54.1723 H         1 UNK         0.0600 
    235 H235       -7.3749  -18.6092  -50.5285 H         1 UNK         0.3000 
    236 H236       -4.8963  -19.4378  -49.3927 H         1 UNK         0.0600 
    237 H237       -6.3232  -17.7668  -48.2939 H         1 UNK         0.0600 
    238 H238       -4.8002  -16.9935  -48.7063 H         1 UNK         0.0600 
    239 H239       -6.2227  -16.6874  -49.6854 H         1 UNK         0.0600 
    240 H240       -2.9397  -19.5200  -50.3074 H         1 UNK         0.3000 
    241 H241       -1.2391  -19.3779  -51.6812 H         1 UNK         0.0600 
    242 H242       -3.6435  -20.7710  -54.3691 H         1 UNK         0.3800 
    243 H243       -4.0574  -20.4910  -52.6992 H         1 UNK         0.3800 
    244 H244       -0.7616  -17.3237  -53.0957 H         1 UNK         0.0800 
    245 H245       -2.2679  -16.6442  -52.5716 H         1 UNK         0.0800 
    246 H246        1.3362  -16.2997  -52.0608 H         1 UNK         0.0800 
    247 H247        1.2120  -17.9830  -51.6022 H         1 UNK         0.0800 
@<TRIPOS>BOND
     1    1    2 1    
     2    1  127 1    
     3    1  128 1    
     4    1  129 1    
     5    2    3 2    
     6    2    4 am   BACKBONE|DICT|INTERRES
     7    4    5 1    
     8    4  130 1    
     9    5    6 1    
    10    5   65 1    
    11    5  131 1    
    12    6    7 1    
    13    6  132 1    
    14    6  133 1    
    15    7    8 1    
    16    8    9 1    
    17    8  134 1    
    18    8  135 1    
    19    9   10 ar   
    20    9   14 ar   
    21   10   11 ar   
    22   10  136 1    
    23   11   12 ar   
    24   11  126 1    
    25   12   13 ar   
    26   12  137 1    
    27   13   14 ar   
    28   13   15 1    
    29   14  138 1    
    30   15   16 1    
    31   15  139 1    
    32   15  140 1    
    33   16   17 1    
    34   17   18 1    
    35   17  141 1    
    36   17  142 1    
    37   18   19 1    
    38   18   67 1    
    39   18  143 1    
    40   19   20 am   BACKBONE|DICT|INTERRES
    41   19  144 1    
    42   20   21 2    
    43   20   22 1    
    44   22   23 1    
    45   22   24 1    
    46   22  145 1    
    47   23  146 1    
    48   23  147 1    
    49   23  148 1    
    50   24   25 am   BACKBONE|DICT|INTERRES
    51   24  149 1    
    52   25   26 2    
    53   25   27 1    
    54   27   28 1    
    55   27   29 1    
    56   27  150 1    
    57   28  151 1    
    58   28  152 1    
    59   28  153 1    
    60   29   30 am   BACKBONE|DICT|INTERRES
    61   29  154 1    
    62   30   31 2    
    63   30   32 1    
    64   32   33 1    
    65   32   34 1    
    66   32  155 1    
    67   33  156 1    
    68   33  157 1    
    69   33  158 1    
    70   34   35 am   BACKBONE|DICT|INTERRES
    71   34  159 1    
    72   35   36 2    
    73   35   37 1    
    74   37   38 1    
    75   37   39 1    
    76   37  160 1    
    77   38  161 1    
    78   38  162 1    
    79   38  163 1    
    80   39   40 am   BACKBONE|DICT|INTERRES
    81   39  164 1    
    82   40   41 2    
    83   40   42 1    
    84   42   43 1    
    85   42   44 1    
    86   42  165 1    
    87   43  166 1    
    88   43  167 1    
    89   43  168 1    
    90   44   45 am   BACKBONE|DICT|INTERRES
    91   44  169 1    
    92   45   46 2    
    93   45   47 1    
    94   47   48 1    
    95   47   49 1    
    96   47  170 1    
    97   48  171 1    
    98   48  172 1    
    99   48  173 1    
   100   49   50 am   BACKBONE|DICT|INTERRES
   101   49  174 1    
   102   50   51 2    
   103   50   52 1    
   104   52   53 1    
   105   52   54 1    
   106   52  175 1    
   107   53  176 1    
   108   53  177 1    
   109   53  178 1    
   110   54   55 am   BACKBONE|DICT|INTERRES
   111   54  179 1    
   112   55   56 2    
   113   55   57 1    
   114   57   58 1    
   115   57   59 1    
   116   57  180 1    
   117   58  181 1    
   118   58  182 1    
   119   58  183 1    
   120   59   60 am   BACKBONE|DICT|INTERRES
   121   59  184 1    
   122   60   61 2    
   123   60   62 1    
   124   62   63 1    
   125   62   64 1    
   126   62  185 1    
   127   63  186 1    
   128   63  187 1    
   129   63  188 1    
   130   64   65 am   BACKBONE|DICT|INTERRES
   131   64  189 1    
   132   65   66 2    
   133   67   68 2    
   134   67   69 am   BACKBONE|DICT|INTERRES
   135   69   70 1    
   136   69  190 1    
   137   70   71 1    
   138   70   72 1    
   139   70  191 1    
   140   71  192 1    
   141   71  193 1    
   142   71  194 1    
   143   72   73 2    
   144   72   74 am   BACKBONE|DICT|INTERRES
   145   74   75 1    
   146   74  195 1    
   147   75   76 1    
   148   75   77 1    
   149   75  196 1    
   150   76  197 1    
   151   76  198 1    
   152   76  199 1    
   153   77   78 2    
   154   77   79 am   BACKBONE|DICT|INTERRES
   155   79   80 1    
   156   79  200 1    
   157   80   81 1    
   158   80   82 1    
   159   80  201 1    
   160   81  202 1    
   161   81  203 1    
   162   81  204 1    
   163   82   83 2    
   164   82   84 am   BACKBONE|DICT|INTERRES
   165   84   85 1    
   166   84  205 1    
   167   85   86 1    
   168   85   87 1    
   169   85  206 1    
   170   86  207 1    
   171   86  208 1    
   172   86  209 1    
   173   87   88 2    
   174   87   89 am   BACKBONE|DICT|INTERRES
   175   89   90 1    
   176   89  210 1    
   177   90   91 1    
   178   90   92 1    
   179   90  211 1    
   180   91  212 1    
   181   91  213 1    
   182   91  214 1    
   183   92   93 2    
   184   92   94 am   BACKBONE|DICT|INTERRES
   185   94   95 1    
   186   94  215 1    
   187   95   96 1    
   188   95   97 1    
   189   95  216 1    
   190   96  217 1    
   191   96  218 1    
   192   96  219 1    
   193   97   98 2    
   194   97   99 am   BACKBONE|DICT|INTERRES
   195   99  100 1    
   196   99  220 1    
   197  100  101 1    
   198  100  102 1    
   199  100  221 1    
   200  101  222 1    
   201  101  223 1    
   202  101  224 1    
   203  102  103 2    
   204  102  104 am   BACKBONE|DICT|INTERRES
   205  104  105 1    
   206  104  225 1    
   207  105  106 1    
   208  105  107 1    
   209  105  226 1    
   210  106  227 1    
   211  106  228 1    
   212  106  229 1    
   213  107  108 2    
   214  107  109 am   BACKBONE|DICT|INTERRES
   215  109  110 1    
   216  109  230 1    
   217  110  111 1    
   218  110  112 1    
   219  110  231 1    
   220  111  232 1    
   221  111  233 1    
   222  111  234 1    
   223  112  113 2    
   224  112  114 am   BACKBONE|DICT|INTERRES
   225  114  115 1    
   226  114  235 1    
   227  115  116 1    
   228  115  117 1    
   229  115  236 1    
   230  116  237 1    
   231  116  238 1    
   232  116  239 1    
   233  117  118 2    
   234  117  119 am   BACKBONE|DICT|INTERRES
   235  119  120 1    
   236  119  240 1    
   237  120  121 1    
   238  120  124 1    
   239  120  241 1    
   240  121  122 am   BACKBONE|DICT|INTERRES
   241  121  123 2    
   242  122  242 1    
   243  122  243 1    
   244  124  125 1    
   245  124  244 1    
   246  124  245 1    
   247  125  126 1    
   248  126  246 1    
   249  126  247 1    
@<TRIPOS>SUBSTRUCTURE
     1 UNK         1 GROUP             0       ****    0 ROOT    
