@<TRIPOS>MOLECULE
3R540
247   249    1
SMALL
USER_CHARGES


@<TRIPOS>ATOM
      1 CA         -2.6467  -13.5611  -46.6640 C.3       0 UNK        -0.1800 
      2 C          -1.6080  -12.8843  -47.5478 C.2       0 UNK         0.5000 
      3 O          -1.9145  -12.5206  -48.6831 O.2       0 UNK        -0.5000 
      4 N          -0.3924  -12.6928  -47.0284 N.am      1 UNK        -0.5000 
      5 CA          0.6855  -11.9367  -47.6602 C.3       1 UNK         0.1400 
      6 C6          1.4286  -12.7265  -48.7734 C.3       23 UNK        -0.0398 
      7 S7          2.3641  -14.1904  -48.1987 S.3       23 UNK        -0.2404 
      8 C8          2.4010  -15.2283  -49.6964 C.3       23 UNK        -0.0205 
      9 C9          1.4052  -16.3806  -49.6383 C.ar      23 UNK        -0.0193 
     10 C10         0.0361  -16.1302  -49.5015 C.ar      23 UNK        -0.1150 
     11 C11        -0.8776  -17.1856  -49.4614 C.ar      23 UNK        -0.0193 
     12 C12        -0.4182  -18.5002  -49.5704 C.ar      23 UNK        -0.1150 
     13 C13         0.9436  -18.7670  -49.7309 C.ar      23 UNK        -0.0193 
     14 C14         1.8512  -17.7029  -49.7564 C.ar      23 UNK        -0.1150 
     15 C15         1.4208  -20.2038  -49.9089 C.3       23 UNK        -0.0205 
     16 S16         2.3704  -20.8334  -48.4845 S.3       23 UNK        -0.2404 
     17 C17         1.1856  -20.6533  -47.1113 C.3       23 UNK        -0.0398 
     18 CA          0.4369  -21.9541  -46.7395 C.3       11 UNK         0.1400 
     19 N          -0.0588  -21.8999  -45.3628 N.am      11 UNK        -0.5000 
     20 C          -0.6700  -22.8971  -44.7099 C.2       10 UNK         0.5000 
     21 O          -0.8176  -24.0286  -45.1684 O.2       10 UNK        -0.5000 
     22 CA         -1.2685  -22.5495  -43.3356 C.3       10 UNK         0.1400 
     23 CB         -0.2183  -22.6879  -42.2233 C.3       10 UNK        -0.1800 
     24 N          -1.8354  -21.1996  -43.3192 N.am      10 UNK        -0.5000 
     25 C          -2.9524  -20.8445  -43.9703 C.2       9 UNK         0.5000 
     26 O          -3.6534  -21.6355  -44.6016 O.2       9 UNK        -0.5000 
     27 CA         -3.3158  -19.3477  -43.9529 C.3       9 UNK         0.1400 
     28 CB         -4.0164  -18.9714  -42.6394 C.3       9 UNK        -0.1800 
     29 N          -2.1446  -18.4903  -44.1488 N.am      9 UNK        -0.5000 
     30 C          -1.4594  -18.4157  -45.3004 C.2       8 UNK         0.5000 
     31 O          -1.7902  -19.0164  -46.3209 O.2       8 UNK        -0.5000 
     32 CA         -0.1674  -17.5736  -45.3149 C.3       8 UNK         0.1400 
     33 CB         -0.4685  -16.1491  -45.7954 C.3       8 UNK        -0.1800 
     34 N           0.5201  -17.5124  -44.0255 N.am      8 UNK        -0.5000 
     35 C           0.9304  -18.5593  -43.2976 C.2       7 UNK         0.5000 
     36 O           0.8419  -19.7246  -43.6831 O.2       7 UNK        -0.5000 
     37 CA          1.4753  -18.2726  -41.8835 C.3       7 UNK         0.1400 
     38 CB          3.0107  -18.2814  -41.8746 C.3       7 UNK        -0.1800 
     39 N           1.0026  -17.0175  -41.2919 N.am      7 UNK        -0.5000 
     40 C          -0.2706  -16.6784  -41.0496 C.2       6 UNK         0.5000 
     41 O          -1.2264  -17.4109  -41.3097 O.2       6 UNK        -0.5000 
     42 CA         -0.5324  -15.2743  -40.4612 C.3       6 UNK         0.1400 
     43 CB         -0.4513  -15.2875  -38.9229 C.3       6 UNK        -0.1800 
     44 N           0.2979  -14.2092  -41.0475 N.am      6 UNK        -0.5000 
     45 C           1.6203  -14.0164  -40.9408 C.2       5 UNK         0.5000 
     46 O           2.3647  -14.6915  -40.2263 O.2       5 UNK        -0.5000 
     47 CA          2.2305  -12.9486  -41.8712 C.3       5 UNK         0.1400 
     48 CB          2.9184  -11.8349  -41.0672 C.3       5 UNK        -0.1800 
     49 N           3.1964  -13.5410  -42.8005 N.am      5 UNK        -0.5000 
     50 C           2.9220  -14.5383  -43.6528 C.2       4 UNK         0.5000 
     51 O           1.8009  -15.0278  -43.7847 O.2       4 UNK        -0.5000 
     52 CA          4.0903  -15.0424  -44.5091 C.3       4 UNK         0.1400 
     53 CB          3.7409  -16.2817  -45.3583 C.3       4 UNK        -0.1800 
     54 N           4.5170  -13.9545  -45.3784 N.am      4 UNK        -0.5000 
     55 C           5.7798  -13.6973  -45.7362 C.2       3 UNK         0.5000 
     56 O           6.7454  -14.3604  -45.3553 O.2       3 UNK        -0.5000 
     57 CA          6.0151  -12.5020  -46.6816 C.3       3 UNK         0.1400 
     58 CB          6.2643  -12.9952  -48.1158 C.3       3 UNK        -0.1800 
     59 N           4.9097  -11.5420  -46.7014 N.am      3 UNK        -0.5000 
     60 C           4.6065  -10.6924  -45.7097 C.2       2 UNK         0.5000 
     61 O           5.2451  -10.6106  -44.6602 O.2       2 UNK        -0.5000 
     62 CA          3.3741   -9.7903  -45.9237 C.3       2 UNK         0.1400 
     63 CB          3.8025   -8.4117  -46.4493 C.3       2 UNK        -0.1800 
     64 N           2.3875  -10.3682  -46.8431 N.am      2 UNK        -0.5000 
     65 C           1.6244  -11.4295  -46.5511 C.2       1 UNK         0.5000 
     66 O           1.6591  -12.0119  -45.4641 O.2       1 UNK        -0.5000 
     67 C          -0.6996  -22.2694  -47.7365 C.2       11 UNK         0.5000 
     68 O          -0.5577  -23.1843  -48.5460 O.2       11 UNK        -0.5000 
     69 N          -1.8260  -21.5486  -47.6251 N.am      12 UNK        -0.5000 
     70 CA         -3.0381  -21.7704  -48.4149 C.3       12 UNK         0.1400 
     71 CB         -4.0529  -20.6550  -48.1352 C.3       12 UNK        -0.1800 
     72 C          -3.6727  -23.1504  -48.1703 C.2       12 UNK         0.5000 
     73 O          -4.1180  -23.7832  -49.1269 O.2       12 UNK        -0.5000 
     74 N          -3.6746  -23.6075  -46.9095 N.am      13 UNK        -0.5000 
     75 CA         -4.1444  -24.9371  -46.5164 C.3       13 UNK         0.1400 
     76 CB         -4.2323  -25.0320  -44.9861 C.3       13 UNK        -0.1800 
     77 C          -3.2704  -26.0661  -47.0940 C.2       13 UNK         0.5000 
     78 O          -3.8118  -27.0373  -47.6221 O.2       13 UNK        -0.5000 
     79 N          -1.9407  -25.8996  -47.0382 N.am      14 UNK        -0.5000 
     80 CA         -0.9581  -26.8024  -47.6479 C.3       14 UNK         0.1400 
     81 CB          0.4547  -26.3981  -47.2004 C.3       14 UNK        -0.1800 
     82 C          -1.0560  -26.8381  -49.1862 C.2       14 UNK         0.5000 
     83 O          -0.8808  -27.8976  -49.7880 O.2       14 UNK        -0.5000 
     84 N          -1.3896  -25.6878  -49.7838 N.am      15 UNK        -0.5000 
     85 CA         -1.6934  -25.5045  -51.2032 C.3       15 UNK         0.1400 
     86 CB         -1.5075  -24.0170  -51.5371 C.3       15 UNK        -0.1800 
     87 C          -3.1070  -25.9827  -51.6073 C.2       15 UNK         0.5000 
     88 O          -3.4877  -25.8097  -52.7690 O.2       15 UNK        -0.5000 
     89 N          -3.8719  -26.5335  -50.6497 N.am      16 UNK        -0.5000 
     90 CA         -5.2291  -27.0815  -50.7666 C.3       16 UNK         0.1400 
     91 CB         -5.2137  -28.3482  -51.6470 C.3       16 UNK        -0.1800 
     92 C          -6.2838  -26.0563  -51.2347 C.2       16 UNK         0.5000 
     93 O          -7.3129  -26.4497  -51.7862 O.2       16 UNK        -0.5000 
     94 N          -5.9901  -24.7606  -51.0430 N.am      17 UNK        -0.5000 
     95 CA         -6.6960  -23.5920  -51.5799 C.3       17 UNK         0.1400 
     96 CB         -8.0718  -23.4307  -50.9021 C.3       17 UNK        -0.1800 
     97 C          -6.7842  -23.5816  -53.1263 C.2       17 UNK         0.5000 
     98 O          -7.6851  -22.9493  -53.6808 O.2       17 UNK        -0.5000 
     99 N          -5.8682  -24.3003  -53.7921 N.am      18 UNK        -0.5000 
    100 CA        -5.8632  -24.5339  -55.2332 C.3       18 UNK         0.1400 
    101 CB        -5.9895  -26.0433  -55.4979 C.3       18 UNK        -0.1800 
    102 C         -4.5872  -23.9714  -55.8696 C.2       18 UNK         0.5000 
    103 O         -4.6788  -23.2206  -56.8414 O.2       18 UNK        -0.5000 
    104 N         -3.4204  -24.3204  -55.3070 N.am      19 UNK        -0.5000 
    105 CA        -2.1165  -23.8352  -55.7738 C.3       19 UNK         0.1400 
    106 CB        -1.0231  -24.8431  -55.3825 C.3       19 UNK        -0.1800 
    107 C         -1.7933  -22.4087  -55.2803 C.2       19 UNK         0.5000 
    108 O         -0.9006  -21.7641  -55.8317 O.2       19 UNK        -0.5000 
    109 N         -2.5389  -21.9337  -54.2771 N.am      20 UNK        -0.5000 
    110 CA        -2.5408  -20.5698  -53.7699 C.3       20 UNK         0.1400 
    111 CB        -1.5379  -20.4268  -52.6119 C.3       20 UNK        -0.1800 
    112 C         -3.9750  -20.2841  -53.3123 C.2       20 UNK         0.5000 
    113 O         -4.5584  -21.1157  -52.6143 O.2       20 UNK        -0.5000 
    114 N         -4.5221  -19.1388  -53.7235 N.am      21 UNK        -0.5000 
    115 CA        -5.8823  -18.7045  -53.4278 C.3       21 UNK         0.1400 
    116 CB        -6.8522  -19.2883  -54.4719 C.3       21 UNK        -0.1800 
    117 C         -5.8805  -17.1658  -53.4416 C.2       21 UNK         0.5000 
    118 O         -5.7728  -16.5968  -54.5278 O.2       21 UNK        -0.5000 
    119 N         -5.9504  -16.4584  -52.3044 N.am      22 UNK        -0.5000 
    120 CA        -6.0523  -16.9065  -50.8984 C.3       22 UNK         0.1400 
    121 C         -7.4334  -17.5115  -50.5013 C.2       22 UNK         0.5000 
    122 N         -8.4772  -17.3512  -51.3052 N.am      22 UNK        -0.7600 
    123 O         -7.5677  -18.1238  -49.4463 O.2       22 UNK        -0.5000 
    124 C124       -4.8554  -17.7642  -50.3876 C.3       23 UNK        -0.0398 
    125 S125       -3.2149  -17.1476  -50.9012 S.3       23 UNK        -0.2404 
    126 C126       -2.3639  -16.9168  -49.3111 C.3       23 UNK        -0.0205 
    127 H127       -3.5706  -12.9828  -46.6637 H         1 UNK         0.0600 
    128 H128       -2.3053  -13.6435  -45.6323 H         1 UNK         0.0600 
    129 H129       -2.8730  -14.5599  -47.0340 H         1 UNK         0.0600 
    130 H130       -0.1696  -12.9924  -46.0865 H         1 UNK         0.3000 
    131 H131        0.2397  -11.0498  -48.1161 H         1 UNK         0.0600 
    132 H132        0.7108  -13.0351  -49.5334 H         1 UNK         0.0800 
    133 H133        2.1276  -12.0685  -49.2915 H         1 UNK         0.0800 
    134 H134        2.2070  -14.6252  -50.5841 H         1 UNK         0.0800 
    135 H135        3.4157  -15.6125  -49.8099 H         1 UNK         0.0800 
    136 H136       -0.3198  -15.1136  -49.4220 H         1 UNK         0.1150 
    137 H137       -1.1294  -19.3140  -49.5468 H         1 UNK         0.1150 
    138 H138        2.9053  -17.9088  -49.8787 H         1 UNK         0.1150 
    139 H139        0.5775  -20.8701  -50.0982 H         1 UNK         0.0800 
    140 H140        2.0495  -20.2586  -50.7986 H         1 UNK         0.0800 
    141 H141        0.4853  -19.8495  -47.3233 H         1 UNK         0.0800 
    142 H142        1.7715  -20.3115  -46.2568 H         1 UNK         0.0800 
    143 H143        1.1477  -22.7823  -46.7782 H         1 UNK         0.0600 
    144 H144        0.0770  -21.0253  -44.8641 H         1 UNK         0.3000 
    145 H145       -2.0718  -23.2598  -43.1302 H         1 UNK         0.0600 
    146 H146       -0.6505  -22.4775  -41.2449 H         1 UNK         0.0600 
    147 H147        0.1798  -23.7028  -42.1912 H         1 UNK         0.0600 
    148 H148        0.6243  -22.0121  -42.3702 H         1 UNK         0.0600 
    149 H149       -1.2815  -20.4803  -42.8765 H         1 UNK         0.3000 
    150 H150       -4.0127  -19.1642  -44.7736 H         1 UNK         0.0600 
    151 H151       -4.3204  -17.9246  -42.6406 H         1 UNK         0.0600 
    152 H152       -3.3692  -19.1306  -41.7761 H         1 UNK         0.0600 
    153 H153       -4.9150  -19.5716  -42.4913 H         1 UNK         0.0600 
    154 H154       -1.8014  -17.9902  -43.3367 H         1 UNK         0.3000 
    155 H155        0.5211  -18.0236  -46.0290 H         1 UNK         0.0600 
    156 H156       -1.0548  -16.1608  -46.7134 H         1 UNK         0.0600 
    157 H157        0.4487  -15.6019  -46.0122 H         1 UNK         0.0600 
    158 H158       -1.0285  -15.5880  -45.0476 H         1 UNK         0.0600 
    159 H159        0.7358  -16.5790  -43.6842 H         1 UNK         0.3000 
    160 H160        1.1281  -19.0857  -41.2431 H         1 UNK         0.0600 
    161 H161        3.3956  -18.2625  -40.8549 H         1 UNK         0.0600 
    162 H162        3.4213  -17.4190  -42.3987 H         1 UNK         0.0600 
    163 H163        3.4040  -19.1795  -42.3530 H         1 UNK         0.0600 
    164 H164        1.7116  -16.3391  -41.0322 H         1 UNK         0.3000 
    165 H165       -1.5594  -15.0185  -40.7266 H         1 UNK         0.0600 
    166 H166       -0.6772  -14.3055  -38.5074 H         1 UNK         0.0600 
    167 H167       -1.1721  -15.9912  -38.5047 H         1 UNK         0.0600 
    168 H168        0.5344  -15.5857  -38.5652 H         1 UNK         0.0600 
    169 H169       -0.1939  -13.6240  -41.7086 H         1 UNK         0.3000 
    170 H170        1.4353  -12.4967  -42.4681 H         1 UNK         0.0600 
    171 H171        3.3038  -11.0551  -41.7247 H         1 UNK         0.0600 
    172 H172        2.2177  -11.3624  -40.3777 H         1 UNK         0.0600 
    173 H173        3.7515  -12.2194  -40.4773 H         1 UNK         0.0600 
    174 H174        4.1388  -13.1819  -42.7606 H         1 UNK         0.3000 
    175 H175        4.8948  -15.3121  -43.8217 H         1 UNK         0.0600 
    176 H176        2.9074  -16.0890  -46.0332 H         1 UNK         0.0600 
    177 H177        4.5907  -16.5996  -45.9621 H         1 UNK         0.0600 
    178 H178        3.4577  -17.1249  -44.7296 H         1 UNK         0.0600 
    179 H179        3.7787  -13.3463  -45.7090 H         1 UNK         0.3000 
    180 H180        6.9127  -11.9839  -46.3374 H         1 UNK         0.0600 
    181 H181        5.3960  -13.5180  -48.5187 H         1 UNK         0.0600 
    182 H182        7.1074  -13.6865  -48.1505 H         1 UNK         0.0600 
    183 H183        6.4982  -12.1663  -48.7840 H         1 UNK         0.0600 
    184 H184        4.3288  -11.5412  -47.5262 H         1 UNK         0.3000 
    185 H185        2.8969   -9.6511  -44.9511 H         1 UNK         0.0600 
    186 H186        4.2750   -8.4829  -47.4298 H         1 UNK         0.0600 
    187 H187        2.9487   -7.7392  -46.5349 H         1 UNK         0.0600 
    188 H188        4.5181   -7.9412  -45.7736 H         1 UNK         0.0600 
    189 H189        2.3019   -9.9256  -47.7471 H         1 UNK         0.3000 
    190 H190       -1.8539  -20.7717  -46.9691 H         1 UNK         0.3000 
    191 H191       -2.7611  -21.7107  -49.4685 H         1 UNK         0.0600 
    192 H192       -4.3582  -20.6377  -47.0887 H         1 UNK         0.0600 
    193 H193       -4.9511  -20.7806  -48.7414 H         1 UNK         0.0600 
    194 H194       -3.6318  -19.6815  -48.3753 H         1 UNK         0.0600 
    195 H195       -3.3422  -23.0004  -46.1687 H         1 UNK         0.3000 
    196 H196       -5.1524  -25.0620  -46.9176 H         1 UNK         0.0600 
    197 H197       -4.6398  -25.9960  -44.6796 H         1 UNK         0.0600 
    198 H198       -4.8844  -24.2587  -44.5797 H         1 UNK         0.0600 
    199 H199       -3.2552  -24.9267  -44.5162 H         1 UNK         0.0600 
    200 H200       -1.5689  -25.0944  -46.5400 H         1 UNK         0.3000 
    201 H201       -1.1569  -27.8108  -47.2797 H         1 UNK         0.0600 
    202 H202        0.5506  -26.4396  -46.1153 H         1 UNK         0.0600 
    203 H203        0.7038  -25.3854  -47.5184 H         1 UNK         0.0600 
    204 H204        1.2050  -27.0691  -47.6202 H         1 UNK         0.0600 
    205 H205       -1.4313  -24.8500  -49.2114 H         1 UNK         0.3000 
    206 H206       -0.9771  -26.0809  -51.7917 H         1 UNK         0.0600 
    207 H207       -0.4960  -23.6805  -51.3093 H         1 UNK         0.0600 
    208 H208       -1.6818  -23.8211  -52.5903 H         1 UNK         0.0600 
    209 H209       -2.2032  -23.3930  -50.9793 H         1 UNK         0.0600 
    210 H210       -3.4850  -26.5772  -49.7150 H         1 UNK         0.3000 
    211 H211       -5.5257  -27.3797  -49.7604 H         1 UNK         0.0600 
    212 H212       -6.1785  -28.8560  -51.6233 H         1 UNK         0.0600 
    213 H213       -4.4661  -29.0608  -51.2984 H         1 UNK         0.0600 
    214 H214       -4.9934  -28.1128  -52.6888 H         1 UNK         0.0600 
    215 H215       -5.1505  -24.5418  -50.5103 H         1 UNK         0.3000 
    216 H216       -6.0938  -22.7282  -51.2995 H         1 UNK         0.0600 
    217 H217       -8.5359  -22.4836  -51.1798 H         1 UNK         0.0600 
    218 H218       -7.9784  -23.4378  -49.8162 H         1 UNK         0.0600 
    219 H219       -8.7591  -24.2279  -51.1863 H         1 UNK         0.0600 
    220 H220       -5.1559  -24.7861  -53.2575 H         1 UNK         0.3000 
    221 H221       -6.7123  -24.0379  -55.7079 H         1 UNK         0.0600 
    222 H222       -5.9740  -26.2563  -56.5674 H         1 UNK         0.0600 
    223 H223       -5.1774  -26.6068  -55.0364 H         1 UNK         0.0600 
    224 H224       -6.9279  -26.4316  -55.1013 H         1 UNK         0.0600 
    225 H225       -3.4180  -24.9409  -54.5020 H         1 UNK         0.3000 
    226 H226       -2.1330  -23.7887  -56.8648 H         1 UNK         0.0600 
    227 H227       -1.1833  -25.8002  -55.8790 H         1 UNK         0.0600 
    228 H228       -0.0361  -24.4871  -55.6804 H         1 UNK         0.0600 
    229 H229       -0.9944  -25.0319  -54.3115 H         1 UNK         0.0600 
    230 H230       -3.2786  -22.5141  -53.9042 H         1 UNK         0.3000 
    231 H231       -2.2717  -19.8786  -54.5715 H         1 UNK         0.0600 
    232 H232       -1.8078  -21.0537  -51.7620 H         1 UNK         0.0600 
    233 H233       -0.5300  -20.7011  -52.9233 H         1 UNK         0.0600 
    234 H234       -1.4999  -19.3959  -52.2589 H         1 UNK         0.0600 
    235 H235       -3.9759  -18.4871  -54.2712 H         1 UNK         0.3000 
    236 H236       -6.1999  -19.0827  -52.4592 H         1 UNK         0.0600 
    237 H237       -6.5825  -18.9961  -55.4875 H         1 UNK         0.0600 
    238 H238       -6.8628  -20.3776  -54.4326 H         1 UNK         0.0600 
    239 H239       -7.8718  -18.9476  -54.2885 H         1 UNK         0.0600 
    240 H240       -5.9294  -15.4540  -52.3999 H         1 UNK         0.3000 
    241 H241       -6.0104  -15.9768  -50.3299 H         1 UNK         0.0600 
    242 H242       -9.3694  -17.7368  -51.0372 H         1 UNK         0.3800 
    243 H243       -8.4027  -16.8084  -52.1512 H         1 UNK         0.3800 
    244 H244       -4.8940  -17.8031  -49.2984 H         1 UNK         0.0800 
    245 H245       -4.9334  -18.8024  -50.7075 H         1 UNK         0.0800 
    246 H246       -2.7625  -17.5827  -48.5467 H         1 UNK         0.0800 
    247 H247       -2.5427  -15.9002  -48.9604 H         1 UNK         0.0800 
@<TRIPOS>BOND
     1    1    2 1    
     2    1  127 1    
     3    1  128 1    
     4    1  129 1    
     5    2    3 2    
     6    2    4 am   BACKBONE|DICT|INTERRES
     7    4    5 1    
     8    4  130 1    
     9    5    6 1    
    10    5   65 1    
    11    5  131 1    
    12    6    7 1    
    13    6  132 1    
    14    6  133 1    
    15    7    8 1    
    16    8    9 1    
    17    8  134 1    
    18    8  135 1    
    19    9   10 ar   
    20    9   14 ar   
    21   10   11 ar   
    22   10  136 1    
    23   11   12 ar   
    24   11  126 1    
    25   12   13 ar   
    26   12  137 1    
    27   13   14 ar   
    28   13   15 1    
    29   14  138 1    
    30   15   16 1    
    31   15  139 1    
    32   15  140 1    
    33   16   17 1    
    34   17   18 1    
    35   17  141 1    
    36   17  142 1    
    37   18   19 1    
    38   18   67 1    
    39   18  143 1    
    40   19   20 am   BACKBONE|DICT|INTERRES
    41   19  144 1    
    42   20   21 2    
    43   20   22 1    
    44   22   23 1    
    45   22   24 1    
    46   22  145 1    
    47   23  146 1    
    48   23  147 1    
    49   23  148 1    
    50   24   25 am   BACKBONE|DICT|INTERRES
    51   24  149 1    
    52   25   26 2    
    53   25   27 1    
    54   27   28 1    
    55   27   29 1    
    56   27  150 1    
    57   28  151 1    
    58   28  152 1    
    59   28  153 1    
    60   29   30 am   BACKBONE|DICT|INTERRES
    61   29  154 1    
    62   30   31 2    
    63   30   32 1    
    64   32   33 1    
    65   32   34 1    
    66   32  155 1    
    67   33  156 1    
    68   33  157 1    
    69   33  158 1    
    70   34   35 am   BACKBONE|DICT|INTERRES
    71   34  159 1    
    72   35   36 2    
    73   35   37 1    
    74   37   38 1    
    75   37   39 1    
    76   37  160 1    
    77   38  161 1    
    78   38  162 1    
    79   38  163 1    
    80   39   40 am   BACKBONE|DICT|INTERRES
    81   39  164 1    
    82   40   41 2    
    83   40   42 1    
    84   42   43 1    
    85   42   44 1    
    86   42  165 1    
    87   43  166 1    
    88   43  167 1    
    89   43  168 1    
    90   44   45 am   BACKBONE|DICT|INTERRES
    91   44  169 1    
    92   45   46 2    
    93   45   47 1    
    94   47   48 1    
    95   47   49 1    
    96   47  170 1    
    97   48  171 1    
    98   48  172 1    
    99   48  173 1    
   100   49   50 am   BACKBONE|DICT|INTERRES
   101   49  174 1    
   102   50   51 2    
   103   50   52 1    
   104   52   53 1    
   105   52   54 1    
   106   52  175 1    
   107   53  176 1    
   108   53  177 1    
   109   53  178 1    
   110   54   55 am   BACKBONE|DICT|INTERRES
   111   54  179 1    
   112   55   56 2    
   113   55   57 1    
   114   57   58 1    
   115   57   59 1    
   116   57  180 1    
   117   58  181 1    
   118   58  182 1    
   119   58  183 1    
   120   59   60 am   BACKBONE|DICT|INTERRES
   121   59  184 1    
   122   60   61 2    
   123   60   62 1    
   124   62   63 1    
   125   62   64 1    
   126   62  185 1    
   127   63  186 1    
   128   63  187 1    
   129   63  188 1    
   130   64   65 am   BACKBONE|DICT|INTERRES
   131   64  189 1    
   132   65   66 2    
   133   67   68 2    
   134   67   69 am   BACKBONE|DICT|INTERRES
   135   69   70 1    
   136   69  190 1    
   137   70   71 1    
   138   70   72 1    
   139   70  191 1    
   140   71  192 1    
   141   71  193 1    
   142   71  194 1    
   143   72   73 2    
   144   72   74 am   BACKBONE|DICT|INTERRES
   145   74   75 1    
   146   74  195 1    
   147   75   76 1    
   148   75   77 1    
   149   75  196 1    
   150   76  197 1    
   151   76  198 1    
   152   76  199 1    
   153   77   78 2    
   154   77   79 am   BACKBONE|DICT|INTERRES
   155   79   80 1    
   156   79  200 1    
   157   80   81 1    
   158   80   82 1    
   159   80  201 1    
   160   81  202 1    
   161   81  203 1    
   162   81  204 1    
   163   82   83 2    
   164   82   84 am   BACKBONE|DICT|INTERRES
   165   84   85 1    
   166   84  205 1    
   167   85   86 1    
   168   85   87 1    
   169   85  206 1    
   170   86  207 1    
   171   86  208 1    
   172   86  209 1    
   173   87   88 2    
   174   87   89 am   BACKBONE|DICT|INTERRES
   175   89   90 1    
   176   89  210 1    
   177   90   91 1    
   178   90   92 1    
   179   90  211 1    
   180   91  212 1    
   181   91  213 1    
   182   91  214 1    
   183   92   93 2    
   184   92   94 am   BACKBONE|DICT|INTERRES
   185   94   95 1    
   186   94  215 1    
   187   95   96 1    
   188   95   97 1    
   189   95  216 1    
   190   96  217 1    
   191   96  218 1    
   192   96  219 1    
   193   97   98 2    
   194   97   99 am   BACKBONE|DICT|INTERRES
   195   99  100 1    
   196   99  220 1    
   197  100  101 1    
   198  100  102 1    
   199  100  221 1    
   200  101  222 1    
   201  101  223 1    
   202  101  224 1    
   203  102  103 2    
   204  102  104 am   BACKBONE|DICT|INTERRES
   205  104  105 1    
   206  104  225 1    
   207  105  106 1    
   208  105  107 1    
   209  105  226 1    
   210  106  227 1    
   211  106  228 1    
   212  106  229 1    
   213  107  108 2    
   214  107  109 am   BACKBONE|DICT|INTERRES
   215  109  110 1    
   216  109  230 1    
   217  110  111 1    
   218  110  112 1    
   219  110  231 1    
   220  111  232 1    
   221  111  233 1    
   222  111  234 1    
   223  112  113 2    
   224  112  114 am   BACKBONE|DICT|INTERRES
   225  114  115 1    
   226  114  235 1    
   227  115  116 1    
   228  115  117 1    
   229  115  236 1    
   230  116  237 1    
   231  116  238 1    
   232  116  239 1    
   233  117  118 2    
   234  117  119 am   BACKBONE|DICT|INTERRES
   235  119  120 1    
   236  119  240 1    
   237  120  121 1    
   238  120  124 1    
   239  120  241 1    
   240  121  122 am   BACKBONE|DICT|INTERRES
   241  121  123 2    
   242  122  242 1    
   243  122  243 1    
   244  124  125 1    
   245  124  244 1    
   246  124  245 1    
   247  125  126 1    
   248  126  246 1    
   249  126  247 1    
@<TRIPOS>SUBSTRUCTURE
     1 UNK         1 GROUP             0       ****    0 ROOT    
