@<TRIPOS>MOLECULE
3R540
247   249    1
SMALL
USER_CHARGES


@<TRIPOS>ATOM
      1 CA         -2.1560  -14.9619  -43.7678 C.3       0 UNK        -0.1800 
      2 C          -3.1035  -15.2413  -44.9235 C.2       0 UNK         0.5000 
      3 O          -4.2457  -14.7826  -44.9024 O.2       0 UNK        -0.5000 
      4 N          -2.6380  -15.9887  -45.9329 N.am      1 UNK        -0.5000 
      5 CA         -3.4099  -16.3194  -47.1404 C.3       1 UNK         0.1400 
      6 C6         -2.8479  -17.5600  -47.8722 C.3       23 UNK        -0.0398 
      7 S7         -1.1189  -17.3920  -48.4359 S.3       23 UNK        -0.2404 
      8 C8         -0.4596  -19.0138  -47.9553 C.3       23 UNK        -0.0205 
      9 C9          0.9305  -19.2551  -48.5165 C.ar      23 UNK        -0.0193 
     10 C10         1.1107  -19.3923  -49.8941 C.ar      23 UNK        -0.1150 
     11 C11         2.3716  -19.6628  -50.4286 C.ar      23 UNK        -0.0193 
     12 C12         3.4635  -19.8005  -49.5680 C.ar      23 UNK        -0.1150 
     13 C13         3.2997  -19.6565  -48.1863 C.ar      23 UNK        -0.0193 
     14 C14         2.0316  -19.3761  -47.6658 C.ar      23 UNK        -0.1150 
     15 C15         4.4973  -19.8039  -47.2614 C.3       23 UNK        -0.0205 
     16 S16         4.7465  -21.5323  -46.7543 S.3       23 UNK        -0.2404 
     17 C17         3.2882  -21.8282  -45.6956 C.3       23 UNK        -0.0398 
     18 CA          3.5220  -22.9487  -44.6516 C.3       11 UNK         0.1400 
     19 N           2.6337  -22.7744  -43.4975 N.am      11 UNK        -0.5000 
     20 C           2.8449  -23.3075  -42.2864 C.2       10 UNK         0.5000 
     21 O           3.8262  -23.9930  -41.9984 O.2       10 UNK        -0.5000 
     22 CA          1.7600  -23.0470  -41.2289 C.3       10 UNK         0.1400 
     23 CB          1.9272  -21.6506  -40.6092 C.3       10 UNK        -0.1800 
     24 N           0.4149  -23.1770  -41.7909 N.am      10 UNK        -0.5000 
     25 C          -0.1841  -24.3465  -42.0592 C.2       9 UNK         0.5000 
     26 O           0.3296  -25.4438  -41.8437 O.2       9 UNK        -0.5000 
     27 CA         -1.5870  -24.2801  -42.6921 C.3       9 UNK         0.1400 
     28 CB         -2.6680  -24.2206  -41.6025 C.3       9 UNK        -0.1800 
     29 N          -1.7452  -23.1349  -43.5886 N.am      9 UNK        -0.5000 
     30 C          -1.1597  -23.0307  -44.7883 C.2       8 UNK         0.5000 
     31 O          -0.4712  -23.9155  -45.2930 O.2       8 UNK        -0.5000 
     32 CA         -1.3455  -21.7060  -45.5454 C.3       8 UNK         0.1400 
     33 CB         -2.5489  -21.8016  -46.4898 C.3       8 UNK        -0.1800 
     34 N          -1.5019  -20.5510  -44.6582 N.am      8 UNK        -0.5000 
     35 C          -0.5274  -20.0904  -43.8642 C.2       7 UNK         0.5000 
     36 O           0.5739  -20.6373  -43.7484 O.2       7 UNK        -0.5000 
     37 CA         -0.8446  -18.8309  -43.0401 C.3       7 UNK         0.1400 
     38 CB         -1.2032  -19.2073  -41.5953 C.3       7 UNK        -0.1800 
     39 N           0.3039  -17.9280  -43.0353 N.am      7 UNK        -0.5000 
     40 C           0.6948  -17.2250  -44.1042 C.2       6 UNK         0.5000 
     41 O           0.0278  -17.1409  -45.1394 O.2       6 UNK        -0.5000 
     42 CA          2.0661  -16.5310  -43.9983 C.3       6 UNK         0.1400 
     43 CB          3.1912  -17.5753  -43.9100 C.3       6 UNK        -0.1800 
     44 N           2.3067  -15.6792  -45.1628 N.am      6 UNK        -0.5000 
     45 C           1.8472  -14.4300  -45.2889 C.2       5 UNK         0.5000 
     46 O           1.3051  -13.8049  -44.3729 O.2       5 UNK        -0.5000 
     47 CA          1.9996  -13.7957  -46.6835 C.3       5 UNK         0.1400 
     48 CB          1.0219  -14.4405  -47.6794 C.3       5 UNK        -0.1800 
     49 N           1.7434  -12.3566  -46.6256 N.am      5 UNK        -0.5000 
     50 C           2.6792  -11.4339  -46.3631 C.2       4 UNK         0.5000 
     51 O           3.8758  -11.7064  -46.2466 O.2       4 UNK        -0.5000 
     52 CA          2.2197   -9.9710  -46.1603 C.3       4 UNK         0.1400 
     53 CB          3.2002   -8.9538  -46.7823 C.3       4 UNK        -0.1800 
     54 N           0.8385   -9.6944  -46.5755 N.am      4 UNK        -0.5000 
     55 C           0.3350   -9.7195  -47.8169 C.2       3 UNK         0.5000 
     56 O           0.9871   -9.9696  -48.8326 O.2       3 UNK        -0.5000 
     57 CA         -1.1777   -9.4478  -47.9312 C.3       3 UNK         0.1400 
     58 CB         -1.4515   -8.2007  -48.7868 C.3       3 UNK        -0.1800 
     59 N          -1.8975  -10.5896  -48.4974 N.am      3 UNK        -0.5000 
     60 C          -1.9097  -11.8246  -47.9802 C.2       2 UNK         0.5000 
     61 O          -1.3320  -12.1352  -46.9327 O.2       2 UNK        -0.5000 
     62 CA         -2.6963  -12.8857  -48.7653 C.3       2 UNK         0.1400 
     63 CB         -2.0584  -13.1696  -50.1387 C.3       2 UNK        -0.1800 
     64 N          -2.7315  -14.1067  -47.9728 N.am      2 UNK        -0.5000 
     65 C          -3.5839  -15.1262  -48.1089 C.2       1 UNK         0.5000 
     66 O          -4.4811  -15.1560  -48.9520 O.2       1 UNK        -0.5000 
     67 C           3.4015  -24.3547  -45.2901 C.2       11 UNK         0.5000 
     68 O           4.3047  -24.7675  -46.0179 O.2       11 UNK        -0.5000 
     69 N           2.2868  -25.0531  -45.0204 N.am      12 UNK        -0.5000 
     70 CA          1.8478  -26.3097  -45.6419 C.3       12 UNK         0.1400 
     71 CB          2.8386  -27.4614  -45.3727 C.3       12 UNK        -0.1800 
     72 C           1.4992  -26.1309  -47.1368 C.2       12 UNK         0.5000 
     73 O           1.6721  -27.0513  -47.9372 O.2       12 UNK        -0.5000 
     74 N           0.9912  -24.9380  -47.4704 N.am      13 UNK        -0.5000 
     75 CA          0.4729  -24.5580  -48.7827 C.3       13 UNK         0.1400 
     76 CB          0.7152  -23.0540  -48.9851 C.3       13 UNK        -0.1800 
     77 C          -1.0216  -24.9152  -48.9357 C.2       13 UNK         0.5000 
     78 O          -1.5124  -24.9581  -50.0638 O.2       13 UNK        -0.5000 
     79 N          -1.7031  -25.1832  -47.8076 N.am      14 UNK        -0.5000 
     80 CA         -3.0559  -25.7343  -47.6622 C.3       14 UNK         0.1400 
     81 CB         -3.0366  -27.2447  -47.9804 C.3       14 UNK        -0.1800 
     82 C          -4.1366  -24.9631  -48.4488 C.2       14 UNK         0.5000 
     83 O          -4.6323  -23.9458  -47.9610 O.2       14 UNK        -0.5000 
     84 N          -4.4653  -25.4448  -49.6576 N.am      15 UNK        -0.5000 
     85 CA         -5.4523  -24.8841  -50.5880 C.3       15 UNK         0.1400 
     86 CB         -5.5377  -25.7866  -51.8274 C.3       15 UNK        -0.1800 
     87 C          -5.1869  -23.4244  -51.0061 C.2       15 UNK         0.5000 
     88 O          -6.1153  -22.7426  -51.4425 O.2       15 UNK        -0.5000 
     89 N          -3.9506  -22.9468  -50.8092 N.am      16 UNK        -0.5000 
     90 CA         -3.5440  -21.5490  -50.9452 C.3       16 UNK         0.1400 
     91 CB         -2.0558  -21.4330  -50.6062 C.3       16 UNK        -0.1800 
     92 C          -4.3688  -20.5593  -50.0952 C.2       16 UNK         0.5000 
     93 O          -4.4908  -19.4009  -50.4880 O.2       16 UNK        -0.5000 
     94 N          -4.9549  -21.0150  -48.9766 N.am      17 UNK        -0.5000 
     95 CA         -5.8960  -20.2248  -48.1756 C.3       17 UNK         0.1400 
     96 CB         -6.1968  -20.9499  -46.8557 C.3       17 UNK        -0.1800 
     97 C          -7.2099  -19.9061  -48.9164 C.2       17 UNK         0.5000 
     98 O          -7.7655  -18.8253  -48.7203 O.2       17 UNK        -0.5000 
     99 N          -7.6763  -20.8413  -49.7546 N.am      18 UNK        -0.5000 
    100 CA        -8.8782  -20.6884  -50.5738 C.3       18 UNK         0.1400 
    101 CB        -9.5068  -22.0695  -50.8180 C.3       18 UNK        -0.1800 
    102 C         -8.5651  -19.9895  -51.9071 C.2       18 UNK         0.5000 
    103 O         -9.3631  -19.1725  -52.3673 O.2       18 UNK        -0.5000 
    104 N         -7.4064  -20.3142  -52.4974 N.am      19 UNK        -0.5000 
    105 CA        -6.9380  -19.7674  -53.7736 C.3       19 UNK         0.1400 
    106 CB        -5.8758  -20.7119  -54.3556 C.3       19 UNK        -0.1800 
    107 C         -6.4002  -18.3226  -53.6840 C.2       19 UNK         0.5000 
    108 O         -6.2199  -17.6951  -54.7282 O.2       19 UNK        -0.5000 
    109 N         -6.1678  -17.8277  -52.4583 N.am      20 UNK        -0.5000 
    110 CA        -5.5810  -16.5304  -52.1065 C.3       20 UNK         0.1400 
    111 CB        -6.4390  -15.3542  -52.6186 C.3       20 UNK        -0.1800 
    112 C         -4.1049  -16.4566  -52.5418 C.2       20 UNK         0.5000 
    113 O         -3.7476  -15.6841  -53.4335 O.2       20 UNK        -0.5000 
    114 N         -3.2992  -17.3053  -51.8934 N.am      21 UNK        -0.5000 
    115 CA        -1.8963  -17.6305  -52.1489 C.3       21 UNK         0.1400 
    116 CB        -0.9988  -16.3803  -52.2686 C.3       21 UNK        -0.1800 
    117 C         -1.7356  -18.6283  -53.3124 C.2       21 UNK         0.5000 
    118 O         -2.7251  -19.1325  -53.8470 O.2       21 UNK        -0.5000 
    119 N         -0.4787  -18.9484  -53.6390 N.am      22 UNK        -0.5000 
    120 CA        -0.0997  -19.9881  -54.6142 C.3       22 UNK         0.1400 
    121 C         -0.2740  -19.5825  -56.1085 C.2       22 UNK         0.5000 
    122 N         -0.5958  -18.3358  -56.4312 N.am      22 UNK        -0.7600 
    123 O         -0.1180  -20.4185  -56.9943 O.2       22 UNK        -0.5000 
    124 C124        1.3318  -20.5318  -54.3539 C.3       23 UNK        -0.0398 
    125 S125        1.5691  -21.1325  -52.6443 S.3       23 UNK        -0.2404 
    126 C126        2.5470  -19.7673  -51.9356 C.3       23 UNK        -0.0205 
    127 H127       -2.1841  -15.7782  -43.0465 H         1 UNK         0.0600 
    128 H128       -2.4354  -14.0406  -43.2565 H         1 UNK         0.0600 
    129 H129       -1.1340  -14.8461  -44.1243 H         1 UNK         0.0600 
    130 H130       -1.6908  -16.3575  -45.8912 H         1 UNK         0.3000 
    131 H131       -4.4184  -16.5841  -46.8147 H         1 UNK         0.0600 
    132 H132       -3.4641  -17.7960  -48.7395 H         1 UNK         0.0800 
    133 H133       -2.9294  -18.4228  -47.2111 H         1 UNK         0.0800 
    134 H134       -0.4544  -19.0853  -46.8682 H         1 UNK         0.0800 
    135 H135       -1.1235  -19.7966  -48.3191 H         1 UNK         0.0800 
    136 H136        0.2670  -19.2916  -50.5571 H         1 UNK         0.1150 
    137 H137        4.4436  -20.0132  -49.9713 H         1 UNK         0.1150 
    138 H138        1.8960  -19.2675  -46.5992 H         1 UNK         0.1150 
    139 H139        5.3979  -19.4572  -47.7703 H         1 UNK         0.0800 
    140 H140        4.3904  -19.1699  -46.3827 H         1 UNK         0.0800 
    141 H141        3.0694  -20.8930  -45.1782 H         1 UNK         0.0800 
    142 H142        2.4174  -22.0360  -46.3202 H         1 UNK         0.0800 
    143 H143        4.5457  -22.8556  -44.2816 H         1 UNK         0.0600 
    144 H144        1.8282  -22.1693  -43.6277 H         1 UNK         0.3000 
    145 H145        1.8791  -23.7857  -40.4332 H         1 UNK         0.0600 
    146 H146        1.1778  -21.4685  -39.8388 H         1 UNK         0.0600 
    147 H147        1.8418  -20.8607  -41.3558 H         1 UNK         0.0600 
    148 H148        2.9063  -21.5498  -40.1394 H         1 UNK         0.0600 
    149 H149       -0.0561  -22.3206  -42.0411 H         1 UNK         0.3000 
    150 H150       -1.7354  -25.1945  -43.2708 H         1 UNK         0.0600 
    151 H151       -2.5902  -25.0749  -40.9286 H         1 UNK         0.0600 
    152 H152       -3.6674  -24.2417  -42.0375 H         1 UNK         0.0600 
    153 H153       -2.5833  -23.3167  -40.9980 H         1 UNK         0.0600 
    154 H154       -2.3093  -22.3668  -43.2569 H         1 UNK         0.3000 
    155 H155       -0.4491  -21.5398  -46.1460 H         1 UNK         0.0600 
    156 H156       -2.3464  -22.4968  -47.3032 H         1 UNK         0.0600 
    157 H157       -2.7923  -20.8409  -46.9405 H         1 UNK         0.0600 
    158 H158       -3.4339  -22.1664  -45.9688 H         1 UNK         0.0600 
    159 H159       -2.3890  -20.0700  -44.6870 H         1 UNK         0.3000 
    160 H160       -1.6969  -18.3144  -43.4870 H         1 UNK         0.0600 
    161 H161       -0.3789  -19.7119  -41.0907 H         1 UNK         0.0600 
    162 H162       -2.0650  -19.8752  -41.5660 H         1 UNK         0.0600 
    163 H163       -1.4598  -18.3228  -41.0119 H         1 UNK         0.0600 
    164 H164        0.9121  -17.9806  -42.2318 H         1 UNK         0.3000 
    165 H165        2.0797  -15.9235  -43.0910 H         1 UNK         0.0600 
    166 H166        4.1747  -17.1058  -43.9385 H         1 UNK         0.0600 
    167 H167        3.1320  -18.1427  -42.9806 H         1 UNK         0.0600 
    168 H168        3.1335  -18.2911  -44.7280 H         1 UNK         0.0600 
    169 H169        2.6861  -16.1399  -45.9765 H         1 UNK         0.3000 
    170 H170        3.0166  -13.9744  -47.0390 H         1 UNK         0.0600 
    171 H171        1.2862  -15.4817  -47.8680 H         1 UNK         0.0600 
    172 H172        0.0003  -14.4336  -47.3018 H         1 UNK         0.0600 
    173 H173        1.0323  -13.9251  -48.6397 H         1 UNK         0.0600 
    174 H174        0.7693  -12.0770  -46.6514 H         1 UNK         0.3000 
    175 H175        2.2354   -9.8120  -45.0813 H         1 UNK         0.0600 
    176 H176        3.3122   -9.1015  -47.8566 H         1 UNK         0.0600 
    177 H177        2.8653   -7.9299  -46.6166 H         1 UNK         0.0600 
    178 H178        4.1921   -9.0435  -46.3381 H         1 UNK         0.0600 
    179 H179        0.1983   -9.5138  -45.8143 H         1 UNK         0.3000 
    180 H180       -1.5824   -9.2662  -46.9333 H         1 UNK         0.0600 
    181 H181       -2.5153   -7.9641  -48.8120 H         1 UNK         0.0600 
    182 H182       -1.1123   -8.3345  -49.8149 H         1 UNK         0.0600 
    183 H183       -0.9350   -7.3294  -48.3818 H         1 UNK         0.0600 
    184 H184       -2.3754  -10.4230  -49.3707 H         1 UNK         0.3000 
    185 H185       -3.7156  -12.5188  -48.9008 H         1 UNK         0.0600 
    186 H186       -1.0470  -13.5638  -50.0354 H         1 UNK         0.0600 
    187 H187       -2.6445  -13.8948  -50.7035 H         1 UNK         0.0600 
    188 H188       -1.9993  -12.2666  -50.7467 H         1 UNK         0.0600 
    189 H189       -2.0631  -14.1218  -47.2126 H         1 UNK         0.3000 
    190 H190        1.6014  -24.6150  -44.4203 H         1 UNK         0.3000 
    191 H191        0.9102  -26.5696  -45.1482 H         1 UNK         0.0600 
    192 H192        2.4150  -28.4176  -45.6817 H         1 UNK         0.0600 
    193 H193        3.0733  -27.5391  -44.3111 H         1 UNK         0.0600 
    194 H194        3.7746  -27.3322  -45.9162 H         1 UNK         0.0600 
    195 H195        0.8122  -24.2905  -46.7113 H         1 UNK         0.3000 
    196 H196        1.0236  -25.0975  -49.5560 H         1 UNK         0.0600 
    197 H197        0.1307  -22.4493  -48.2928 H         1 UNK         0.0600 
    198 H198        0.4514  -22.7509  -49.9980 H         1 UNK         0.0600 
    199 H199        1.7659  -22.7986  -48.8435 H         1 UNK         0.0600 
    200 H200       -1.2074  -25.0439  -46.9355 H         1 UNK         0.3000 
    201 H201       -3.3178  -25.6266  -46.6084 H         1 UNK         0.0600 
    202 H202       -2.6755  -27.4507  -48.9885 H         1 UNK         0.0600 
    203 H203       -4.0319  -27.6812  -47.8859 H         1 UNK         0.0600 
    204 H204       -2.3861  -27.7773  -47.2865 H         1 UNK         0.0600 
    205 H205       -3.9596  -26.2542  -49.9873 H         1 UNK         0.3000 
    206 H206       -6.4207  -24.8993  -50.0844 H         1 UNK         0.0600 
    207 H207       -5.8251  -26.8029  -51.5574 H         1 UNK         0.0600 
    208 H208       -6.2842  -25.4160  -52.5315 H         1 UNK         0.0600 
    209 H209       -4.5840  -25.8347  -52.3546 H         1 UNK         0.0600 
    210 H210       -3.2462  -23.5928  -50.4731 H         1 UNK         0.3000 
    211 H211       -3.6721  -21.2670  -51.9898 H         1 UNK         0.0600 
    212 H212       -1.8520  -21.7735  -49.5920 H         1 UNK         0.0600 
    213 H213       -1.7187  -20.4019  -50.6829 H         1 UNK         0.0600 
    214 H214       -1.4491  -22.0236  -51.2930 H         1 UNK         0.0600 
    215 H215       -4.8144  -21.9813  -48.6997 H         1 UNK         0.3000 
    216 H216       -5.4222  -19.2712  -47.9349 H         1 UNK         0.0600 
    217 H217       -5.3224  -20.9702  -46.2094 H         1 UNK         0.0600 
    218 H218       -6.5206  -21.9778  -47.0235 H         1 UNK         0.0600 
    219 H219       -6.9865  -20.4435  -46.2989 H         1 UNK         0.0600 
    220 H220       -7.1272  -21.6765  -49.9136 H         1 UNK         0.3000 
    221 H221       -9.6087  -20.0791  -50.0370 H         1 UNK         0.0600 
    222 H222      -10.4231  -21.9817  -51.4029 H         1 UNK         0.0600 
    223 H223       -8.8337  -22.7329  -51.3620 H         1 UNK         0.0600 
    224 H224       -9.7671  -22.5549  -49.8773 H         1 UNK         0.0600 
    225 H225       -6.8381  -21.0441  -52.0782 H         1 UNK         0.3000 
    226 H226       -7.7828  -19.7516  -54.4655 H         1 UNK         0.0600 
    227 H227       -6.2586  -21.7276  -54.4564 H         1 UNK         0.0600 
    228 H228       -5.5590  -20.3820  -55.3457 H         1 UNK         0.0600 
    229 H229       -4.9878  -20.7479  -53.7276 H         1 UNK         0.0600 
    230 H230       -6.2932  -18.4633  -51.6821 H         1 UNK         0.3000 
    231 H231       -5.5914  -16.4827  -51.0168 H         1 UNK         0.0600 
    232 H232       -6.0495  -14.4062  -52.2461 H         1 UNK         0.0600 
    233 H233       -7.4697  -15.4405  -52.2748 H         1 UNK         0.0600 
    234 H234       -6.4516  -15.2933  -53.7068 H         1 UNK         0.0600 
    235 H235       -3.7578  -17.9588  -51.2609 H         1 UNK         0.3000 
    236 H236       -1.5784  -18.1628  -51.2553 H         1 UNK         0.0600 
    237 H237       -1.1577  -15.8480  -53.2064 H         1 UNK         0.0600 
    238 H238       -1.1866  -15.6878  -51.4492 H         1 UNK         0.0600 
    239 H239        0.0575  -16.6448  -52.2185 H         1 UNK         0.0600 
    240 H240        0.2842  -18.4905  -53.1658 H         1 UNK         0.3000 
    241 H241       -0.7841  -20.8258  -54.4648 H         1 UNK         0.0600 
    242 H242       -0.7097  -18.0874  -57.4014 H         1 UNK         0.3800 
    243 H243       -0.7452  -17.6438  -55.7149 H         1 UNK         0.3800 
    244 H244        2.0803  -19.7726  -54.5870 H         1 UNK         0.0800 
    245 H245        1.5418  -21.3701  -55.0204 H         1 UNK         0.0800 
    246 H246        2.2458  -18.8175  -52.3781 H         1 UNK         0.0800 
    247 H247        3.5960  -19.9109  -52.1989 H         1 UNK         0.0800 
@<TRIPOS>BOND
     1    1    2 1    
     2    1  127 1    
     3    1  128 1    
     4    1  129 1    
     5    2    3 2    
     6    2    4 am   BACKBONE|DICT|INTERRES
     7    4    5 1    
     8    4  130 1    
     9    5    6 1    
    10    5   65 1    
    11    5  131 1    
    12    6    7 1    
    13    6  132 1    
    14    6  133 1    
    15    7    8 1    
    16    8    9 1    
    17    8  134 1    
    18    8  135 1    
    19    9   10 ar   
    20    9   14 ar   
    21   10   11 ar   
    22   10  136 1    
    23   11   12 ar   
    24   11  126 1    
    25   12   13 ar   
    26   12  137 1    
    27   13   14 ar   
    28   13   15 1    
    29   14  138 1    
    30   15   16 1    
    31   15  139 1    
    32   15  140 1    
    33   16   17 1    
    34   17   18 1    
    35   17  141 1    
    36   17  142 1    
    37   18   19 1    
    38   18   67 1    
    39   18  143 1    
    40   19   20 am   BACKBONE|DICT|INTERRES
    41   19  144 1    
    42   20   21 2    
    43   20   22 1    
    44   22   23 1    
    45   22   24 1    
    46   22  145 1    
    47   23  146 1    
    48   23  147 1    
    49   23  148 1    
    50   24   25 am   BACKBONE|DICT|INTERRES
    51   24  149 1    
    52   25   26 2    
    53   25   27 1    
    54   27   28 1    
    55   27   29 1    
    56   27  150 1    
    57   28  151 1    
    58   28  152 1    
    59   28  153 1    
    60   29   30 am   BACKBONE|DICT|INTERRES
    61   29  154 1    
    62   30   31 2    
    63   30   32 1    
    64   32   33 1    
    65   32   34 1    
    66   32  155 1    
    67   33  156 1    
    68   33  157 1    
    69   33  158 1    
    70   34   35 am   BACKBONE|DICT|INTERRES
    71   34  159 1    
    72   35   36 2    
    73   35   37 1    
    74   37   38 1    
    75   37   39 1    
    76   37  160 1    
    77   38  161 1    
    78   38  162 1    
    79   38  163 1    
    80   39   40 am   BACKBONE|DICT|INTERRES
    81   39  164 1    
    82   40   41 2    
    83   40   42 1    
    84   42   43 1    
    85   42   44 1    
    86   42  165 1    
    87   43  166 1    
    88   43  167 1    
    89   43  168 1    
    90   44   45 am   BACKBONE|DICT|INTERRES
    91   44  169 1    
    92   45   46 2    
    93   45   47 1    
    94   47   48 1    
    95   47   49 1    
    96   47  170 1    
    97   48  171 1    
    98   48  172 1    
    99   48  173 1    
   100   49   50 am   BACKBONE|DICT|INTERRES
   101   49  174 1    
   102   50   51 2    
   103   50   52 1    
   104   52   53 1    
   105   52   54 1    
   106   52  175 1    
   107   53  176 1    
   108   53  177 1    
   109   53  178 1    
   110   54   55 am   BACKBONE|DICT|INTERRES
   111   54  179 1    
   112   55   56 2    
   113   55   57 1    
   114   57   58 1    
   115   57   59 1    
   116   57  180 1    
   117   58  181 1    
   118   58  182 1    
   119   58  183 1    
   120   59   60 am   BACKBONE|DICT|INTERRES
   121   59  184 1    
   122   60   61 2    
   123   60   62 1    
   124   62   63 1    
   125   62   64 1    
   126   62  185 1    
   127   63  186 1    
   128   63  187 1    
   129   63  188 1    
   130   64   65 am   BACKBONE|DICT|INTERRES
   131   64  189 1    
   132   65   66 2    
   133   67   68 2    
   134   67   69 am   BACKBONE|DICT|INTERRES
   135   69   70 1    
   136   69  190 1    
   137   70   71 1    
   138   70   72 1    
   139   70  191 1    
   140   71  192 1    
   141   71  193 1    
   142   71  194 1    
   143   72   73 2    
   144   72   74 am   BACKBONE|DICT|INTERRES
   145   74   75 1    
   146   74  195 1    
   147   75   76 1    
   148   75   77 1    
   149   75  196 1    
   150   76  197 1    
   151   76  198 1    
   152   76  199 1    
   153   77   78 2    
   154   77   79 am   BACKBONE|DICT|INTERRES
   155   79   80 1    
   156   79  200 1    
   157   80   81 1    
   158   80   82 1    
   159   80  201 1    
   160   81  202 1    
   161   81  203 1    
   162   81  204 1    
   163   82   83 2    
   164   82   84 am   BACKBONE|DICT|INTERRES
   165   84   85 1    
   166   84  205 1    
   167   85   86 1    
   168   85   87 1    
   169   85  206 1    
   170   86  207 1    
   171   86  208 1    
   172   86  209 1    
   173   87   88 2    
   174   87   89 am   BACKBONE|DICT|INTERRES
   175   89   90 1    
   176   89  210 1    
   177   90   91 1    
   178   90   92 1    
   179   90  211 1    
   180   91  212 1    
   181   91  213 1    
   182   91  214 1    
   183   92   93 2    
   184   92   94 am   BACKBONE|DICT|INTERRES
   185   94   95 1    
   186   94  215 1    
   187   95   96 1    
   188   95   97 1    
   189   95  216 1    
   190   96  217 1    
   191   96  218 1    
   192   96  219 1    
   193   97   98 2    
   194   97   99 am   BACKBONE|DICT|INTERRES
   195   99  100 1    
   196   99  220 1    
   197  100  101 1    
   198  100  102 1    
   199  100  221 1    
   200  101  222 1    
   201  101  223 1    
   202  101  224 1    
   203  102  103 2    
   204  102  104 am   BACKBONE|DICT|INTERRES
   205  104  105 1    
   206  104  225 1    
   207  105  106 1    
   208  105  107 1    
   209  105  226 1    
   210  106  227 1    
   211  106  228 1    
   212  106  229 1    
   213  107  108 2    
   214  107  109 am   BACKBONE|DICT|INTERRES
   215  109  110 1    
   216  109  230 1    
   217  110  111 1    
   218  110  112 1    
   219  110  231 1    
   220  111  232 1    
   221  111  233 1    
   222  111  234 1    
   223  112  113 2    
   224  112  114 am   BACKBONE|DICT|INTERRES
   225  114  115 1    
   226  114  235 1    
   227  115  116 1    
   228  115  117 1    
   229  115  236 1    
   230  116  237 1    
   231  116  238 1    
   232  116  239 1    
   233  117  118 2    
   234  117  119 am   BACKBONE|DICT|INTERRES
   235  119  120 1    
   236  119  240 1    
   237  120  121 1    
   238  120  124 1    
   239  120  241 1    
   240  121  122 am   BACKBONE|DICT|INTERRES
   241  121  123 2    
   242  122  242 1    
   243  122  243 1    
   244  124  125 1    
   245  124  244 1    
   246  124  245 1    
   247  125  126 1    
   248  126  246 1    
   249  126  247 1    
@<TRIPOS>SUBSTRUCTURE
     1 UNK         1 GROUP             0       ****    0 ROOT    
