@<TRIPOS>MOLECULE
3R540
247   249    1
SMALL
USER_CHARGES


@<TRIPOS>ATOM
      1 CA          3.4548  -10.1062  -52.2435 C.3       0 UNK        -0.1800 
      2 C           3.0352  -11.0519  -51.1271 C.2       0 UNK         0.5000 
      3 O           2.0858  -11.8155  -51.2982 O.2       0 UNK        -0.5000 
      4 N           3.7332  -10.9945  -49.9832 N.am      1 UNK        -0.5000 
      5 CA          3.5145  -11.8152  -48.7794 C.3       1 UNK         0.1400 
      6 C6          3.6083  -13.3423  -49.0684 C.3       23 UNK        -0.0398 
      7 S7          4.4031  -14.2890  -47.7252 S.3       23 UNK        -0.2404 
      8 C8          3.0288  -15.3169  -47.1176 C.3       23 UNK        -0.0205 
      9 C9          2.6725  -16.4400  -48.0791 C.ar      23 UNK        -0.0193 
     10 C10         1.5506  -16.3341  -48.9072 C.ar      23 UNK        -0.1150 
     11 C11         1.1738  -17.3891  -49.7440 C.ar      23 UNK        -0.0193 
     12 C12         1.9585  -18.5485  -49.7621 C.ar      23 UNK        -0.1150 
     13 C13         3.0792  -18.6708  -48.9374 C.ar      23 UNK        -0.0193 
     14 C14         3.4335  -17.6119  -48.0983 C.ar      23 UNK        -0.1150 
     15 C15         3.8868  -19.9607  -48.9404 C.3       23 UNK        -0.0205 
     16 S16         3.2977  -21.1403  -47.6820 S.3       23 UNK        -0.2404 
     17 C17         1.5917  -21.4535  -48.2496 C.3       23 UNK        -0.0398 
     18 CA          0.9274  -22.6483  -47.5315 C.3       11 UNK         0.1400 
     19 N           0.7062  -22.4007  -46.1045 N.am      11 UNK        -0.5000 
     20 C           0.2931  -23.3241  -45.2259 C.2       10 UNK         0.5000 
     21 O           0.1049  -24.5065  -45.5156 O.2       10 UNK        -0.5000 
     22 CA         -0.0147  -22.8350  -43.7985 C.3       10 UNK         0.1400 
     23 CB          1.2737  -22.6610  -42.9806 C.3       10 UNK        -0.1800 
     24 N          -0.7852  -21.5896  -43.7885 N.am      10 UNK        -0.5000 
     25 C          -2.0370  -21.4778  -44.2565 C.2       9 UNK         0.5000 
     26 O          -2.6839  -22.4250  -44.7026 O.2       9 UNK        -0.5000 
     27 CA         -2.6635  -20.0715  -44.2646 C.3       9 UNK         0.1400 
     28 CB         -3.2233  -19.7173  -42.8791 C.3       9 UNK        -0.1800 
     29 N          -1.7317  -19.0312  -44.6984 N.am      9 UNK        -0.5000 
     30 C          -1.1636  -18.9726  -45.9116 C.2       8 UNK         0.5000 
     31 O          -1.3891  -19.7766  -46.8137 O.2       8 UNK        -0.5000 
     32 CA         -0.1138  -17.8709  -46.1319 C.3       8 UNK         0.1400 
     33 CB         -0.7900  -16.5137  -46.3789 C.3       8 UNK        -0.1800 
     34 N           0.8339  -17.7655  -45.0212 N.am      8 UNK        -0.5000 
     35 C           1.6210  -18.7673  -44.6007 C.2       7 UNK         0.5000 
     36 O           1.6494  -19.8808  -45.1194 O.2       7 UNK        -0.5000 
     37 CA          2.4637  -18.5096  -43.3429 C.3       7 UNK         0.1400 
     38 CB          3.7445  -17.7326  -43.6787 C.3       7 UNK        -0.1800 
     39 N           1.6942  -17.7990  -42.3233 N.am      7 UNK        -0.5000 
     40 C           0.6872  -18.3477  -41.6282 C.2       6 UNK         0.5000 
     41 O           0.3455  -19.5263  -41.7320 O.2       6 UNK        -0.5000 
     42 CA         -0.0941  -17.4074  -40.6921 C.3       6 UNK         0.1400 
     43 CB          0.6323  -17.2509  -39.3479 C.3       6 UNK        -0.1800 
     44 N          -0.3157  -16.0860  -41.2829 N.am      6 UNK        -0.5000 
     45 C          -1.0939  -15.8594  -42.3506 C.2       5 UNK         0.5000 
     46 O          -1.7359  -16.7384  -42.9239 O.2       5 UNK        -0.5000 
     47 CA         -1.1344  -14.4187  -42.8932 C.3       5 UNK         0.1400 
     48 CB         -2.2404  -13.6113  -42.1985 C.3       5 UNK        -0.1800 
     49 N           0.1354  -13.6987  -42.7717 N.am      5 UNK        -0.5000 
     50 C           1.2957  -14.0641  -43.3318 C.2       4 UNK         0.5000 
     51 O           1.4405  -15.1018  -43.9806 O.2       4 UNK        -0.5000 
     52 CA          2.4733  -13.0888  -43.1367 C.3       4 UNK         0.1400 
     53 CB          3.8025  -13.6342  -43.6844 C.3       4 UNK        -0.1800 
     54 N           2.1989  -11.8011  -43.7737 N.am      4 UNK        -0.5000 
     55 C           1.4702  -10.8121  -43.2365 C.2       3 UNK         0.5000 
     56 O           0.9326  -10.8882  -42.1307 O.2       3 UNK        -0.5000 
     57 CA          1.2825   -9.5486  -44.0871 C.3       3 UNK         0.1400 
     58 CB          2.4995   -8.6143  -43.9559 C.3       3 UNK        -0.1800 
     59 N           1.0538   -9.9112  -45.4833 N.am      3 UNK        -0.5000 
     60 C           0.5183   -9.1336  -46.4266 C.2       2 UNK         0.5000 
     61 O           0.1790   -7.9642  -46.2348 O.2       2 UNK        -0.5000 
     62 CA          0.3431   -9.7849  -47.8165 C.3       2 UNK         0.1400 
     63 CB         -0.2795   -8.8267  -48.8481 C.3       2 UNK        -0.1800 
     64 N           1.5976  -10.3058  -48.3669 N.am      2 UNK        -0.5000 
     65 C           2.2355  -11.4250  -47.9933 C.2       1 UNK         0.5000 
     66 O           1.8608  -12.1171  -47.0449 O.2       1 UNK        -0.5000 
     67 C          -0.3777  -23.0488  -48.2476 C.2       11 UNK         0.5000 
     68 O          -0.3617  -24.0002  -49.0261 O.2       11 UNK        -0.5000 
     69 N          -1.4874  -22.3565  -47.9501 N.am      12 UNK        -0.5000 
     70 CA         -2.8187  -22.6615  -48.4756 C.3       12 UNK         0.1400 
     71 CB         -3.8167  -21.5770  -48.0486 C.3       12 UNK        -0.1800 
     72 C          -3.3216  -24.0492  -48.0508 C.2       12 UNK         0.5000 
     73 O          -3.8755  -24.7647  -48.8831 O.2       12 UNK        -0.5000 
     74 N          -3.0904  -24.4220  -46.7844 N.am      13 UNK        -0.5000 
     75 CA         -3.4003  -25.7456  -46.2447 C.3       13 UNK         0.1400 
     76 CB         -3.1975  -25.7483  -44.7221 C.3       13 UNK        -0.1800 
     77 C          -2.5777  -26.8610  -46.9148 C.2       13 UNK         0.5000 
     78 O          -3.1421  -27.8972  -47.2659 O.2       13 UNK        -0.5000 
     79 N          -1.2760  -26.6138  -47.1219 N.am      14 UNK        -0.5000 
     80 CA         -0.3600  -27.5163  -47.8241 C.3       14 UNK         0.1400 
     81 CB          1.0827  -27.0173  -47.6522 C.3       14 UNK        -0.1800 
     82 C          -0.7089  -27.6847  -49.3162 C.2       14 UNK         0.5000 
     83 O          -0.6406  -28.7992  -49.8356 O.2       14 UNK        -0.5000 
     84 N          -1.1029  -26.5831  -49.9687 N.am      15 UNK        -0.5000 
     85 CA         -1.5514  -26.5402  -51.3623 C.3       15 UNK         0.1400 
     86 CB         -1.4758  -25.0870  -51.8582 C.3       15 UNK        -0.1800 
     87 C          -2.9737  -27.0988  -51.5739 C.2       15 UNK         0.5000 
     88 O          -3.3581  -27.3309  -52.7201 O.2       15 UNK        -0.5000 
     89 N          -3.7282  -27.2783  -50.4797 N.am      16 UNK        -0.5000 
     90 CA         -5.1372  -27.6763  -50.4151 C.3       16 UNK         0.1400 
     91 CB         -5.3320  -29.1156  -50.9361 C.3       16 UNK        -0.1800 
     92 C          -6.0678  -26.6446  -51.0889 C.2       16 UNK         0.5000 
     93 O          -6.9875  -27.0220  -51.8174 O.2       16 UNK        -0.5000 
     94 N          -5.7971  -25.3577  -50.8196 N.am      17 UNK        -0.5000 
     95 CA         -6.4820  -24.1650  -51.3271 C.3       17 UNK         0.1400 
     96 CB         -7.8951  -24.0522  -50.7201 C.3       17 UNK        -0.1800 
     97 C          -6.4733  -24.0969  -52.8673 C.2       17 UNK         0.5000 
     98 O          -7.5296  -24.0268  -53.4995 O.2       17 UNK        -0.5000 
     99 N          -5.2638  -24.1411  -53.4425 N.am      18 UNK        -0.5000 
    100 CA        -5.0176  -24.0625  -54.8852 C.3       18 UNK         0.1400 
    101 CB        -3.5435  -24.3918  -55.1619 C.3       18 UNK        -0.1800 
    102 C         -5.3858  -22.6954  -55.4955 C.2       18 UNK         0.5000 
    103 O         -5.7065  -22.6261  -56.6829 O.2       18 UNK        -0.5000 
    104 N         -5.3481  -21.6443  -54.6722 N.am      19 UNK        -0.5000 
    105 CA        -5.7925  -20.2931  -54.9831 C.3       19 UNK         0.1400 
    106 CB        -4.5839  -19.4589  -55.4388 C.3       19 UNK        -0.1800 
    107 C         -6.4653  -19.6992  -53.7356 C.2       19 UNK         0.5000 
    108 O         -6.4311  -20.3130  -52.6645 O.2       19 UNK        -0.5000 
    109 N         -7.0672  -18.5131  -53.8917 N.am      20 UNK        -0.5000 
    110 CA        -7.7301  -17.7514  -52.8310 C.3       20 UNK         0.1400 
    111 CB        -8.3931  -16.5077  -53.4470 C.3       20 UNK        -0.1800 
    112 C         -6.7483  -17.3748  -51.7035 C.2       20 UNK         0.5000 
    113 O         -5.9802  -16.4226  -51.8535 O.2       20 UNK        -0.5000 
    114 N         -6.7698  -18.1721  -50.6258 N.am      21 UNK        -0.5000 
    115 CA        -5.8687  -18.1310  -49.4699 C.3       21 UNK         0.1400 
    116 CB        -6.0963  -16.8486  -48.6417 C.3       21 UNK        -0.1800 
    117 C         -4.3870  -18.3547  -49.8456 C.2       21 UNK         0.5000 
    118 O         -3.5044  -17.7468  -49.2387 O.2       21 UNK        -0.5000 
    119 N         -4.1357  -19.2285  -50.8301 N.am      22 UNK        -0.5000 
    120 CA        -2.7951  -19.6004  -51.2994 C.3       22 UNK         0.1400 
    121 C         -2.7925  -20.9841  -52.0129 C.2       22 UNK         0.5000 
    122 N         -1.6692  -21.3967  -52.5814 N.am      22 UNK        -0.7600 
    123 O         -3.7883  -21.7042  -52.0439 O.2       22 UNK        -0.5000 
    124 C124       -2.1229  -18.4591  -52.1225 C.3       23 UNK        -0.0398 
    125 S125       -0.3086  -18.4306  -51.9330 S.3       23 UNK        -0.2404 
    126 C126       -0.1292  -17.2684  -50.5345 C.3       23 UNK        -0.0205 
    127 H127        4.3037   -9.4866  -51.9536 H         1 UNK         0.0600 
    128 H128        2.6275   -9.4476  -52.5080 H         1 UNK         0.0600 
    129 H129        3.7361  -10.6746  -53.1300 H         1 UNK         0.0600 
    130 H130        4.4984  -10.3368  -49.9150 H         1 UNK         0.3000 
    131 H131        4.3429  -11.5478  -48.1218 H         1 UNK         0.0600 
    132 H132        4.2225  -13.5173  -49.9526 H         1 UNK         0.0800 
    133 H133        2.6305  -13.7568  -49.3145 H         1 UNK         0.0800 
    134 H134        2.1589  -14.6935  -46.9099 H         1 UNK         0.0800 
    135 H135        3.3154  -15.7508  -46.1604 H         1 UNK         0.0800 
    136 H136        0.9423  -15.4413  -48.8693 H         1 UNK         0.1150 
    137 H137        1.6842  -19.3844  -50.3874 H         1 UNK         0.1150 
    138 H138        4.2907  -17.7060  -47.4465 H         1 UNK         0.1150 
    139 H139        3.8498  -20.4298  -49.9248 H         1 UNK         0.0800 
    140 H140        4.9376  -19.7378  -48.7500 H         1 UNK         0.0800 
    141 H141        1.6275  -21.6286  -49.3266 H         1 UNK         0.0800 
    142 H142        0.9985  -20.5506  -48.0962 H         1 UNK         0.0800 
    143 H143        1.6039  -23.5021  -47.6091 H         1 UNK         0.0600 
    144 H144        0.8929  -21.4553  -45.7754 H         1 UNK         0.3000 
    145 H145       -0.6194  -23.6024  -43.3107 H         1 UNK         0.0600 
    146 H146        1.0519  -22.3690  -41.9539 H         1 UNK         0.0600 
    147 H147        1.9279  -21.9022  -43.4091 H         1 UNK         0.0600 
    148 H148        1.8372  -23.5938  -42.9400 H         1 UNK         0.0600 
    149 H149       -0.3231  -20.7678  -43.4179 H         1 UNK         0.3000 
    150 H150       -3.4946  -20.0844  -44.9723 H         1 UNK         0.0600 
    151 H151       -3.9294  -20.4749  -42.5369 H         1 UNK         0.0600 
    152 H152       -3.7532  -18.7648  -42.9008 H         1 UNK         0.0600 
    153 H153       -2.4323  -19.6421  -42.1323 H         1 UNK         0.0600 
    154 H154       -1.5242  -18.2984  -44.0253 H         1 UNK         0.3000 
    155 H155        0.4602  -18.1400  -47.0192 H         1 UNK         0.0600 
    156 H156       -1.4621  -16.2429  -45.5659 H         1 UNK         0.0600 
    157 H157       -1.3821  -16.5407  -47.2947 H         1 UNK         0.0600 
    158 H158       -0.0573  -15.7145  -46.4851 H         1 UNK         0.0600 
    159 H159        0.9022  -16.8645  -44.5568 H         1 UNK         0.3000 
    160 H160        2.7588  -19.4788  -42.9350 H         1 UNK         0.0600 
    161 H161        3.5241  -16.7421  -44.0716 H         1 UNK         0.0600 
    162 H162        4.3321  -18.2593  -44.4318 H         1 UNK         0.0600 
    163 H163        4.3751  -17.6115  -42.7979 H         1 UNK         0.0600 
    164 H164        1.8687  -16.8094  -42.2299 H         1 UNK         0.3000 
    165 H165       -1.0687  -17.8626  -40.5023 H         1 UNK         0.0600 
    166 H166        0.0477  -16.6491  -38.6519 H         1 UNK         0.0600 
    167 H167        0.7960  -18.2218  -38.8783 H         1 UNK         0.0600 
    168 H168        1.6066  -16.7754  -39.4674 H         1 UNK         0.0600 
    169 H169        0.1753  -15.3071  -40.8695 H         1 UNK         0.3000 
    170 H170       -1.3744  -14.4757  -43.9562 H         1 UNK         0.0600 
    171 H171       -3.2063  -14.1094  -42.2933 H         1 UNK         0.0600 
    172 H172       -2.0383  -13.4847  -41.1342 H         1 UNK         0.0600 
    173 H173       -2.3422  -12.6202  -42.6411 H         1 UNK         0.0600 
    174 H174        0.1130  -12.8114  -42.2816 H         1 UNK         0.3000 
    175 H175        2.5983  -12.9402  -42.0620 H         1 UNK         0.0600 
    176 H176        3.7581  -13.7936  -44.7610 H         1 UNK         0.0600 
    177 H177        4.6223  -12.9442  -43.4845 H         1 UNK         0.0600 
    178 H178        4.0602  -14.5839  -43.2153 H         1 UNK         0.0600 
    179 H179        2.5853  -11.6819  -44.6989 H         1 UNK         0.3000 
    180 H180        0.3974   -9.0299  -43.7129 H         1 UNK         0.0600 
    181 H181        2.3347   -7.6700  -44.4746 H         1 UNK         0.0600 
    182 H182        3.4012   -9.0688  -44.3678 H         1 UNK         0.0600 
    183 H183        2.6981   -8.3766  -42.9101 H         1 UNK         0.0600 
    184 H184        1.2770  -10.8659  -45.7521 H         1 UNK         0.3000 
    185 H185       -0.3463  -10.6221  -47.6885 H         1 UNK         0.0600 
    186 H186        0.3610   -7.9637  -49.0343 H         1 UNK         0.0600 
    187 H187       -0.4496   -9.3296  -49.8004 H         1 UNK         0.0600 
    188 H188       -1.2450   -8.4531  -48.5044 H         1 UNK         0.0600 
    189 H189        1.9982   -9.7783  -49.1281 H         1 UNK         0.3000 
    190 H190       -1.4166  -21.5430  -47.3419 H         1 UNK         0.3000 
    191 H191       -2.7504  -22.6532  -49.5643 H         1 UNK         0.0600 
    192 H192       -3.4561  -20.5867  -48.3183 H         1 UNK         0.0600 
    193 H193       -3.9867  -21.5837  -46.9720 H         1 UNK         0.0600 
    194 H194       -4.7810  -21.7205  -48.5378 H         1 UNK         0.0600 
    195 H195       -2.6836  -23.7496  -46.1404 H         1 UNK         0.3000 
    196 H196       -4.4549  -25.9465  -46.4443 H         1 UNK         0.0600 
    197 H197       -3.8403  -25.0124  -44.2389 H         1 UNK         0.0600 
    198 H198       -2.1670  -25.5196  -44.4503 H         1 UNK         0.0600 
    199 H199       -3.4414  -26.7227  -44.2973 H         1 UNK         0.0600 
    200 H200       -0.8803  -25.7494  -46.7647 H         1 UNK         0.3000 
    201 H201       -0.4355  -28.4990  -47.3540 H         1 UNK         0.0600 
    202 H202        1.3571  -26.9613  -46.5986 H         1 UNK         0.0600 
    203 H203        1.2217  -26.0268  -48.0857 H         1 UNK         0.0600 
    204 H204        1.7895  -27.6909  -48.1381 H         1 UNK         0.0600 
    205 H205       -1.0510  -25.6883  -49.4869 H         1 UNK         0.3000 
    206 H206       -0.8682  -27.1432  -51.9637 H         1 UNK         0.0600 
    207 H207       -2.1622  -24.4389  -51.3114 H         1 UNK         0.0600 
    208 H208       -0.4703  -24.6820  -51.7435 H         1 UNK         0.0600 
    209 H209       -1.7296  -25.0219  -52.9155 H         1 UNK         0.0600 
    210 H210       -3.3168  -27.0160  -49.5936 H         1 UNK         0.3000 
    211 H211       -5.4006  -27.6742  -49.3563 H         1 UNK         0.0600 
    212 H212       -5.1454  -29.1903  -52.0077 H         1 UNK         0.0600 
    213 H213       -6.3517  -29.4591  -50.7584 H         1 UNK         0.0600 
    214 H214       -4.6629  -29.8109  -50.4293 H         1 UNK         0.0600 
    215 H215       -5.0226  -25.1707  -50.1830 H         1 UNK         0.3000 
    216 H216       -5.9068  -23.3059  -50.9774 H         1 UNK         0.0600 
    217 H217       -8.3752  -23.1217  -51.0254 H         1 UNK         0.0600 
    218 H218       -7.8560  -24.0550  -49.6308 H         1 UNK         0.0600 
    219 H219       -8.5402  -24.8730  -51.0350 H         1 UNK         0.0600 
    220 H220       -4.4504  -24.1735  -52.8455 H         1 UNK         0.3000 
    221 H221       -5.6355  -24.8190  -55.3732 H         1 UNK         0.0600 
    222 H222       -2.8761  -23.6774  -54.6788 H         1 UNK         0.0600 
    223 H223       -3.2895  -25.3904  -54.8063 H         1 UNK         0.0600 
    224 H224       -3.3319  -24.3665  -56.2316 H         1 UNK         0.0600 
    225 H225       -5.1034  -21.7918  -53.6965 H         1 UNK         0.3000 
    226 H226       -6.5400  -20.3191  -55.7786 H         1 UNK         0.0600 
    227 H227       -4.1496  -19.8671  -56.3516 H         1 UNK         0.0600 
    228 H228       -4.8631  -18.4259  -55.6479 H         1 UNK         0.0600 
    229 H229       -3.8040  -19.4458  -54.6797 H         1 UNK         0.0600 
    230 H230       -7.0336  -18.0686  -54.7975 H         1 UNK         0.3000 
    231 H231       -8.5212  -18.3759  -52.4107 H         1 UNK         0.0600 
    232 H232       -8.8902  -15.9118  -52.6806 H         1 UNK         0.0600 
    233 H233       -9.1489  -16.7866  -54.1814 H         1 UNK         0.0600 
    234 H234       -7.6655  -15.8639  -53.9428 H         1 UNK         0.0600 
    235 H235       -7.3984  -18.9636  -50.6492 H         1 UNK         0.3000 
    236 H236       -6.1450  -18.9781  -48.8404 H         1 UNK         0.0600 
    237 H237       -5.7814  -15.9557  -49.1824 H         1 UNK         0.0600 
    238 H238       -7.1475  -16.7294  -48.3797 H         1 UNK         0.0600 
    239 H239       -5.5324  -16.8806  -47.7087 H         1 UNK         0.0600 
    240 H240       -4.9007  -19.7211  -51.2814 H         1 UNK         0.3000 
    241 H241       -2.2070  -19.7657  -50.3942 H         1 UNK         0.0600 
    242 H242       -1.6465  -22.2919  -53.0390 H         1 UNK         0.3800 
    243 H243       -0.8423  -20.8185  -52.5711 H         1 UNK         0.3800 
    244 H244       -2.5035  -17.4817  -51.8232 H         1 UNK         0.0800 
    245 H245       -2.3624  -18.5430  -53.1819 H         1 UNK         0.0800 
    246 H246       -0.2402  -16.2517  -50.9145 H         1 UNK         0.0800 
    247 H247       -0.9472  -17.4309  -49.8322 H         1 UNK         0.0800 
@<TRIPOS>BOND
     1    1    2 1    
     2    1  127 1    
     3    1  128 1    
     4    1  129 1    
     5    2    3 2    
     6    2    4 am   BACKBONE|DICT|INTERRES
     7    4    5 1    
     8    4  130 1    
     9    5    6 1    
    10    5   65 1    
    11    5  131 1    
    12    6    7 1    
    13    6  132 1    
    14    6  133 1    
    15    7    8 1    
    16    8    9 1    
    17    8  134 1    
    18    8  135 1    
    19    9   10 ar   
    20    9   14 ar   
    21   10   11 ar   
    22   10  136 1    
    23   11   12 ar   
    24   11  126 1    
    25   12   13 ar   
    26   12  137 1    
    27   13   14 ar   
    28   13   15 1    
    29   14  138 1    
    30   15   16 1    
    31   15  139 1    
    32   15  140 1    
    33   16   17 1    
    34   17   18 1    
    35   17  141 1    
    36   17  142 1    
    37   18   19 1    
    38   18   67 1    
    39   18  143 1    
    40   19   20 am   BACKBONE|DICT|INTERRES
    41   19  144 1    
    42   20   21 2    
    43   20   22 1    
    44   22   23 1    
    45   22   24 1    
    46   22  145 1    
    47   23  146 1    
    48   23  147 1    
    49   23  148 1    
    50   24   25 am   BACKBONE|DICT|INTERRES
    51   24  149 1    
    52   25   26 2    
    53   25   27 1    
    54   27   28 1    
    55   27   29 1    
    56   27  150 1    
    57   28  151 1    
    58   28  152 1    
    59   28  153 1    
    60   29   30 am   BACKBONE|DICT|INTERRES
    61   29  154 1    
    62   30   31 2    
    63   30   32 1    
    64   32   33 1    
    65   32   34 1    
    66   32  155 1    
    67   33  156 1    
    68   33  157 1    
    69   33  158 1    
    70   34   35 am   BACKBONE|DICT|INTERRES
    71   34  159 1    
    72   35   36 2    
    73   35   37 1    
    74   37   38 1    
    75   37   39 1    
    76   37  160 1    
    77   38  161 1    
    78   38  162 1    
    79   38  163 1    
    80   39   40 am   BACKBONE|DICT|INTERRES
    81   39  164 1    
    82   40   41 2    
    83   40   42 1    
    84   42   43 1    
    85   42   44 1    
    86   42  165 1    
    87   43  166 1    
    88   43  167 1    
    89   43  168 1    
    90   44   45 am   BACKBONE|DICT|INTERRES
    91   44  169 1    
    92   45   46 2    
    93   45   47 1    
    94   47   48 1    
    95   47   49 1    
    96   47  170 1    
    97   48  171 1    
    98   48  172 1    
    99   48  173 1    
   100   49   50 am   BACKBONE|DICT|INTERRES
   101   49  174 1    
   102   50   51 2    
   103   50   52 1    
   104   52   53 1    
   105   52   54 1    
   106   52  175 1    
   107   53  176 1    
   108   53  177 1    
   109   53  178 1    
   110   54   55 am   BACKBONE|DICT|INTERRES
   111   54  179 1    
   112   55   56 2    
   113   55   57 1    
   114   57   58 1    
   115   57   59 1    
   116   57  180 1    
   117   58  181 1    
   118   58  182 1    
   119   58  183 1    
   120   59   60 am   BACKBONE|DICT|INTERRES
   121   59  184 1    
   122   60   61 2    
   123   60   62 1    
   124   62   63 1    
   125   62   64 1    
   126   62  185 1    
   127   63  186 1    
   128   63  187 1    
   129   63  188 1    
   130   64   65 am   BACKBONE|DICT|INTERRES
   131   64  189 1    
   132   65   66 2    
   133   67   68 2    
   134   67   69 am   BACKBONE|DICT|INTERRES
   135   69   70 1    
   136   69  190 1    
   137   70   71 1    
   138   70   72 1    
   139   70  191 1    
   140   71  192 1    
   141   71  193 1    
   142   71  194 1    
   143   72   73 2    
   144   72   74 am   BACKBONE|DICT|INTERRES
   145   74   75 1    
   146   74  195 1    
   147   75   76 1    
   148   75   77 1    
   149   75  196 1    
   150   76  197 1    
   151   76  198 1    
   152   76  199 1    
   153   77   78 2    
   154   77   79 am   BACKBONE|DICT|INTERRES
   155   79   80 1    
   156   79  200 1    
   157   80   81 1    
   158   80   82 1    
   159   80  201 1    
   160   81  202 1    
   161   81  203 1    
   162   81  204 1    
   163   82   83 2    
   164   82   84 am   BACKBONE|DICT|INTERRES
   165   84   85 1    
   166   84  205 1    
   167   85   86 1    
   168   85   87 1    
   169   85  206 1    
   170   86  207 1    
   171   86  208 1    
   172   86  209 1    
   173   87   88 2    
   174   87   89 am   BACKBONE|DICT|INTERRES
   175   89   90 1    
   176   89  210 1    
   177   90   91 1    
   178   90   92 1    
   179   90  211 1    
   180   91  212 1    
   181   91  213 1    
   182   91  214 1    
   183   92   93 2    
   184   92   94 am   BACKBONE|DICT|INTERRES
   185   94   95 1    
   186   94  215 1    
   187   95   96 1    
   188   95   97 1    
   189   95  216 1    
   190   96  217 1    
   191   96  218 1    
   192   96  219 1    
   193   97   98 2    
   194   97   99 am   BACKBONE|DICT|INTERRES
   195   99  100 1    
   196   99  220 1    
   197  100  101 1    
   198  100  102 1    
   199  100  221 1    
   200  101  222 1    
   201  101  223 1    
   202  101  224 1    
   203  102  103 2    
   204  102  104 am   BACKBONE|DICT|INTERRES
   205  104  105 1    
   206  104  225 1    
   207  105  106 1    
   208  105  107 1    
   209  105  226 1    
   210  106  227 1    
   211  106  228 1    
   212  106  229 1    
   213  107  108 2    
   214  107  109 am   BACKBONE|DICT|INTERRES
   215  109  110 1    
   216  109  230 1    
   217  110  111 1    
   218  110  112 1    
   219  110  231 1    
   220  111  232 1    
   221  111  233 1    
   222  111  234 1    
   223  112  113 2    
   224  112  114 am   BACKBONE|DICT|INTERRES
   225  114  115 1    
   226  114  235 1    
   227  115  116 1    
   228  115  117 1    
   229  115  236 1    
   230  116  237 1    
   231  116  238 1    
   232  116  239 1    
   233  117  118 2    
   234  117  119 am   BACKBONE|DICT|INTERRES
   235  119  120 1    
   236  119  240 1    
   237  120  121 1    
   238  120  124 1    
   239  120  241 1    
   240  121  122 am   BACKBONE|DICT|INTERRES
   241  121  123 2    
   242  122  242 1    
   243  122  243 1    
   244  124  125 1    
   245  124  244 1    
   246  124  245 1    
   247  125  126 1    
   248  126  246 1    
   249  126  247 1    
@<TRIPOS>SUBSTRUCTURE
     1 UNK         1 GROUP             0       ****    0 ROOT    
