@<TRIPOS>MOLECULE
3R540
247   249    1
SMALL
USER_CHARGES


@<TRIPOS>ATOM
      1 CA         -1.9221   -8.6449  -48.3678 C.3       0 UNK        -0.1800 
      2 C          -0.8554   -9.6310  -48.8214 C.2       0 UNK         0.5000 
      3 O           0.2652   -9.5995  -48.3130 O.2       0 UNK        -0.5000 
      4 N          -1.2036  -10.5143  -49.7666 N.am      1 UNK        -0.5000 
      5 CA         -0.3273  -11.5488  -50.3376 C.3       1 UNK         0.1400 
      6 C6         -0.9661  -12.2140  -51.5826 C.3       23 UNK        -0.0398 
      7 S7         -2.5660  -13.0360  -51.2407 S.3       23 UNK        -0.2404 
      8 C8         -2.5137  -14.4668  -52.3646 C.3       23 UNK        -0.0205 
      9 C9         -1.4676  -15.5005  -51.9693 C.ar      23 UNK        -0.0193 
     10 C10        -0.3055  -15.6446  -52.7303 C.ar      23 UNK        -0.1150 
     11 C11         0.6328  -16.6323  -52.4197 C.ar      23 UNK        -0.0193 
     12 C12         0.4066  -17.4756  -51.3260 C.ar      23 UNK        -0.1150 
     13 C13        -0.7453  -17.3335  -50.5459 C.ar      23 UNK        -0.0193 
     14 C14        -1.6772  -16.3428  -50.8732 C.ar      23 UNK        -0.1150 
     15 C15        -0.9846  -18.2451  -49.3498 C.3       23 UNK        -0.0205 
     16 S16        -1.9180  -19.7257  -49.8275 S.3       23 UNK        -0.2404 
     17 C17        -2.4562  -20.3971  -48.2183 C.3       23 UNK        -0.0398 
     18 CA         -1.8124  -21.7762  -47.9168 C.3       11 UNK         0.1400 
     19 N          -0.5819  -21.6714  -47.1236 N.am      11 UNK        -0.5000 
     20 C           0.2442  -22.7015  -46.8834 C.2       10 UNK         0.5000 
     21 O           0.0818  -23.8287  -47.3478 O.2       10 UNK        -0.5000 
     22 CA          1.4181  -22.4544  -45.9228 C.3       10 UNK         0.1400 
     23 CB          2.5502  -21.6877  -46.6229 C.3       10 UNK        -0.1800 
     24 N           1.0019  -21.7594  -44.7043 N.am      10 UNK        -0.5000 
     25 C           0.1305  -22.2584  -43.8146 C.2       9 UNK         0.5000 
     26 O          -0.3697  -23.3786  -43.9064 O.2       9 UNK        -0.5000 
     27 CA         -0.2875  -21.3493  -42.6462 C.3       9 UNK         0.1400 
     28 CB          0.7387  -21.4276  -41.5066 C.3       9 UNK        -0.1800 
     29 N          -0.4821  -19.9558  -43.0456 N.am      9 UNK        -0.5000 
     30 C          -1.4010  -19.5293  -43.9250 C.2       8 UNK         0.5000 
     31 O          -2.2181  -20.2669  -44.4775 O.2       8 UNK        -0.5000 
     32 CA         -1.3497  -18.0366  -44.3028 C.3       8 UNK         0.1400 
     33 CB         -1.9658  -17.1584  -43.2043 C.3       8 UNK        -0.1800 
     34 N           0.0137  -17.5873  -44.5846 N.am      8 UNK        -0.5000 
     35 C           0.7750  -18.0773  -45.5732 C.2       7 UNK         0.5000 
     36 O           0.3846  -18.9171  -46.3847 O.2       7 UNK        -0.5000 
     37 CA          2.2306  -17.5869  -45.6263 C.3       7 UNK         0.1400 
     38 CB          2.3280  -16.2178  -46.3135 C.3       7 UNK        -0.1800 
     39 N           2.8251  -17.5132  -44.2911 N.am      7 UNK        -0.5000 
     40 C           3.1554  -18.5850  -43.5566 C.2       6 UNK         0.5000 
     41 O           3.0225  -19.7445  -43.9449 O.2       6 UNK        -0.5000 
     42 CA          3.6905  -18.3200  -42.1374 C.3       6 UNK         0.1400 
     43 CB          5.1970  -18.0234  -42.1742 C.3       6 UNK        -0.1800 
     44 N           2.9972  -17.2215  -41.4640 N.am      6 UNK        -0.5000 
     45 C           1.7032  -17.2392  -41.1140 C.2       5 UNK         0.5000 
     46 O           0.9586  -18.2004  -41.2969 O.2       5 UNK        -0.5000 
     47 CA          1.1324  -15.9479  -40.5002 C.3       5 UNK         0.1400 
     48 CB          1.3017  -15.9558  -38.9738 C.3       5 UNK        -0.1800 
     49 N           1.7310  -14.7285  -41.0501 N.am      5 UNK        -0.5000 
     50 C           1.6599  -14.3619  -42.3359 C.2       4 UNK         0.5000 
     51 O           1.1163  -15.0380  -43.2139 O.2       4 UNK        -0.5000 
     52 CA          2.3688  -13.0512  -42.7139 C.3       4 UNK         0.1400 
     53 CB          3.7212  -13.3521  -43.3787 C.3       4 UNK        -0.1800 
     54 N           1.5479  -12.2727  -43.6353 N.am      4 UNK        -0.5000 
     55 C           0.4503  -11.5858  -43.2886 C.2       3 UNK         0.5000 
     56 O           0.0836  -11.4228  -42.1240 O.2       3 UNK        -0.5000 
     57 CA         -0.3848  -10.9923  -44.4413 C.3       3 UNK         0.1400 
     58 CB          0.0397   -9.5434  -44.7246 C.3       3 UNK        -0.1800 
     59 N          -0.2774  -11.7764  -45.6746 N.am      3 UNK        -0.5000 
     60 C          -0.7789  -13.0102  -45.8318 C.2       2 UNK         0.5000 
     61 O          -1.4946  -13.5675  -44.9991 O.2       2 UNK        -0.5000 
     62 CA         -0.4206  -13.7131  -47.1486 C.3       2 UNK         0.1400 
     63 CB         -1.1692  -15.0369  -47.3660 C.3       2 UNK        -0.1800 
     64 N          -0.6795  -12.8145  -48.2655 N.am      2 UNK        -0.5000 
     65 C           0.1357  -12.6025  -49.3051 C.2       1 UNK         0.5000 
     66 O           1.2167  -13.1720  -49.4599 O.2       1 UNK        -0.5000 
     67 C          -2.8259  -22.7509  -47.2787 C.2       11 UNK         0.5000 
     68 O          -3.3820  -23.5910  -47.9909 O.2       11 UNK        -0.5000 
     69 N          -3.0161  -22.6585  -45.9538 N.am      12 UNK        -0.5000 
     70 CA         -3.8771  -23.5498  -45.1711 C.3       12 UNK         0.1400 
     71 CB         -3.9445  -23.0673  -43.7150 C.3       12 UNK        -0.1800 
     72 C          -3.4501  -25.0276  -45.2433 C.2       12 UNK         0.5000 
     73 O          -4.3068  -25.8988  -45.3949 O.2       12 UNK        -0.5000 
     74 N          -2.1367  -25.2774  -45.1646 N.am      13 UNK        -0.5000 
     75 CA         -1.5347  -26.6010  -45.3118 C.3       13 UNK         0.1400 
     76 CB         -0.0727  -26.5512  -44.8424 C.3       13 UNK        -0.1800 
     77 C          -1.6240  -27.1423  -46.7506 C.2       13 UNK         0.5000 
     78 O          -1.8422  -28.3415  -46.9280 O.2       13 UNK        -0.5000 
     79 N          -1.4467  -26.2596  -47.7445 N.am      14 UNK        -0.5000 
     80 CA         -1.4733  -26.5903  -49.1683 C.3       14 UNK         0.1400 
     81 CB         -0.9595  -25.3999  -49.9939 C.3       14 UNK        -0.1800 
     82 C          -2.8565  -27.0545  -49.6574 C.2       14 UNK         0.5000 
     83 O          -2.9410  -28.1110  -50.2855 O.2       14 UNK        -0.5000 
     84 N          -3.9078  -26.2797  -49.3515 N.am      15 UNK        -0.5000 
     85 CA         -5.2950  -26.6025  -49.7167 C.3       15 UNK         0.1400 
     86 CB         -5.5072  -26.5054  -51.2448 C.3       15 UNK        -0.1800 
     87 C          -6.3500  -25.7385  -49.0033 C.2       15 UNK         0.5000 
     88 O          -7.5254  -26.1036  -49.0391 O.2       15 UNK        -0.5000 
     89 N          -5.9468  -24.6018  -48.4148 N.am      16 UNK        -0.5000 
     90 CA         -6.7980  -23.5721  -47.8020 C.3       16 UNK         0.1400 
     91 CB         -7.6399  -24.1341  -46.6369 C.3       16 UNK        -0.1800 
     92 C          -7.6305  -22.7573  -48.8146 C.2       16 UNK         0.5000 
     93 O          -8.5405  -22.0307  -48.4114 O.2       16 UNK        -0.5000 
     94 N          -7.2714  -22.8423  -50.1027 N.am      17 UNK        -0.5000 
     95 CA         -7.7051  -21.9147  -51.1458 C.3       17 UNK         0.1400 
     96 CB         -7.5276  -22.5747  -52.5235 C.3       17 UNK        -0.1800 
     97 C          -6.9026  -20.6027  -51.0500 C.2       17 UNK         0.5000 
     98 O          -5.8178  -20.5850  -50.4609 O.2       17 UNK        -0.5000 
     99 N          -7.4459  -19.5354  -51.6486 N.am      18 UNK        -0.5000 
    100 CA        -6.9750  -18.1496  -51.5328 C.3       18 UNK         0.1400 
    101 CB        -7.9037  -17.2421  -52.3551 C.3       18 UNK        -0.1800 
    102 C         -5.5039  -17.8946  -51.9194 C.2       18 UNK         0.5000 
    103 O         -4.9168  -16.9427  -51.4082 O.2       18 UNK        -0.5000 
    104 N         -4.9418  -18.7335  -52.7975 N.am      19 UNK        -0.5000 
    105 CA        -3.5456  -18.6827  -53.2288 C.3       19 UNK         0.1400 
    106 CB        -3.4195  -17.7846  -54.4743 C.3       19 UNK        -0.1800 
    107 C         -2.9969  -20.1058  -53.4386 C.2       19 UNK         0.5000 
    108 O         -2.2371  -20.3401  -54.3785 O.2       19 UNK        -0.5000 
    109 N         -3.4032  -21.0376  -52.5625 N.am      20 UNK        -0.5000 
    110 CA        -3.0879  -22.4701  -52.6066 C.3       20 UNK         0.1400 
    111 CB        -3.6910  -23.1443  -51.3675 C.3       20 UNK        -0.1800 
    112 C         -1.5892  -22.8180  -52.6904 C.2       20 UNK         0.5000 
    113 O         -1.2213  -23.7380  -53.4209 O.2       20 UNK        -0.5000 
    114 N         -0.7601  -22.0892  -51.9336 N.am      21 UNK        -0.5000 
    115 CA         0.6887  -22.2950  -51.8640 C.3       21 UNK         0.1400 
    116 CB         1.1799  -21.8653  -50.4731 C.3       21 UNK        -0.1800 
    117 C          1.4661  -21.5493  -52.9656 C.2       21 UNK         0.5000 
    118 O          2.6776  -21.7428  -53.0795 O.2       21 UNK        -0.5000 
    119 N          0.7810  -20.6908  -53.7287 N.am      22 UNK        -0.5000 
    120 CA         1.3643  -19.8553  -54.7839 C.3       22 UNK         0.1400 
    121 C          1.6254  -20.6179  -56.1144 C.2       22 UNK         0.5000 
    122 N          2.3501  -20.0094  -57.0435 N.am      22 UNK        -0.7600 
    123 O          1.1727  -21.7408  -56.3273 O.2       22 UNK        -0.5000 
    124 C124        0.5167  -18.5702  -54.9867 C.3       23 UNK        -0.0398 
    125 S125        1.5357  -17.0591  -55.0419 S.3       23 UNK        -0.2404 
    126 C126        1.8889  -16.7894  -53.2687 C.3       23 UNK        -0.0205 
    127 H127       -2.2206   -8.8601  -47.3420 H         1 UNK         0.0600 
    128 H128       -2.8105   -8.6922  -48.9980 H         1 UNK         0.0600 
    129 H129       -1.5339   -7.6271  -48.4057 H         1 UNK         0.0600 
    130 H130       -2.1443  -10.4990  -50.1355 H         1 UNK         0.3000 
    131 H131        0.5771  -11.0381  -50.6753 H         1 UNK         0.0600 
    132 H132       -1.1349  -11.4605  -52.3529 H         1 UNK         0.0800 
    133 H133       -0.2658  -12.9251  -52.0218 H         1 UNK         0.0800 
    134 H134       -2.3458  -14.1158  -53.3840 H         1 UNK         0.0800 
    135 H135       -3.4956  -14.9401  -52.3695 H         1 UNK         0.0800 
    136 H136       -0.1367  -15.0000  -53.5815 H         1 UNK         0.1150 
    137 H137        1.1254  -18.2445  -51.0801 H         1 UNK         0.1150 
    138 H138       -2.5770  -16.2359  -50.2836 H         1 UNK         0.1150 
    139 H139       -0.0325  -18.5460  -48.9123 H         1 UNK         0.0800 
    140 H140       -1.5327  -17.7097  -48.5744 H         1 UNK         0.0800 
    141 H141       -3.5445  -20.4671  -48.2812 H         1 UNK         0.0800 
    142 H142       -2.2560  -19.6863  -47.4150 H         1 UNK         0.0800 
    143 H143       -1.5321  -22.2375  -48.8651 H         1 UNK         0.0600 
    144 H144       -0.3624  -20.7632  -46.7252 H         1 UNK         0.3000 
    145 H145        1.8104  -23.4293  -45.6259 H         1 UNK         0.0600 
    146 H146        3.4159  -21.5797  -45.9697 H         1 UNK         0.0600 
    147 H147        2.8825  -22.2172  -47.5167 H         1 UNK         0.0600 
    148 H148        2.2375  -20.6916  -46.9332 H         1 UNK         0.0600 
    149 H149        1.4220  -20.8529  -44.5296 H         1 UNK         0.3000 
    150 H150       -1.2416  -21.7172  -42.2648 H         1 UNK         0.0600 
    151 H151        0.8887  -22.4592  -41.1856 H         1 UNK         0.0600 
    152 H152        0.4048  -20.8623  -40.6364 H         1 UNK         0.0600 
    153 H153        1.7085  -21.0331  -41.8105 H         1 UNK         0.0600 
    154 H154        0.1258  -19.2725  -42.6008 H         1 UNK         0.3000 
    155 H155       -1.9378  -17.9031  -45.2132 H         1 UNK         0.0600 
    156 H156       -3.0016  -17.4422  -43.0146 H         1 UNK         0.0600 
    157 H157       -1.9626  -16.1071  -43.4940 H         1 UNK         0.0600 
    158 H158       -1.4235  -17.2468  -42.2632 H         1 UNK         0.0600 
    159 H159        0.4004  -16.8733  -43.9769 H         1 UNK         0.3000 
    160 H160        2.8018  -18.3036  -46.2201 H         1 UNK         0.0600 
    161 H161        1.8187  -15.4445  -45.7395 H         1 UNK         0.0600 
    162 H162        1.8764  -16.2453  -47.3063 H         1 UNK         0.0600 
    163 H163        3.3670  -15.9123  -46.4369 H         1 UNK         0.0600 
    164 H164        2.9032  -16.5960  -43.8772 H         1 UNK         0.3000 
    165 H165        3.5355  -19.2271  -41.5495 H         1 UNK         0.0600 
    166 H166        5.6023  -17.9152  -41.1680 H         1 UNK         0.0600 
    167 H167        5.7424  -18.8354  -42.6572 H         1 UNK         0.0600 
    168 H168        5.4155  -17.1077  -42.7251 H         1 UNK         0.0600 
    169 H169        3.5346  -16.3890  -41.2737 H         1 UNK         0.3000 
    170 H170        0.0641  -15.9225  -40.7246 H         1 UNK         0.0600 
    171 H171        0.8458  -16.8447  -38.5354 H         1 UNK         0.0600 
    172 H172        2.3532  -15.9493  -38.6843 H         1 UNK         0.0600 
    173 H173        0.8219  -15.0889  -38.5190 H         1 UNK         0.0600 
    174 H174        2.2040  -14.1250  -40.3928 H         1 UNK         0.3000 
    175 H175        2.5457  -12.4599  -41.8128 H         1 UNK         0.0600 
    176 H176        3.6022  -13.9347  -44.2933 H         1 UNK         0.0600 
    177 H177        4.2474  -12.4322  -43.6342 H         1 UNK         0.0600 
    178 H178        4.3687  -13.9201  -42.7094 H         1 UNK         0.0600 
    179 H179        1.7516  -12.3780  -44.6170 H         1 UNK         0.3000 
    180 H180       -1.4303  -10.9880  -44.1261 H         1 UNK         0.0600 
    181 H181        1.0703   -9.4868  -45.0771 H         1 UNK         0.0600 
    182 H182       -0.0348   -8.9309  -43.8251 H         1 UNK         0.0600 
    183 H183       -0.5976   -9.0858  -45.4807 H         1 UNK         0.0600 
    184 H184        0.2584  -11.3667  -46.4283 H         1 UNK         0.3000 
    185 H185        0.6466  -13.9306  -47.0916 H         1 UNK         0.0600 
    186 H186       -1.0103  -15.7244  -46.5355 H         1 UNK         0.0600 
    187 H187       -2.2434  -14.8831  -47.4723 H         1 UNK         0.0600 
    188 H188       -0.8059  -15.5255  -48.2674 H         1 UNK         0.0600 
    189 H189       -1.5386  -12.2846  -48.2194 H         1 UNK         0.3000 
    190 H190       -2.5473  -21.9168  -45.4401 H         1 UNK         0.3000 
    191 H191       -4.8826  -23.4815  -45.5830 H         1 UNK         0.0600 
    192 H192       -4.3049  -22.0402  -43.6554 H         1 UNK         0.0600 
    193 H193       -4.6270  -23.6861  -43.1313 H         1 UNK         0.0600 
    194 H194       -2.9700  -23.1094  -43.2304 H         1 UNK         0.0600 
    195 H195       -1.5010  -24.5073  -44.9738 H         1 UNK         0.3000 
    196 H196       -2.0749  -27.2928  -44.6621 H         1 UNK         0.0600 
    197 H197        0.3997  -27.5306  -44.9271 H         1 UNK         0.0600 
    198 H198       -0.0049  -26.2459  -43.7981 H         1 UNK         0.0600 
    199 H199        0.5159  -25.8489  -45.4339 H         1 UNK         0.0600 
    200 H200       -1.1971  -25.3039  -47.5079 H         1 UNK         0.3000 
    201 H201       -0.7799  -27.4194  -49.3245 H         1 UNK         0.0600 
    202 H202        0.0845  -25.1853  -49.7658 H         1 UNK         0.0600 
    203 H203       -1.5321  -24.4948  -49.7980 H         1 UNK         0.0600 
    204 H204       -1.0209  -25.6052  -51.0634 H         1 UNK         0.0600 
    205 H205       -3.7437  -25.4494  -48.7942 H         1 UNK         0.3000 
    206 H206       -5.4849  -27.6325  -49.4076 H         1 UNK         0.0600 
    207 H207       -4.8432  -27.1681  -51.7981 H         1 UNK         0.0600 
    208 H208       -6.5252  -26.7894  -51.5145 H         1 UNK         0.0600 
    209 H209       -5.3508  -25.4929  -51.6128 H         1 UNK         0.0600 
    210 H210       -4.9605  -24.3565  -48.4176 H         1 UNK         0.3000 
    211 H211       -6.1061  -22.8449  -47.3777 H         1 UNK         0.0600 
    212 H212       -8.4544  -24.7663  -46.9903 H         1 UNK         0.0600 
    213 H213       -8.0871  -23.3271  -46.0556 H         1 UNK         0.0600 
    214 H214       -7.0285  -24.7246  -45.9545 H         1 UNK         0.0600 
    215 H215       -6.4896  -23.4368  -50.3273 H         1 UNK         0.3000 
    216 H216       -8.7642  -21.6902  -51.0024 H         1 UNK         0.0600 
    217 H217       -7.9599  -21.9541  -53.3091 H         1 UNK         0.0600 
    218 H218       -8.0301  -23.5413  -52.5651 H         1 UNK         0.0600 
    219 H219       -6.4802  -22.7309  -52.7788 H         1 UNK         0.0600 
    220 H220       -8.3216  -19.6567  -52.1367 H         1 UNK         0.3000 
    221 H221       -7.0744  -17.8696  -50.4822 H         1 UNK         0.0600 
    222 H222       -7.8854  -17.5040  -53.4137 H         1 UNK         0.0600 
    223 H223       -8.9348  -17.3115  -52.0081 H         1 UNK         0.0600 
    224 H224       -7.6054  -16.1961  -52.2710 H         1 UNK         0.0600 
    225 H225       -5.4966  -19.4946  -53.1625 H         1 UNK         0.3000 
    226 H226       -2.9370  -18.2497  -52.4346 H         1 UNK         0.0600 
    227 H227       -3.7985  -16.7821  -54.2761 H         1 UNK         0.0600 
    228 H228       -2.3798  -17.6763  -54.7817 H         1 UNK         0.0600 
    229 H229       -3.9748  -18.1926  -55.3193 H         1 UNK         0.0600 
    230 H230       -4.0027  -20.7400  -51.8010 H         1 UNK         0.3000 
    231 H231       -3.5700  -22.8837  -53.4944 H         1 UNK         0.0600 
    232 H232       -3.3331  -22.6774  -50.4515 H         1 UNK         0.0600 
    233 H233       -3.4259  -24.2005  -51.3269 H         1 UNK         0.0600 
    234 H234       -4.7746  -23.0804  -51.3638 H         1 UNK         0.0600 
    235 H235       -1.1433  -21.3388  -51.3732 H         1 UNK         0.3000 
    236 H236        0.9080  -23.3586  -51.9799 H         1 UNK         0.0600 
    237 H237        0.7195  -22.4774  -49.7010 H         1 UNK         0.0600 
    238 H238        2.2591  -21.9902  -50.3764 H         1 UNK         0.0600 
    239 H239        0.9493  -20.8205  -50.2631 H         1 UNK         0.0600 
    240 H240       -0.2273  -20.6608  -53.6458 H         1 UNK         0.3000 
    241 H241        2.3521  -19.5643  -54.4217 H         1 UNK         0.0600 
    242 H242        2.5285  -20.4818  -57.9164 H         1 UNK         0.3800 
    243 H243        2.7178  -19.0813  -56.8974 H         1 UNK         0.3800 
    244 H244       -0.0849  -18.6213  -55.8963 H         1 UNK         0.0800 
    245 H245       -0.2106  -18.4506  -54.1841 H         1 UNK         0.0800 
    246 H246        2.5020  -17.6134  -52.9007 H         1 UNK         0.0800 
    247 H247        2.4950  -15.8886  -53.1651 H         1 UNK         0.0800 
@<TRIPOS>BOND
     1    1    2 1    
     2    1  127 1    
     3    1  128 1    
     4    1  129 1    
     5    2    3 2    
     6    2    4 am   BACKBONE|DICT|INTERRES
     7    4    5 1    
     8    4  130 1    
     9    5    6 1    
    10    5   65 1    
    11    5  131 1    
    12    6    7 1    
    13    6  132 1    
    14    6  133 1    
    15    7    8 1    
    16    8    9 1    
    17    8  134 1    
    18    8  135 1    
    19    9   10 ar   
    20    9   14 ar   
    21   10   11 ar   
    22   10  136 1    
    23   11   12 ar   
    24   11  126 1    
    25   12   13 ar   
    26   12  137 1    
    27   13   14 ar   
    28   13   15 1    
    29   14  138 1    
    30   15   16 1    
    31   15  139 1    
    32   15  140 1    
    33   16   17 1    
    34   17   18 1    
    35   17  141 1    
    36   17  142 1    
    37   18   19 1    
    38   18   67 1    
    39   18  143 1    
    40   19   20 am   BACKBONE|DICT|INTERRES
    41   19  144 1    
    42   20   21 2    
    43   20   22 1    
    44   22   23 1    
    45   22   24 1    
    46   22  145 1    
    47   23  146 1    
    48   23  147 1    
    49   23  148 1    
    50   24   25 am   BACKBONE|DICT|INTERRES
    51   24  149 1    
    52   25   26 2    
    53   25   27 1    
    54   27   28 1    
    55   27   29 1    
    56   27  150 1    
    57   28  151 1    
    58   28  152 1    
    59   28  153 1    
    60   29   30 am   BACKBONE|DICT|INTERRES
    61   29  154 1    
    62   30   31 2    
    63   30   32 1    
    64   32   33 1    
    65   32   34 1    
    66   32  155 1    
    67   33  156 1    
    68   33  157 1    
    69   33  158 1    
    70   34   35 am   BACKBONE|DICT|INTERRES
    71   34  159 1    
    72   35   36 2    
    73   35   37 1    
    74   37   38 1    
    75   37   39 1    
    76   37  160 1    
    77   38  161 1    
    78   38  162 1    
    79   38  163 1    
    80   39   40 am   BACKBONE|DICT|INTERRES
    81   39  164 1    
    82   40   41 2    
    83   40   42 1    
    84   42   43 1    
    85   42   44 1    
    86   42  165 1    
    87   43  166 1    
    88   43  167 1    
    89   43  168 1    
    90   44   45 am   BACKBONE|DICT|INTERRES
    91   44  169 1    
    92   45   46 2    
    93   45   47 1    
    94   47   48 1    
    95   47   49 1    
    96   47  170 1    
    97   48  171 1    
    98   48  172 1    
    99   48  173 1    
   100   49   50 am   BACKBONE|DICT|INTERRES
   101   49  174 1    
   102   50   51 2    
   103   50   52 1    
   104   52   53 1    
   105   52   54 1    
   106   52  175 1    
   107   53  176 1    
   108   53  177 1    
   109   53  178 1    
   110   54   55 am   BACKBONE|DICT|INTERRES
   111   54  179 1    
   112   55   56 2    
   113   55   57 1    
   114   57   58 1    
   115   57   59 1    
   116   57  180 1    
   117   58  181 1    
   118   58  182 1    
   119   58  183 1    
   120   59   60 am   BACKBONE|DICT|INTERRES
   121   59  184 1    
   122   60   61 2    
   123   60   62 1    
   124   62   63 1    
   125   62   64 1    
   126   62  185 1    
   127   63  186 1    
   128   63  187 1    
   129   63  188 1    
   130   64   65 am   BACKBONE|DICT|INTERRES
   131   64  189 1    
   132   65   66 2    
   133   67   68 2    
   134   67   69 am   BACKBONE|DICT|INTERRES
   135   69   70 1    
   136   69  190 1    
   137   70   71 1    
   138   70   72 1    
   139   70  191 1    
   140   71  192 1    
   141   71  193 1    
   142   71  194 1    
   143   72   73 2    
   144   72   74 am   BACKBONE|DICT|INTERRES
   145   74   75 1    
   146   74  195 1    
   147   75   76 1    
   148   75   77 1    
   149   75  196 1    
   150   76  197 1    
   151   76  198 1    
   152   76  199 1    
   153   77   78 2    
   154   77   79 am   BACKBONE|DICT|INTERRES
   155   79   80 1    
   156   79  200 1    
   157   80   81 1    
   158   80   82 1    
   159   80  201 1    
   160   81  202 1    
   161   81  203 1    
   162   81  204 1    
   163   82   83 2    
   164   82   84 am   BACKBONE|DICT|INTERRES
   165   84   85 1    
   166   84  205 1    
   167   85   86 1    
   168   85   87 1    
   169   85  206 1    
   170   86  207 1    
   171   86  208 1    
   172   86  209 1    
   173   87   88 2    
   174   87   89 am   BACKBONE|DICT|INTERRES
   175   89   90 1    
   176   89  210 1    
   177   90   91 1    
   178   90   92 1    
   179   90  211 1    
   180   91  212 1    
   181   91  213 1    
   182   91  214 1    
   183   92   93 2    
   184   92   94 am   BACKBONE|DICT|INTERRES
   185   94   95 1    
   186   94  215 1    
   187   95   96 1    
   188   95   97 1    
   189   95  216 1    
   190   96  217 1    
   191   96  218 1    
   192   96  219 1    
   193   97   98 2    
   194   97   99 am   BACKBONE|DICT|INTERRES
   195   99  100 1    
   196   99  220 1    
   197  100  101 1    
   198  100  102 1    
   199  100  221 1    
   200  101  222 1    
   201  101  223 1    
   202  101  224 1    
   203  102  103 2    
   204  102  104 am   BACKBONE|DICT|INTERRES
   205  104  105 1    
   206  104  225 1    
   207  105  106 1    
   208  105  107 1    
   209  105  226 1    
   210  106  227 1    
   211  106  228 1    
   212  106  229 1    
   213  107  108 2    
   214  107  109 am   BACKBONE|DICT|INTERRES
   215  109  110 1    
   216  109  230 1    
   217  110  111 1    
   218  110  112 1    
   219  110  231 1    
   220  111  232 1    
   221  111  233 1    
   222  111  234 1    
   223  112  113 2    
   224  112  114 am   BACKBONE|DICT|INTERRES
   225  114  115 1    
   226  114  235 1    
   227  115  116 1    
   228  115  117 1    
   229  115  236 1    
   230  116  237 1    
   231  116  238 1    
   232  116  239 1    
   233  117  118 2    
   234  117  119 am   BACKBONE|DICT|INTERRES
   235  119  120 1    
   236  119  240 1    
   237  120  121 1    
   238  120  124 1    
   239  120  241 1    
   240  121  122 am   BACKBONE|DICT|INTERRES
   241  121  123 2    
   242  122  242 1    
   243  122  243 1    
   244  124  125 1    
   245  124  244 1    
   246  124  245 1    
   247  125  126 1    
   248  126  246 1    
   249  126  247 1    
@<TRIPOS>SUBSTRUCTURE
     1 UNK         1 GROUP             0       ****    0 ROOT    
