@<TRIPOS>MOLECULE
3R540
247   249    1
SMALL
USER_CHARGES


@<TRIPOS>ATOM
      1 CA          6.8302  -12.5112  -45.5365 C.3       0 UNK        -0.1800 
      2 C           5.3439  -12.7012  -45.7976 C.2       0 UNK         0.5000 
      3 O           4.5294  -11.9413  -45.2743 O.2       0 UNK        -0.5000 
      4 N           4.9876  -13.6954  -46.6222 N.am      1 UNK        -0.5000 
      5 CA          3.6141  -14.0837  -46.9842 C.3       1 UNK         0.1400 
      6 C6          3.5942  -15.3801  -47.8350 C.3       23 UNK        -0.0398 
      7 S7          4.5599  -15.2641  -49.3822 S.3       23 UNK        -0.2404 
      8 C8          4.9948  -17.0134  -49.6749 C.3       23 UNK        -0.0205 
      9 C9          3.8220  -17.9307  -50.0266 C.ar      23 UNK        -0.0193 
     10 C10         2.6830  -17.4654  -50.6963 C.ar      23 UNK        -0.1150 
     11 C11         1.6501  -18.3406  -51.0462 C.ar      23 UNK        -0.0193 
     12 C12         1.7559  -19.6950  -50.7173 C.ar      23 UNK        -0.1150 
     13 C13         2.8898  -20.1796  -50.0583 C.ar      23 UNK        -0.0193 
     14 C14         3.9171  -19.2920  -49.7216 C.ar      23 UNK        -0.1150 
     15 C15         3.0179  -21.6687  -49.7532 C.3       23 UNK        -0.0205 
     16 S16         3.4228  -22.0282  -48.0097 S.3       23 UNK        -0.2404 
     17 C17         1.9872  -21.3238  -47.1327 C.3       23 UNK        -0.0398 
     18 CA          0.9296  -22.3776  -46.7256 C.3       11 UNK         0.1400 
     19 N           0.0211  -21.8551  -45.7034 N.am      11 UNK        -0.5000 
     20 C          -0.9165  -22.5642  -45.0608 C.2       10 UNK         0.5000 
     21 O          -1.0838  -23.7746  -45.2138 O.2       10 UNK        -0.5000 
     22 CA         -1.8561  -21.7775  -44.1270 C.3       10 UNK         0.1400 
     23 CB         -1.1858  -21.5095  -42.7716 C.3       10 UNK        -0.1800 
     24 N          -2.3060  -20.5138  -44.7160 N.am      10 UNK        -0.5000 
     25 C          -3.0744  -20.4265  -45.8118 C.2       9 UNK         0.5000 
     26 O          -3.5269  -21.4032  -46.4050 O.2       9 UNK        -0.5000 
     27 CA         -3.3545  -19.0214  -46.3699 C.3       9 UNK         0.1400 
     28 CB         -4.5008  -18.3500  -45.5994 C.3       9 UNK        -0.1800 
     29 N          -2.1765  -18.1555  -46.3611 N.am      9 UNK        -0.5000 
     30 C          -1.0394  -18.4063  -47.0269 C.2       8 UNK         0.5000 
     31 O          -0.8607  -19.4013  -47.7261 O.2       8 UNK        -0.5000 
     32 CA          0.1216  -17.4206  -46.8055 C.3       8 UNK         0.1400 
     33 CB         -0.1401  -16.0855  -47.5194 C.3       8 UNK        -0.1800 
     34 N           0.3584  -17.1749  -45.3825 N.am      8 UNK        -0.5000 
     35 C           0.6781  -18.1147  -44.4811 C.2       7 UNK         0.5000 
     36 O           0.8865  -19.2934  -44.7619 O.2       7 UNK        -0.5000 
     37 CA          0.7145  -17.6756  -43.0089 C.3       7 UNK         0.1400 
     38 CB          2.0805  -17.0725  -42.6487 C.3       7 UNK        -0.1800 
     39 N          -0.3534  -16.7218  -42.7082 N.am      7 UNK        -0.5000 
     40 C          -1.6534  -17.0463  -42.6461 C.2       6 UNK         0.5000 
     41 O          -2.0774  -18.1946  -42.7794 O.2       6 UNK        -0.5000 
     42 CA         -2.6466  -15.8863  -42.4439 C.3       6 UNK         0.1400 
     43 CB         -2.7540  -15.5164  -40.9571 C.3       6 UNK        -0.1800 
     44 N          -2.2816  -14.6969  -43.2159 N.am      6 UNK        -0.5000 
     45 C          -2.3068  -14.6303  -44.5549 C.2       5 UNK         0.5000 
     46 O          -2.7088  -15.5468  -45.2694 O.2       5 UNK        -0.5000 
     47 CA         -1.7501  -13.3478  -45.2059 C.3       5 UNK         0.1400 
     48 CB         -2.8754  -12.3310  -45.4439 C.3       5 UNK        -0.1800 
     49 N          -0.6780  -12.7089  -44.4365 N.am      5 UNK        -0.5000 
     50 C           0.4913  -13.2809  -44.1243 C.2       4 UNK         0.5000 
     51 O           0.7891  -14.4336  -44.4417 O.2       4 UNK        -0.5000 
     52 CA          1.4779  -12.4164  -43.3192 C.3       4 UNK         0.1400 
     53 CB          2.6417  -13.2374  -42.7363 C.3       4 UNK        -0.1800 
     54 N           2.0261  -11.3459  -44.1459 N.am      4 UNK        -0.5000 
     55 C           1.4196  -10.1835  -44.4191 C.2       3 UNK         0.5000 
     56 O           0.2997   -9.8852  -44.0009 O.2       3 UNK        -0.5000 
     57 CA          2.1848   -9.2033  -45.3217 C.3       3 UNK         0.1400 
     58 CB          3.3358   -8.5385  -44.5498 C.3       3 UNK        -0.1800 
     59 N           2.7256   -9.8998  -46.4871 N.am      3 UNK        -0.5000 
     60 C           2.2037   -9.8490  -47.7203 C.2       2 UNK         0.5000 
     61 O           1.2491   -9.1360  -48.0325 O.2       2 UNK        -0.5000 
     62 CA          2.8493  -10.7522  -48.7922 C.3       2 UNK         0.1400 
     63 CB          3.9135   -9.9746  -49.5814 C.3       2 UNK        -0.1800 
     64 N           3.4587  -11.9627  -48.2394 N.am      2 UNK        -0.5000 
     65 C           2.7832  -12.9564  -47.6442 C.2       1 UNK         0.5000 
     66 O           1.5554  -12.9882  -47.5760 O.2       1 UNK        -0.5000 
     67 C           0.1528  -22.9112  -47.9456 C.2       11 UNK         0.5000 
     68 O           0.3896  -24.0400  -48.3729 O.2       11 UNK        -0.5000 
     69 N          -0.7905  -22.1109  -48.4572 N.am      12 UNK        -0.5000 
     70 CA         -1.6686  -22.4702  -49.5666 C.3       12 UNK         0.1400 
     71 CB         -2.4507  -21.2303  -50.0136 C.3       12 UNK        -0.1800 
     72 C          -2.6135  -23.6387  -49.2342 C.2       12 UNK         0.5000 
     73 O          -2.8958  -24.4535  -50.1102 O.2       12 UNK        -0.5000 
     74 N          -3.0957  -23.7170  -47.9869 N.am      13 UNK        -0.5000 
     75 CA         -3.8992  -24.8331  -47.4881 C.3       13 UNK         0.1400 
     76 CB         -4.4956  -24.4911  -46.1158 C.3       13 UNK        -0.1800 
     77 C          -3.0983  -26.1466  -47.4381 C.2       13 UNK         0.5000 
     78 O          -3.6065  -27.1815  -47.8712 O.2       13 UNK        -0.5000 
     79 N          -1.8473  -26.0731  -46.9611 N.am      14 UNK        -0.5000 
     80 CA         -0.8969  -27.1870  -46.9630 C.3       14 UNK         0.1400 
     81 CB          0.3464  -26.8065  -46.1450 C.3       14 UNK        -0.1800 
     82 C          -0.5091  -27.6319  -48.3869 C.2       14 UNK         0.5000 
     83 O          -0.4050  -28.8326  -48.6431 O.2       14 UNK        -0.5000 
     84 N          -0.3517  -26.6650  -49.3006 N.am      15 UNK        -0.5000 
     85 CA         -0.0858  -26.8569  -50.7269 C.3       15 UNK         0.1400 
     86 CB          0.5345  -25.5689  -51.2965 C.3       15 UNK        -0.1800 
     87 C          -1.3417  -27.3069  -51.5072 C.2       15 UNK         0.5000 
     88 O          -1.7731  -26.6280  -52.4406 O.2       15 UNK        -0.5000 
     89 N          -1.8887  -28.4648  -51.1143 N.am      16 UNK        -0.5000 
     90 CA         -2.9992  -29.1879  -51.7411 C.3       16 UNK         0.1400 
     91 CB         -2.5886  -29.7043  -53.1368 C.3       16 UNK        -0.1800 
     92 C          -4.3321  -28.4088  -51.7522 C.2       16 UNK         0.5000 
     93 O          -5.0633  -28.4569  -52.7434 O.2       16 UNK        -0.5000 
     94 N          -4.6397  -27.7386  -50.6314 N.am      17 UNK        -0.5000 
     95 CA         -5.9051  -27.0553  -50.3392 C.3       17 UNK         0.1400 
     96 CB         -7.0554  -28.0767  -50.2108 C.3       17 UNK        -0.1800 
     97 C          -6.2362  -25.8918  -51.2983 C.2       17 UNK         0.5000 
     98 O          -7.4068  -25.6762  -51.6184 O.2       17 UNK        -0.5000 
     99 N          -5.2099  -25.1426  -51.7259 N.am      18 UNK        -0.5000 
    100 CA        -5.3656  -23.9343  -52.5404 C.3       18 UNK         0.1400 
    101 CB        -4.0198  -23.5701  -53.1858 C.3       18 UNK        -0.1800 
    102 C         -5.9350  -22.7560  -51.7245 C.2       18 UNK         0.5000 
    103 O         -6.6994  -21.9636  -52.2728 O.2       18 UNK        -0.5000 
    104 N         -5.5699  -22.7024  -50.4323 N.am      19 UNK        -0.5000 
    105 CA        -6.0544  -21.8403  -49.3443 C.3       19 UNK         0.1400 
    106 CB        -7.2758  -22.5077  -48.6822 C.3       19 UNK        -0.1800 
    107 C         -6.3142  -20.3695  -49.7365 C.2       19 UNK         0.5000 
    108 O         -5.4034  -19.5409  -49.6680 O.2       19 UNK        -0.5000 
    109 N         -7.5499  -20.0805  -50.1689 N.am      20 UNK        -0.5000 
    110 CA        -8.0416  -18.7794  -50.6323 C.3       20 UNK         0.1400 
    111 CB        -9.5444  -18.9039  -50.9289 C.3       20 UNK        -0.1800 
    112 C         -7.2953  -18.1904  -51.8496 C.2       20 UNK         0.5000 
    113 O         -7.4741  -17.0075  -52.1426 O.2       20 UNK        -0.5000 
    114 N         -6.4582  -19.0002  -52.5160 N.am      21 UNK        -0.5000 
    115 CA        -5.5099  -18.5950  -53.5564 C.3       21 UNK         0.1400 
    116 CB        -4.7288  -19.8297  -54.0294 C.3       21 UNK        -0.1800 
    117 C         -4.5332  -17.4832  -53.1173 C.2       21 UNK         0.5000 
    118 O         -4.1449  -16.6673  -53.9551 O.2       21 UNK        -0.5000 
    119 N         -4.1864  -17.4407  -51.8236 N.am      22 UNK        -0.5000 
    120 CA        -3.4514  -16.3243  -51.2087 C.3       22 UNK         0.1400 
    121 C         -3.7725  -16.0760  -49.7071 C.2       22 UNK         0.5000 
    122 N         -4.5108  -16.9327  -49.0110 N.am      22 UNK        -0.7600 
    123 O         -3.3738  -15.0498  -49.1643 O.2       22 UNK        -0.5000 
    124 C124       -1.9298  -16.3394  -51.5160 C.3       23 UNK        -0.0398 
    125 S125       -1.0312  -17.7286  -50.7521 S.3       23 UNK        -0.2404 
    126 C126        0.4402  -17.8256  -51.8126 C.3       23 UNK        -0.0205 
    127 H127        7.0383  -12.6157  -44.4718 H         1 UNK         0.0600 
    128 H128        7.4337  -13.2418  -46.0755 H         1 UNK         0.0600 
    129 H129        7.1406  -11.5144  -45.8495 H         1 UNK         0.0600 
    130 H130        5.7114  -14.2600  -47.0442 H         1 UNK         0.3000 
    131 H131        3.1050  -14.3109  -46.0453 H         1 UNK         0.0600 
    132 H132        2.5747  -15.6653  -48.0921 H         1 UNK         0.0800 
    133 H133        3.9854  -16.2045  -47.2373 H         1 UNK         0.0800 
    134 H134        5.7112  -17.0532  -50.4962 H         1 UNK         0.0800 
    135 H135        5.5176  -17.3921  -48.7951 H         1 UNK         0.0800 
    136 H136        2.6025  -16.4224  -50.9658 H         1 UNK         0.1150 
    137 H137        0.9570  -20.3710  -50.9890 H         1 UNK         0.1150 
    138 H138        4.8015  -19.6688  -49.2269 H         1 UNK         0.1150 
    139 H139        2.1043  -22.2000  -50.0232 H         1 UNK         0.0800 
    140 H140        3.8054  -22.0830  -50.3838 H         1 UNK         0.0800 
    141 H141        1.5417  -20.5139  -47.7110 H         1 UNK         0.0800 
    142 H142        2.3903  -20.8523  -46.2362 H         1 UNK         0.0800 
    143 H143        1.4510  -23.2243  -46.2740 H         1 UNK         0.0600 
    144 H144        0.1169  -20.8667  -45.4845 H         1 UNK         0.3000 
    145 H145       -2.7394  -22.3944  -43.9496 H         1 UNK         0.0600 
    146 H146       -1.8698  -21.0089  -42.0861 H         1 UNK         0.0600 
    147 H147       -0.8754  -22.4422  -42.2992 H         1 UNK         0.0600 
    148 H148       -0.2997  -20.8835  -42.8754 H         1 UNK         0.0600 
    149 H149       -2.0103  -19.6604  -44.2545 H         1 UNK         0.3000 
    150 H150       -3.6649  -19.1394  -47.4097 H         1 UNK         0.0600 
    151 H151       -5.4021  -18.9635  -45.6293 H         1 UNK         0.0600 
    152 H152       -4.7527  -17.3803  -46.0276 H         1 UNK         0.0600 
    153 H153       -4.2430  -18.1928  -44.5517 H         1 UNK         0.0600 
    154 H154       -2.2550  -17.2873  -45.8375 H         1 UNK         0.3000 
    155 H155        1.0331  -17.8591  -47.2176 H         1 UNK         0.0600 
    156 H156       -1.1775  -15.7632  -47.4317 H         1 UNK         0.0600 
    157 H157        0.0835  -16.1646  -48.5823 H         1 UNK         0.0600 
    158 H158        0.4820  -15.2898  -47.1154 H         1 UNK         0.0600 
    159 H159        0.2626  -16.2166  -45.0604 H         1 UNK         0.3000 
    160 H160        0.5643  -18.5617  -42.3886 H         1 UNK         0.0600 
    161 H161        2.1067  -16.7412  -41.6106 H         1 UNK         0.0600 
    162 H162        2.3302  -16.2215  -43.2816 H         1 UNK         0.0600 
    163 H163        2.8727  -17.8114  -42.7744 H         1 UNK         0.0600 
    164 H164       -0.0898  -15.7485  -42.6619 H         1 UNK         0.3000 
    165 H165       -3.6278  -16.2252  -42.7832 H         1 UNK         0.0600 
    166 H166       -3.5099  -14.7477  -40.7960 H         1 UNK         0.0600 
    167 H167       -3.0409  -16.3830  -40.3600 H         1 UNK         0.0600 
    168 H168       -1.8073  -15.1449  -40.5629 H         1 UNK         0.0600 
    169 H169       -1.9474  -13.8967  -42.6998 H         1 UNK         0.3000 
    170 H170       -1.3338  -13.6265  -46.1758 H         1 UNK         0.0600 
    171 H171       -3.6754  -12.7687  -46.0428 H         1 UNK         0.0600 
    172 H172       -3.3146  -11.9891  -44.5059 H         1 UNK         0.0600 
    173 H173       -2.5090  -11.4568  -45.9826 H         1 UNK         0.0600 
    174 H174       -0.8122  -11.7378  -44.1799 H         1 UNK         0.3000 
    175 H175        0.9313  -11.9782  -42.4815 H         1 UNK         0.0600 
    176 H176        3.2265  -13.7249  -43.5171 H         1 UNK         0.0600 
    177 H177        3.3183  -12.6066  -42.1597 H         1 UNK         0.0600 
    178 H178        2.2728  -14.0140  -42.0658 H         1 UNK         0.0600 
    179 H179        2.9444  -11.5263  -44.5465 H         1 UNK         0.3000 
    180 H180        1.4903   -8.4189  -45.6298 H         1 UNK         0.0600 
    181 H181        4.0771   -9.2667  -44.2179 H         1 UNK         0.0600 
    182 H182        2.9644   -8.0198  -43.6651 H         1 UNK         0.0600 
    183 H183        3.8473   -7.8010  -45.1684 H         1 UNK         0.0600 
    184 H184        3.4842  -10.5483  -46.3076 H         1 UNK         0.3000 
    185 H185        2.0623  -11.0569  -49.4851 H         1 UNK         0.0600 
    186 H186        3.4873   -9.0771  -50.0317 H         1 UNK         0.0600 
    187 H187        4.7393   -9.6606  -48.9417 H         1 UNK         0.0600 
    188 H188        4.3249  -10.5786  -50.3904 H         1 UNK         0.0600 
    189 H189        4.4664  -12.0183  -48.2609 H         1 UNK         0.3000 
    190 H190       -0.9011  -21.1711  -48.0771 H         1 UNK         0.3000 
    191 H191       -1.0389  -22.7818  -50.4008 H         1 UNK         0.0600 
    192 H192       -3.0485  -20.8180  -49.2011 H         1 UNK         0.0600 
    193 H193       -3.1187  -21.4521  -50.8449 H         1 UNK         0.0600 
    194 H194       -1.7706  -20.4513  -50.3513 H         1 UNK         0.0600 
    195 H195       -2.9099  -22.9598  -47.3347 H         1 UNK         0.3000 
    196 H196       -4.7304  -24.9727  -48.1794 H         1 UNK         0.0600 
    197 H197       -3.7214  -24.2908  -45.3757 H         1 UNK         0.0600 
    198 H198       -5.1047  -25.3137  -45.7394 H         1 UNK         0.0600 
    199 H199       -5.1384  -23.6127  -46.1743 H         1 UNK         0.0600 
    200 H200       -1.5152  -25.1887  -46.5886 H         1 UNK         0.3000 
    201 H201       -1.3774  -28.0355  -46.4716 H         1 UNK         0.0600 
    202 H202        0.8680  -25.9510  -46.5739 H         1 UNK         0.0600 
    203 H203        1.0542  -27.6352  -46.1028 H         1 UNK         0.0600 
    204 H204        0.0795  -26.5529  -45.1189 H         1 UNK         0.0600 
    205 H205       -0.4008  -25.7005  -48.9850 H         1 UNK         0.3000 
    206 H206        0.6572  -27.6499  -50.8325 H         1 UNK         0.0600 
    207 H207        1.4315  -25.2835  -50.7467 H         1 UNK         0.0600 
    208 H208        0.8207  -25.7009  -52.3405 H         1 UNK         0.0600 
    209 H209       -0.1658  -24.7359  -51.2514 H         1 UNK         0.0600 
    210 H210       -1.4716  -28.9105  -50.3021 H         1 UNK         0.3000 
    211 H211       -3.1758  -30.0626  -51.1137 H         1 UNK         0.0600 
    212 H212       -2.4423  -28.8873  -53.8441 H         1 UNK         0.0600 
    213 H213       -3.3529  -30.3625  -53.5516 H         1 UNK         0.0600 
    214 H214       -1.6623  -30.2768  -53.0890 H         1 UNK         0.0600 
    215 H215       -3.9694  -27.7338  -49.8699 H         1 UNK         0.3000 
    216 H216       -5.7842  -26.6004  -49.3579 H         1 UNK         0.0600 
    217 H217       -6.8027  -28.8676  -49.5046 H         1 UNK         0.0600 
    218 H218       -7.9653  -27.5989  -49.8458 H         1 UNK         0.0600 
    219 H219       -7.2931  -28.5434  -51.1671 H         1 UNK         0.0600 
    220 H220       -4.2717  -25.3513  -51.3994 H         1 UNK         0.3000 
    221 H221       -6.0715  -24.1529  -53.3444 H         1 UNK         0.0600 
    222 H222       -3.2717  -23.2880  -52.4459 H         1 UNK         0.0600 
    223 H223       -3.6196  -24.4078  -53.7574 H         1 UNK         0.0600 
    224 H224       -4.1322  -22.7332  -53.8747 H         1 UNK         0.0600 
    225 H225       -4.9002  -23.4044  -50.1487 H         1 UNK         0.3000 
    226 H226       -5.2610  -21.8114  -48.5965 H         1 UNK         0.0600 
    227 H227       -6.9989  -23.4605  -48.2306 H         1 UNK         0.0600 
    228 H228       -7.6856  -21.8835  -47.8869 H         1 UNK         0.0600 
    229 H229       -8.0737  -22.7059  -49.3987 H         1 UNK         0.0600 
    230 H230       -8.2047  -20.8452  -50.2421 H         1 UNK         0.3000 
    231 H231       -7.9117  -18.0723  -49.8108 H         1 UNK         0.0600 
    232 H232      -10.0963  -19.2275  -50.0462 H         1 UNK         0.0600 
    233 H233       -9.7361  -19.6209  -51.7282 H         1 UNK         0.0600 
    234 H234       -9.9650  -17.9463  -51.2388 H         1 UNK         0.0600 
    235 H235       -6.4399  -19.9795  -52.2492 H         1 UNK         0.3000 
    236 H236       -6.0907  -18.2103  -54.3968 H         1 UNK         0.0600 
    237 H237       -4.1618  -20.2798  -53.2133 H         1 UNK         0.0600 
    238 H238       -5.3991  -20.5882  -54.4338 H         1 UNK         0.0600 
    239 H239       -4.0211  -19.5687  -54.8174 H         1 UNK         0.0600 
    240 H240       -4.5337  -18.1540  -51.1965 H         1 UNK         0.3000 
    241 H241       -3.8416  -15.4210  -51.6822 H         1 UNK         0.0600 
    242 H242       -4.7012  -16.7019  -48.0509 H         1 UNK         0.3800 
    243 H243       -4.8251  -17.8276  -49.3737 H         1 UNK         0.3800 
    244 H244       -1.7743  -16.3701  -52.5949 H         1 UNK         0.0800 
    245 H245       -1.4682  -15.4103  -51.1780 H         1 UNK         0.0800 
    246 H246        0.6560  -16.8419  -52.2321 H         1 UNK         0.0800 
    247 H247        0.2300  -18.4814  -52.6585 H         1 UNK         0.0800 
@<TRIPOS>BOND
     1    1    2 1    
     2    1  127 1    
     3    1  128 1    
     4    1  129 1    
     5    2    3 2    
     6    2    4 am   BACKBONE|DICT|INTERRES
     7    4    5 1    
     8    4  130 1    
     9    5    6 1    
    10    5   65 1    
    11    5  131 1    
    12    6    7 1    
    13    6  132 1    
    14    6  133 1    
    15    7    8 1    
    16    8    9 1    
    17    8  134 1    
    18    8  135 1    
    19    9   10 ar   
    20    9   14 ar   
    21   10   11 ar   
    22   10  136 1    
    23   11   12 ar   
    24   11  126 1    
    25   12   13 ar   
    26   12  137 1    
    27   13   14 ar   
    28   13   15 1    
    29   14  138 1    
    30   15   16 1    
    31   15  139 1    
    32   15  140 1    
    33   16   17 1    
    34   17   18 1    
    35   17  141 1    
    36   17  142 1    
    37   18   19 1    
    38   18   67 1    
    39   18  143 1    
    40   19   20 am   BACKBONE|DICT|INTERRES
    41   19  144 1    
    42   20   21 2    
    43   20   22 1    
    44   22   23 1    
    45   22   24 1    
    46   22  145 1    
    47   23  146 1    
    48   23  147 1    
    49   23  148 1    
    50   24   25 am   BACKBONE|DICT|INTERRES
    51   24  149 1    
    52   25   26 2    
    53   25   27 1    
    54   27   28 1    
    55   27   29 1    
    56   27  150 1    
    57   28  151 1    
    58   28  152 1    
    59   28  153 1    
    60   29   30 am   BACKBONE|DICT|INTERRES
    61   29  154 1    
    62   30   31 2    
    63   30   32 1    
    64   32   33 1    
    65   32   34 1    
    66   32  155 1    
    67   33  156 1    
    68   33  157 1    
    69   33  158 1    
    70   34   35 am   BACKBONE|DICT|INTERRES
    71   34  159 1    
    72   35   36 2    
    73   35   37 1    
    74   37   38 1    
    75   37   39 1    
    76   37  160 1    
    77   38  161 1    
    78   38  162 1    
    79   38  163 1    
    80   39   40 am   BACKBONE|DICT|INTERRES
    81   39  164 1    
    82   40   41 2    
    83   40   42 1    
    84   42   43 1    
    85   42   44 1    
    86   42  165 1    
    87   43  166 1    
    88   43  167 1    
    89   43  168 1    
    90   44   45 am   BACKBONE|DICT|INTERRES
    91   44  169 1    
    92   45   46 2    
    93   45   47 1    
    94   47   48 1    
    95   47   49 1    
    96   47  170 1    
    97   48  171 1    
    98   48  172 1    
    99   48  173 1    
   100   49   50 am   BACKBONE|DICT|INTERRES
   101   49  174 1    
   102   50   51 2    
   103   50   52 1    
   104   52   53 1    
   105   52   54 1    
   106   52  175 1    
   107   53  176 1    
   108   53  177 1    
   109   53  178 1    
   110   54   55 am   BACKBONE|DICT|INTERRES
   111   54  179 1    
   112   55   56 2    
   113   55   57 1    
   114   57   58 1    
   115   57   59 1    
   116   57  180 1    
   117   58  181 1    
   118   58  182 1    
   119   58  183 1    
   120   59   60 am   BACKBONE|DICT|INTERRES
   121   59  184 1    
   122   60   61 2    
   123   60   62 1    
   124   62   63 1    
   125   62   64 1    
   126   62  185 1    
   127   63  186 1    
   128   63  187 1    
   129   63  188 1    
   130   64   65 am   BACKBONE|DICT|INTERRES
   131   64  189 1    
   132   65   66 2    
   133   67   68 2    
   134   67   69 am   BACKBONE|DICT|INTERRES
   135   69   70 1    
   136   69  190 1    
   137   70   71 1    
   138   70   72 1    
   139   70  191 1    
   140   71  192 1    
   141   71  193 1    
   142   71  194 1    
   143   72   73 2    
   144   72   74 am   BACKBONE|DICT|INTERRES
   145   74   75 1    
   146   74  195 1    
   147   75   76 1    
   148   75   77 1    
   149   75  196 1    
   150   76  197 1    
   151   76  198 1    
   152   76  199 1    
   153   77   78 2    
   154   77   79 am   BACKBONE|DICT|INTERRES
   155   79   80 1    
   156   79  200 1    
   157   80   81 1    
   158   80   82 1    
   159   80  201 1    
   160   81  202 1    
   161   81  203 1    
   162   81  204 1    
   163   82   83 2    
   164   82   84 am   BACKBONE|DICT|INTERRES
   165   84   85 1    
   166   84  205 1    
   167   85   86 1    
   168   85   87 1    
   169   85  206 1    
   170   86  207 1    
   171   86  208 1    
   172   86  209 1    
   173   87   88 2    
   174   87   89 am   BACKBONE|DICT|INTERRES
   175   89   90 1    
   176   89  210 1    
   177   90   91 1    
   178   90   92 1    
   179   90  211 1    
   180   91  212 1    
   181   91  213 1    
   182   91  214 1    
   183   92   93 2    
   184   92   94 am   BACKBONE|DICT|INTERRES
   185   94   95 1    
   186   94  215 1    
   187   95   96 1    
   188   95   97 1    
   189   95  216 1    
   190   96  217 1    
   191   96  218 1    
   192   96  219 1    
   193   97   98 2    
   194   97   99 am   BACKBONE|DICT|INTERRES
   195   99  100 1    
   196   99  220 1    
   197  100  101 1    
   198  100  102 1    
   199  100  221 1    
   200  101  222 1    
   201  101  223 1    
   202  101  224 1    
   203  102  103 2    
   204  102  104 am   BACKBONE|DICT|INTERRES
   205  104  105 1    
   206  104  225 1    
   207  105  106 1    
   208  105  107 1    
   209  105  226 1    
   210  106  227 1    
   211  106  228 1    
   212  106  229 1    
   213  107  108 2    
   214  107  109 am   BACKBONE|DICT|INTERRES
   215  109  110 1    
   216  109  230 1    
   217  110  111 1    
   218  110  112 1    
   219  110  231 1    
   220  111  232 1    
   221  111  233 1    
   222  111  234 1    
   223  112  113 2    
   224  112  114 am   BACKBONE|DICT|INTERRES
   225  114  115 1    
   226  114  235 1    
   227  115  116 1    
   228  115  117 1    
   229  115  236 1    
   230  116  237 1    
   231  116  238 1    
   232  116  239 1    
   233  117  118 2    
   234  117  119 am   BACKBONE|DICT|INTERRES
   235  119  120 1    
   236  119  240 1    
   237  120  121 1    
   238  120  124 1    
   239  120  241 1    
   240  121  122 am   BACKBONE|DICT|INTERRES
   241  121  123 2    
   242  122  242 1    
   243  122  243 1    
   244  124  125 1    
   245  124  244 1    
   246  124  245 1    
   247  125  126 1    
   248  126  246 1    
   249  126  247 1    
@<TRIPOS>SUBSTRUCTURE
     1 UNK         1 GROUP             0       ****    0 ROOT    
