@<TRIPOS>MOLECULE
3R540
247   249    1
SMALL
USER_CHARGES


@<TRIPOS>ATOM
      1 CA         -5.7705  -15.7691  -42.6006 C.3       0 UNK        -0.1800 
      2 C          -5.3111  -14.5401  -43.3722 C.2       0 UNK         0.5000 
      3 O          -5.0332  -13.5046  -42.7688 O.2       0 UNK        -0.5000 
      4 N          -5.2207  -14.6546  -44.7026 N.am      1 UNK        -0.5000 
      5 CA         -4.7907  -13.5936  -45.6243 C.3       1 UNK         0.1400 
      6 C6         -5.4639  -13.7543  -47.0123 C.3       23 UNK        -0.0398 
      7 S7         -4.9974  -15.2856  -47.9009 S.3       23 UNK        -0.2404 
      8 C8         -4.0541  -14.6188  -49.3072 C.3       23 UNK        -0.0205 
      9 C9         -2.8221  -15.4571  -49.6030 C.ar      23 UNK        -0.0193 
     10 C10        -2.9243  -16.6161  -50.3777 C.ar      23 UNK        -0.1150 
     11 C11        -1.7819  -17.3591  -50.6868 C.ar      23 UNK        -0.0193 
     12 C12        -0.5345  -16.9322  -50.2259 C.ar      23 UNK        -0.1150 
     13 C13        -0.4231  -15.7935  -49.4248 C.ar      23 UNK        -0.0193 
     14 C14        -1.5723  -15.0583  -49.1190 C.ar      23 UNK        -0.1150 
     15 C15         0.9327  -15.3623  -48.8762 C.3       23 UNK        -0.0205 
     16 S16         1.7891  -16.6833  -47.9488 S.3       23 UNK        -0.2404 
     17 C17         0.4876  -17.2504  -46.8058 C.3       23 UNK        -0.0398 
     18 CA          0.0380  -18.6997  -47.1075 C.3       11 UNK         0.1400 
     19 N           1.0669  -19.6765  -46.7483 N.am      11 UNK        -0.5000 
     20 C           1.0091  -20.9893  -47.0109 C.2       10 UNK         0.5000 
     21 O           0.0649  -21.5281  -47.5886 O.2       10 UNK        -0.5000 
     22 CA          2.1926  -21.8476  -46.5365 C.3       10 UNK         0.1400 
     23 CB          3.4161  -21.6444  -47.4443 C.3       10 UNK        -0.1800 
     24 N           2.5556  -21.5240  -45.1571 N.am      10 UNK        -0.5000 
     25 C           2.6279  -22.4052  -44.1492 C.2       9 UNK         0.5000 
     26 O           2.4514  -23.6167  -44.2843 O.2       9 UNK        -0.5000 
     27 CA          2.9463  -21.8479  -42.7435 C.3       9 UNK         0.1400 
     28 CB          4.4446  -21.9875  -42.4352 C.3       9 UNK        -0.1800 
     29 N           2.5632  -20.4457  -42.5832 N.am      9 UNK        -0.5000 
     30 C           1.3045  -19.9878  -42.6059 C.2       8 UNK         0.5000 
     31 O           0.3206  -20.7269  -42.5697 O.2       8 UNK        -0.5000 
     32 CA          1.1017  -18.4601  -42.7089 C.3       8 UNK         0.1400 
     33 CB          0.4384  -17.9199  -41.4325 C.3       8 UNK        -0.1800 
     34 N           2.3118  -17.6756  -42.9876 N.am      8 UNK        -0.5000 
     35 C           3.1142  -17.7803  -44.0583 C.2       7 UNK         0.5000 
     36 O           2.9570  -18.6099  -44.9543 O.2       7 UNK        -0.5000 
     37 CA          4.3210  -16.8292  -44.1094 C.3       7 UNK         0.1400 
     38 CB          3.9293  -15.4824  -44.7383 C.3       7 UNK        -0.1800 
     39 N           4.8875  -16.6066  -42.7787 N.am      7 UNK        -0.5000 
     40 C           5.6224  -17.5070  -42.1092 C.2       6 UNK         0.5000 
     41 O           5.9428  -18.6040  -42.5671 O.2       6 UNK        -0.5000 
     42 CA          6.0502  -17.1257  -40.6792 C.3       6 UNK         0.1400 
     43 CB          7.3499  -16.3072  -40.7044 C.3       6 UNK        -0.1800 
     44 N           5.0172  -16.3676  -39.9721 N.am      6 UNK        -0.5000 
     45 C           3.8568  -16.8843  -39.5427 C.2       5 UNK         0.5000 
     46 O           3.5703  -18.0784  -39.6233 O.2       5 UNK        -0.5000 
     47 CA          2.8308  -15.8938  -38.9542 C.3       5 UNK         0.1400 
     48 CB          2.9789  -15.8106  -37.4277 C.3       5 UNK        -0.1800 
     49 N           2.9234  -14.5438  -39.5219 N.am      5 UNK        -0.5000 
     50 C           2.7100  -14.2413  -40.8086 C.2       4 UNK         0.5000 
     51 O           2.4084  -15.0753  -41.6671 O.2       4 UNK        -0.5000 
     52 CA          2.9363  -12.7802  -41.2148 C.3       4 UNK         0.1400 
     53 CB          4.4447  -12.4658  -41.2664 C.3       4 UNK        -0.1800 
     54 N           2.3372  -12.5634  -42.5268 N.am      4 UNK        -0.5000 
     55 C           2.0650  -11.3774  -43.0815 C.2       3 UNK         0.5000 
     56 O           2.2717  -10.2990  -42.5231 O.2       3 UNK        -0.5000 
     57 CA          1.4744  -11.3876  -44.5052 C.3       3 UNK         0.1400 
     58 CB          2.5887  -11.1768  -45.5425 C.3       3 UNK        -0.1800 
     59 N           0.7508  -12.6167  -44.8396 N.am      3 UNK        -0.5000 
     60 C          -0.4543  -12.9438  -44.3567 C.2       2 UNK         0.5000 
     61 O          -1.0711  -12.2681  -43.5297 O.2       2 UNK        -0.5000 
     62 CA         -1.0461  -14.2702  -44.8707 C.3       2 UNK         0.1400 
     63 CB         -0.6198  -15.4278  -43.9556 C.3       2 UNK        -0.1800 
     64 N          -2.5059  -14.2573  -44.9500 N.am      2 UNK        -0.5000 
     65 C          -3.2498  -13.4506  -45.7212 C.2       1 UNK         0.5000 
     66 O          -2.7680  -12.6283  -46.5023 O.2       1 UNK        -0.5000 
     67 C          -1.2900  -18.9890  -46.3872 C.2       11 UNK         0.5000 
     68 O          -1.2837  -19.3103  -45.1984 O.2       11 UNK        -0.5000 
     69 N          -2.3995  -18.8251  -47.1196 N.am      12 UNK        -0.5000 
     70 CA         -3.7827  -18.9628  -46.6528 C.3       12 UNK         0.1400 
     71 CB         -4.0894  -17.9172  -45.5584 C.3       12 UNK        -0.1800 
     72 C          -4.1631  -20.3944  -46.2118 C.2       12 UNK         0.5000 
     73 O          -5.1385  -20.5569  -45.4767 O.2       12 UNK        -0.5000 
     74 N          -3.4111  -21.4092  -46.6693 N.am      13 UNK        -0.5000 
     75 CA         -3.6432  -22.8240  -46.3554 C.3       13 UNK         0.1400 
     76 CB         -2.4685  -23.6653  -46.8763 C.3       13 UNK        -0.1800 
     77 C          -4.9766  -23.3559  -46.9143 C.2       13 UNK         0.5000 
     78 O          -5.6361  -24.1625  -46.2574 O.2       13 UNK        -0.5000 
     79 N          -5.3528  -22.8594  -48.0968 N.am      14 UNK        -0.5000 
     80 CA         -6.6255  -23.0922  -48.7734 C.3       14 UNK         0.1400 
     81 CB         -6.7632  -24.5539  -49.2421 C.3       14 UNK        -0.1800 
     82 C          -6.7468  -22.1334  -49.9636 C.2       14 UNK         0.5000 
     83 O          -7.8180  -21.5685  -50.1811 O.2       14 UNK        -0.5000 
     84 N          -5.6398  -21.9780  -50.7085 N.am      15 UNK        -0.5000 
     85 CA         -5.4862  -21.1802  -51.9318 C.3       15 UNK         0.1400 
     86 CB         -5.7486  -19.6826  -51.6739 C.3       15 UNK        -0.1800 
     87 C          -6.2727  -21.7363  -53.1398 C.2       15 UNK         0.5000 
     88 O          -6.4289  -21.0421  -54.1459 O.2       15 UNK        -0.5000 
     89 N          -6.7229  -22.9925  -53.0358 N.am      16 UNK        -0.5000 
     90 CA         -7.4291  -23.7319  -54.0768 C.3       16 UNK         0.1400 
     91 CB         -8.0774  -24.9731  -53.4422 C.3       16 UNK        -0.1800 
     92 C          -6.5013  -24.1362  -55.2372 C.2       16 UNK         0.5000 
     93 O          -5.2770  -24.1837  -55.0710 O.2       16 UNK        -0.5000 
     94 N          -7.1263  -24.4385  -56.3846 N.am      17 UNK        -0.5000 
     95 CA         -6.5113  -24.8938  -57.6363 C.3       17 UNK         0.1400 
     96 CB         -5.9562  -26.3242  -57.4732 C.3       17 UNK        -0.1800 
     97 C          -5.4800  -23.8880  -58.1864 C.2       17 UNK         0.5000 
     98 O          -4.3491  -24.2623  -58.4962 O.2       17 UNK        -0.5000 
     99 N          -5.8959  -22.6139  -58.2588 N.am      18 UNK        -0.5000 
    100 CA        -5.1051  -21.4505  -58.6823 C.3       18 UNK         0.1400 
    101 CB        -4.7477  -21.5431  -60.1811 C.3       18 UNK        -0.1800 
    102 C         -3.8780  -21.2123  -57.7763 C.2       18 UNK         0.5000 
    103 O         -2.7780  -20.9559  -58.2688 O.2       18 UNK        -0.5000 
    104 N         -4.1054  -21.3201  -56.4590 N.am      19 UNK        -0.5000 
    105 CA        -3.1293  -21.1839  -55.3747 C.3       19 UNK         0.1400 
    106 CB        -2.5583  -19.7523  -55.3067 C.3       19 UNK        -0.1800 
    107 C         -2.0406  -22.2764  -55.3618 C.2       19 UNK         0.5000 
    108 O         -0.9564  -22.0468  -54.8244 O.2       19 UNK        -0.5000 
    109 N         -2.3523  -23.4623  -55.9044 N.am      20 UNK        -0.5000 
    110 CA        -1.5101  -24.6537  -55.7847 C.3       20 UNK         0.1400 
    111 CB        -1.9294  -25.7044  -56.8205 C.3       20 UNK        -0.1800 
    112 C         -1.5632  -25.2348  -54.3609 C.2       20 UNK         0.5000 
    113 O         -0.5329  -25.6635  -53.8394 O.2       20 UNK        -0.5000 
    114 N         -2.7439  -25.1788  -53.7268 N.am      21 UNK        -0.5000 
    115 CA        -2.9558  -25.5219  -52.3196 C.3       21 UNK         0.1400 
    116 CB        -4.4052  -26.0000  -52.1395 C.3       21 UNK        -0.1800 
    117 C         -2.6056  -24.3179  -51.4206 C.2       21 UNK         0.5000 
    118 O         -3.4682  -23.7844  -50.7194 O.2       21 UNK        -0.5000 
    119 N         -1.3512  -23.8692  -51.5132 N.am      22 UNK        -0.5000 
    120 CA        -0.8325  -22.6497  -50.8803 C.3       22 UNK         0.1400 
    121 C          0.7146  -22.6868  -50.7004 C.2       22 UNK         0.5000 
    122 N          1.3335  -23.8593  -50.6115 N.am      22 UNK        -0.7600 
    123 O          1.3746  -21.6529  -50.6541 O.2       22 UNK        -0.5000 
    124 C124       -1.3531  -21.3694  -51.5973 C.3       23 UNK        -0.0398 
    125 S125       -1.9090  -20.0893  -50.4276 S.3       23 UNK        -0.2404 
    126 C126       -1.8798  -18.6293  -51.5096 C.3       23 UNK        -0.0205 
    127 H127       -6.6599  -15.5343  -42.0159 H         1 UNK         0.0600 
    128 H128       -4.9877  -16.0966  -41.9163 H         1 UNK         0.0600 
    129 H129       -6.0109  -16.5997  -43.2647 H         1 UNK         0.0600 
    130 H130       -5.4655  -15.5287  -45.1456 H         1 UNK         0.3000 
    131 H131       -5.1439  -12.6427  -45.2198 H         1 UNK         0.0600 
    132 H132       -6.5471  -13.7674  -46.8849 H         1 UNK         0.0800 
    133 H133       -5.2674  -12.8778  -47.6311 H         1 UNK         0.0800 
    134 H134       -3.7477  -13.5900  -49.1138 H         1 UNK         0.0800 
    135 H135       -4.7006  -14.5820  -50.1852 H         1 UNK         0.0800 
    136 H136       -3.8912  -16.9360  -50.7404 H         1 UNK         0.1150 
    137 H137        0.3496  -17.5076  -50.4640 H         1 UNK         0.1150 
    138 H138       -1.4966  -14.1694  -48.5080 H         1 UNK         0.1150 
    139 H139        1.5658  -15.0466  -49.7062 H         1 UNK         0.0800 
    140 H140        0.8259  -14.4944  -48.2240 H         1 UNK         0.0800 
    141 H141       -0.3571  -16.5638  -46.8637 H         1 UNK         0.0800 
    142 H142        0.8594  -17.1673  -45.7861 H         1 UNK         0.0800 
    143 H143       -0.1339  -18.8000  -48.1805 H         1 UNK         0.0600 
    144 H144        1.8616  -19.3035  -46.2367 H         1 UNK         0.3000 
    145 H145        1.8815  -22.8913  -46.6163 H         1 UNK         0.0600 
    146 H146        4.2324  -22.3070  -47.1567 H         1 UNK         0.0600 
    147 H147        3.1704  -21.8619  -48.4843 H         1 UNK         0.0600 
    148 H148        3.7855  -20.6189  -47.4004 H         1 UNK         0.0600 
    149 H149        2.7047  -20.5412  -44.9510 H         1 UNK         0.3000 
    150 H150        2.3872  -22.4398  -42.0160 H         1 UNK         0.0600 
    151 H151        4.6724  -21.6529  -41.4229 H         1 UNK         0.0600 
    152 H152        4.7652  -23.0271  -42.5144 H         1 UNK         0.0600 
    153 H153        5.0528  -21.4017  -43.1260 H         1 UNK         0.0600 
    154 H154        3.3129  -19.7690  -42.5902 H         1 UNK         0.3000 
    155 H155        0.4193  -18.2882  -43.5405 H         1 UNK         0.0600 
    156 H156        1.0378  -18.1381  -40.5494 H         1 UNK         0.0600 
    157 H157       -0.5412  -18.3749  -41.2814 H         1 UNK         0.0600 
    158 H158        0.2896  -16.8418  -41.4808 H         1 UNK         0.0600 
    159 H159        2.5042  -16.9228  -42.3343 H         1 UNK         0.3000 
    160 H160        5.0851  -17.2885  -44.7403 H         1 UNK         0.0600 
    161 H161        3.1184  -14.9973  -44.1968 H         1 UNK         0.0600 
    162 H162        3.5965  -15.6190  -45.7673 H         1 UNK         0.0600 
    163 H163        4.7754  -14.7955  -44.7615 H         1 UNK         0.0600 
    164 H164        4.6231  -15.7519  -42.3123 H         1 UNK         0.3000 
    165 H165        6.2386  -18.0500  -40.1286 H         1 UNK         0.0600 
    166 H166        7.6986  -16.0903  -39.6945 H         1 UNK         0.0600 
    167 H167        8.1457  -16.8547  -41.2112 H         1 UNK         0.0600 
    168 H168        7.2202  -15.3581  -41.2263 H         1 UNK         0.0600 
    169 H169        5.1798  -15.3801  -39.8449 H         1 UNK         0.3000 
    170 H170        1.8348  -16.2800  -39.1784 H         1 UNK         0.0600 
    171 H171        2.8885  -16.7977  -36.9721 H         1 UNK         0.0600 
    172 H172        3.9484  -15.4029  -37.1384 H         1 UNK         0.0600 
    173 H173        2.2045  -15.1806  -36.9896 H         1 UNK         0.0600 
    174 H174        3.1760  -13.8055  -38.8806 H         1 UNK         0.3000 
    175 H175        2.4438  -12.1367  -40.4831 H         1 UNK         0.0600 
    176 H176        4.9585  -13.0863  -42.0020 H         1 UNK         0.0600 
    177 H177        4.6259  -11.4233  -41.5277 H         1 UNK         0.0600 
    178 H178        4.9199  -12.6377  -40.3001 H         1 UNK         0.0600 
    179 H179        2.0894  -13.4150  -43.0128 H         1 UNK         0.3000 
    180 H180        0.7783  -10.5492  -44.5780 H         1 UNK         0.0600 
    181 H181        3.3106  -11.9946  -45.5299 H         1 UNK         0.0600 
    182 H182        3.1357  -10.2536  -45.3466 H         1 UNK         0.0600 
    183 H183        2.1812  -11.1027  -46.5510 H         1 UNK         0.0600 
    184 H184        1.1961  -13.2252  -45.5104 H         1 UNK         0.3000 
    185 H185       -0.6653  -14.4510  -45.8771 H         1 UNK         0.0600 
    186 H186        0.4662  -15.5203  -43.9166 H         1 UNK         0.0600 
    187 H187       -0.9697  -15.2763  -42.9337 H         1 UNK         0.0600 
    188 H188       -1.0195  -16.3800  -44.3047 H         1 UNK         0.0600 
    189 H189       -2.9948  -14.8687  -44.3145 H         1 UNK         0.3000 
    190 H190       -2.2993  -18.5782  -48.0956 H         1 UNK         0.3000 
    191 H191       -4.4102  -18.7318  -47.5149 H         1 UNK         0.0600 
    192 H192       -3.7059  -16.9353  -45.8318 H         1 UNK         0.0600 
    193 H193       -5.1645  -17.8222  -45.4041 H         1 UNK         0.0600 
    194 H194       -3.6451  -18.1892  -44.6004 H         1 UNK         0.0600 
    195 H195       -2.6027  -21.1953  -47.2376 H         1 UNK         0.3000 
    196 H196       -3.6773  -22.9238  -45.2685 H         1 UNK         0.0600 
    197 H197       -2.6186  -24.7236  -46.6593 H         1 UNK         0.0600 
    198 H198       -1.5320  -23.3690  -46.4040 H         1 UNK         0.0600 
    199 H199       -2.3496  -23.5661  -47.9555 H         1 UNK         0.0600 
    200 H200       -4.7456  -22.1819  -48.5360 H         1 UNK         0.3000 
    201 H201       -7.4338  -22.8640  -48.0758 H         1 UNK         0.0600 
    202 H202       -7.6649  -24.6919  -49.8403 H         1 UNK         0.0600 
    203 H203       -6.8312  -25.2410  -48.3992 H         1 UNK         0.0600 
    204 H204       -5.9130  -24.8583  -49.8506 H         1 UNK         0.0600 
    205 H205       -4.8398  -22.5752  -50.5005 H         1 UNK         0.3000 
    206 H206       -4.4368  -21.2747  -52.2025 H         1 UNK         0.0600 
    207 H207       -5.4622  -19.0822  -52.5381 H         1 UNK         0.0600 
    208 H208       -6.8009  -19.4816  -51.4734 H         1 UNK         0.0600 
    209 H209       -5.1683  -19.3222  -50.8243 H         1 UNK         0.0600 
    210 H210       -6.5171  -23.4956  -52.1872 H         1 UNK         0.3000 
    211 H211       -8.2181  -23.0891  -54.4728 H         1 UNK         0.0600 
    212 H212       -7.3329  -25.6678  -53.0530 H         1 UNK         0.0600 
    213 H213       -8.6798  -25.5176  -54.1703 H         1 UNK         0.0600 
    214 H214       -8.7388  -24.6963  -52.6208 H         1 UNK         0.0600 
    215 H215       -8.1338  -24.3618  -56.4083 H         1 UNK         0.3000 
    216 H216       -7.3088  -24.9393  -58.3794 H         1 UNK         0.0600 
    217 H217       -6.7515  -27.0226  -57.2129 H         1 UNK         0.0600 
    218 H218       -5.2007  -26.3812  -56.6910 H         1 UNK         0.0600 
    219 H219       -5.5031  -26.6815  -58.3986 H         1 UNK         0.0600 
    220 H220       -6.8401  -22.4123  -57.9603 H         1 UNK         0.3000 
    221 H221       -5.7481  -20.5785  -58.5545 H         1 UNK         0.0600 
    222 H222       -4.0580  -22.3625  -60.3858 H         1 UNK         0.0600 
    223 H223       -5.6387  -21.6948  -60.7902 H         1 UNK         0.0600 
    224 H224       -4.2727  -20.6239  -60.5260 H         1 UNK         0.0600 
    225 H225       -5.0453  -21.5433  -56.1589 H         1 UNK         0.3000 
    226 H226       -3.6901  -21.3432  -54.4562 H         1 UNK         0.0600 
    227 H227       -3.3570  -19.0120  -55.2609 H         1 UNK         0.0600 
    228 H228       -1.9429  -19.6172  -54.4171 H         1 UNK         0.0600 
    229 H229       -1.9338  -19.5222  -56.1700 H         1 UNK         0.0600 
    230 H230       -3.2664  -23.5871  -56.3205 H         1 UNK         0.3000 
    231 H231       -0.4761  -24.3712  -55.9940 H         1 UNK         0.0600 
    232 H232       -2.9562  -26.0316  -56.6660 H         1 UNK         0.0600 
    233 H233       -1.2910  -26.5867  -56.7622 H         1 UNK         0.0600 
    234 H234       -1.8505  -25.3116  -57.8343 H         1 UNK         0.0600 
    235 H235       -3.5437  -24.7927  -54.2201 H         1 UNK         0.3000 
    236 H236       -2.2974  -26.3473  -52.0409 H         1 UNK         0.0600 
    237 H237       -4.6359  -26.8265  -52.8117 H         1 UNK         0.0600 
    238 H238       -4.5739  -26.3525  -51.1217 H         1 UNK         0.0600 
    239 H239       -5.1159  -25.1997  -52.3381 H         1 UNK         0.0600 
    240 H240       -0.7152  -24.3430  -52.1447 H         1 UNK         0.3000 
    241 H241       -1.2142  -22.6528  -49.8584 H         1 UNK         0.0600 
    242 H242        0.8191  -24.7254  -50.6070 H         1 UNK         0.3800 
    243 H243        2.3356  -23.8763  -50.5079 H         1 UNK         0.3800 
    244 H244       -0.5962  -20.9609  -52.2688 H         1 UNK         0.0800 
    245 H245       -2.1998  -21.5981  -52.2414 H         1 UNK         0.0800 
    246 H246       -2.7746  -18.6203  -52.1336 H         1 UNK         0.0800 
    247 H247       -1.0271  -18.6787  -52.1882 H         1 UNK         0.0800 
@<TRIPOS>BOND
     1    1    2 1    
     2    1  127 1    
     3    1  128 1    
     4    1  129 1    
     5    2    3 2    
     6    2    4 am   BACKBONE|DICT|INTERRES
     7    4    5 1    
     8    4  130 1    
     9    5    6 1    
    10    5   65 1    
    11    5  131 1    
    12    6    7 1    
    13    6  132 1    
    14    6  133 1    
    15    7    8 1    
    16    8    9 1    
    17    8  134 1    
    18    8  135 1    
    19    9   10 ar   
    20    9   14 ar   
    21   10   11 ar   
    22   10  136 1    
    23   11   12 ar   
    24   11  126 1    
    25   12   13 ar   
    26   12  137 1    
    27   13   14 ar   
    28   13   15 1    
    29   14  138 1    
    30   15   16 1    
    31   15  139 1    
    32   15  140 1    
    33   16   17 1    
    34   17   18 1    
    35   17  141 1    
    36   17  142 1    
    37   18   19 1    
    38   18   67 1    
    39   18  143 1    
    40   19   20 am   BACKBONE|DICT|INTERRES
    41   19  144 1    
    42   20   21 2    
    43   20   22 1    
    44   22   23 1    
    45   22   24 1    
    46   22  145 1    
    47   23  146 1    
    48   23  147 1    
    49   23  148 1    
    50   24   25 am   BACKBONE|DICT|INTERRES
    51   24  149 1    
    52   25   26 2    
    53   25   27 1    
    54   27   28 1    
    55   27   29 1    
    56   27  150 1    
    57   28  151 1    
    58   28  152 1    
    59   28  153 1    
    60   29   30 am   BACKBONE|DICT|INTERRES
    61   29  154 1    
    62   30   31 2    
    63   30   32 1    
    64   32   33 1    
    65   32   34 1    
    66   32  155 1    
    67   33  156 1    
    68   33  157 1    
    69   33  158 1    
    70   34   35 am   BACKBONE|DICT|INTERRES
    71   34  159 1    
    72   35   36 2    
    73   35   37 1    
    74   37   38 1    
    75   37   39 1    
    76   37  160 1    
    77   38  161 1    
    78   38  162 1    
    79   38  163 1    
    80   39   40 am   BACKBONE|DICT|INTERRES
    81   39  164 1    
    82   40   41 2    
    83   40   42 1    
    84   42   43 1    
    85   42   44 1    
    86   42  165 1    
    87   43  166 1    
    88   43  167 1    
    89   43  168 1    
    90   44   45 am   BACKBONE|DICT|INTERRES
    91   44  169 1    
    92   45   46 2    
    93   45   47 1    
    94   47   48 1    
    95   47   49 1    
    96   47  170 1    
    97   48  171 1    
    98   48  172 1    
    99   48  173 1    
   100   49   50 am   BACKBONE|DICT|INTERRES
   101   49  174 1    
   102   50   51 2    
   103   50   52 1    
   104   52   53 1    
   105   52   54 1    
   106   52  175 1    
   107   53  176 1    
   108   53  177 1    
   109   53  178 1    
   110   54   55 am   BACKBONE|DICT|INTERRES
   111   54  179 1    
   112   55   56 2    
   113   55   57 1    
   114   57   58 1    
   115   57   59 1    
   116   57  180 1    
   117   58  181 1    
   118   58  182 1    
   119   58  183 1    
   120   59   60 am   BACKBONE|DICT|INTERRES
   121   59  184 1    
   122   60   61 2    
   123   60   62 1    
   124   62   63 1    
   125   62   64 1    
   126   62  185 1    
   127   63  186 1    
   128   63  187 1    
   129   63  188 1    
   130   64   65 am   BACKBONE|DICT|INTERRES
   131   64  189 1    
   132   65   66 2    
   133   67   68 2    
   134   67   69 am   BACKBONE|DICT|INTERRES
   135   69   70 1    
   136   69  190 1    
   137   70   71 1    
   138   70   72 1    
   139   70  191 1    
   140   71  192 1    
   141   71  193 1    
   142   71  194 1    
   143   72   73 2    
   144   72   74 am   BACKBONE|DICT|INTERRES
   145   74   75 1    
   146   74  195 1    
   147   75   76 1    
   148   75   77 1    
   149   75  196 1    
   150   76  197 1    
   151   76  198 1    
   152   76  199 1    
   153   77   78 2    
   154   77   79 am   BACKBONE|DICT|INTERRES
   155   79   80 1    
   156   79  200 1    
   157   80   81 1    
   158   80   82 1    
   159   80  201 1    
   160   81  202 1    
   161   81  203 1    
   162   81  204 1    
   163   82   83 2    
   164   82   84 am   BACKBONE|DICT|INTERRES
   165   84   85 1    
   166   84  205 1    
   167   85   86 1    
   168   85   87 1    
   169   85  206 1    
   170   86  207 1    
   171   86  208 1    
   172   86  209 1    
   173   87   88 2    
   174   87   89 am   BACKBONE|DICT|INTERRES
   175   89   90 1    
   176   89  210 1    
   177   90   91 1    
   178   90   92 1    
   179   90  211 1    
   180   91  212 1    
   181   91  213 1    
   182   91  214 1    
   183   92   93 2    
   184   92   94 am   BACKBONE|DICT|INTERRES
   185   94   95 1    
   186   94  215 1    
   187   95   96 1    
   188   95   97 1    
   189   95  216 1    
   190   96  217 1    
   191   96  218 1    
   192   96  219 1    
   193   97   98 2    
   194   97   99 am   BACKBONE|DICT|INTERRES
   195   99  100 1    
   196   99  220 1    
   197  100  101 1    
   198  100  102 1    
   199  100  221 1    
   200  101  222 1    
   201  101  223 1    
   202  101  224 1    
   203  102  103 2    
   204  102  104 am   BACKBONE|DICT|INTERRES
   205  104  105 1    
   206  104  225 1    
   207  105  106 1    
   208  105  107 1    
   209  105  226 1    
   210  106  227 1    
   211  106  228 1    
   212  106  229 1    
   213  107  108 2    
   214  107  109 am   BACKBONE|DICT|INTERRES
   215  109  110 1    
   216  109  230 1    
   217  110  111 1    
   218  110  112 1    
   219  110  231 1    
   220  111  232 1    
   221  111  233 1    
   222  111  234 1    
   223  112  113 2    
   224  112  114 am   BACKBONE|DICT|INTERRES
   225  114  115 1    
   226  114  235 1    
   227  115  116 1    
   228  115  117 1    
   229  115  236 1    
   230  116  237 1    
   231  116  238 1    
   232  116  239 1    
   233  117  118 2    
   234  117  119 am   BACKBONE|DICT|INTERRES
   235  119  120 1    
   236  119  240 1    
   237  120  121 1    
   238  120  124 1    
   239  120  241 1    
   240  121  122 am   BACKBONE|DICT|INTERRES
   241  121  123 2    
   242  122  242 1    
   243  122  243 1    
   244  124  125 1    
   245  124  244 1    
   246  124  245 1    
   247  125  126 1    
   248  126  246 1    
   249  126  247 1    
@<TRIPOS>SUBSTRUCTURE
     1 UNK         1 GROUP             0       ****    0 ROOT    
