@<TRIPOS>MOLECULE
3R540
247   249    1
SMALL
USER_CHARGES


@<TRIPOS>ATOM
      1 CA          5.7778   -9.9881  -47.5839 C.3       0 UNK        -0.1800 
      2 C           6.2597  -10.9539  -48.6656 C.2       0 UNK         0.5000 
      3 O           6.9574  -10.5298  -49.5852 O.2       0 UNK        -0.5000 
      4 N           5.9362  -12.2524  -48.5974 N.am      1 UNK        -0.5000 
      5 CA          5.0489  -12.8967  -47.6225 C.3       1 UNK         0.1400 
      6 C6          5.3250  -14.4185  -47.5362 C.3       23 UNK        -0.0398 
      7 S7          5.0393  -15.3588  -49.0772 S.3       23 UNK        -0.2404 
      8 C8          3.4211  -16.1133  -48.7266 C.3       23 UNK        -0.0205 
      9 C9          3.0203  -17.0830  -49.8237 C.ar      23 UNK        -0.0193 
     10 C10         2.3826  -16.6170  -50.9765 C.ar      23 UNK        -0.1150 
     11 C11         2.0395  -17.5021  -52.0024 C.ar      23 UNK        -0.0193 
     12 C12         2.3302  -18.8624  -51.8642 C.ar      23 UNK        -0.1150 
     13 C13         2.9605  -19.3410  -50.7118 C.ar      23 UNK        -0.0193 
     14 C14         3.3004  -18.4462  -49.6928 C.ar      23 UNK        -0.1150 
     15 C15         3.2985  -20.8197  -50.5812 C.3       23 UNK        -0.0205 
     16 S16         1.8136  -21.8469  -50.3531 S.3       23 UNK        -0.2404 
     17 C17         1.1797  -21.2224  -48.7608 C.3       23 UNK        -0.0398 
     18 CA          0.5897  -22.3365  -47.8646 C.3       11 UNK         0.1400 
     19 N           0.4612  -21.8983  -46.4718 N.am      11 UNK        -0.5000 
     20 C           0.0887  -22.6808  -45.4481 C.2       10 UNK         0.5000 
     21 O          -0.1259  -23.8883  -45.5490 O.2       10 UNK        -0.5000 
     22 CA         -0.1379  -21.9855  -44.0938 C.3       10 UNK         0.1400 
     23 CB          1.1922  -21.7778  -43.3548 C.3       10 UNK        -0.1800 
     24 N          -0.8303  -20.7040  -44.2362 N.am      10 UNK        -0.5000 
     25 C          -2.0777  -20.5636  -44.7084 C.2       9 UNK         0.5000 
     26 O          -2.8049  -21.5107  -45.0052 O.2       9 UNK        -0.5000 
     27 CA         -2.5720  -19.1260  -44.9499 C.3       9 UNK         0.1400 
     28 CB         -3.0257  -18.4628  -43.6406 C.3       9 UNK        -0.1800 
     29 N          -1.5506  -18.3021  -45.5976 N.am      9 UNK        -0.5000 
     30 C          -1.1273  -18.4750  -46.8590 C.2       8 UNK         0.5000 
     31 O          -1.5964  -19.3131  -47.6264 O.2       8 UNK        -0.5000 
     32 CA          0.0471  -17.5963  -47.3287 C.3       8 UNK         0.1400 
     33 CB         -0.4680  -16.3386  -48.0402 C.3       8 UNK        -0.1800 
     34 N           0.9424  -17.2340  -46.2247 N.am      8 UNK        -0.5000 
     35 C           1.7507  -18.1229  -45.6273 C.2       7 UNK         0.5000 
     36 O           1.8371  -19.3025  -45.9697 O.2       7 UNK        -0.5000 
     37 CA          2.5504  -17.6239  -44.4154 C.3       7 UNK         0.1400 
     38 CB          3.7288  -16.7459  -44.8492 C.3       7 UNK        -0.1800 
     39 N           1.7235  -16.8685  -43.4796 N.am      7 UNK        -0.5000 
     40 C           0.7832  -17.3965  -42.6876 C.2       6 UNK         0.5000 
     41 O           0.4458  -18.5780  -42.7469 O.2       6 UNK        -0.5000 
     42 CA          0.0718  -16.4580  -41.6908 C.3       6 UNK         0.1400 
     43 CB          0.0800  -17.0273  -40.2584 C.3       6 UNK        -0.1800 
     44 N           0.5470  -15.0680  -41.7226 N.am      6 UNK        -0.5000 
     45 C           1.7339  -14.5707  -41.3356 C.2       5 UNK         0.5000 
     46 O           2.6216  -15.2473  -40.8172 O.2       5 UNK        -0.5000 
     47 CA          2.0030  -13.0779  -41.6256 C.3       5 UNK         0.1400 
     48 CB          3.2222  -12.9191  -42.5511 C.3       5 UNK        -0.1800 
     49 N           0.8607  -12.4164  -42.2578 N.am      5 UNK        -0.5000 
     50 C          -0.1595  -11.8411  -41.6063 C.2       4 UNK         0.5000 
     51 O          -0.2110  -11.7211  -40.3823 O.2       4 UNK        -0.5000 
     52 CA         -1.3384  -11.3512  -42.4724 C.3       4 UNK         0.1400 
     53 CB         -1.1762   -9.8605  -42.8061 C.3       4 UNK        -0.1800 
     54 N          -1.4890  -12.1052  -43.7217 N.am      4 UNK        -0.5000 
     55 C          -1.8087  -13.4055  -43.8050 C.2       3 UNK         0.5000 
     56 O          -2.0597  -14.1079  -42.8277 O.2       3 UNK        -0.5000 
     57 CA         -1.7786  -14.0465  -45.2042 C.3       3 UNK         0.1400 
     58 CB         -3.1825  -14.0529  -45.8263 C.3       3 UNK        -0.1800 
     59 N          -0.8449  -13.3705  -46.1094 N.am      3 UNK        -0.5000 
     60 C           0.4894  -13.4377  -46.0156 C.2       2 UNK         0.5000 
     61 O           1.0855  -14.1623  -45.2116 O.2       2 UNK        -0.5000 
     62 CA          1.2714  -12.5119  -46.9570 C.3       2 UNK         0.1400 
     63 CB          1.0587  -11.0347  -46.5710 C.3       2 UNK        -0.1800 
     64 N           2.6979  -12.8214  -46.9054 N.am      2 UNK        -0.5000 
     65 C           3.5607  -12.5753  -47.8986 C.2       1 UNK         0.5000 
     66 O           3.2205  -12.1075  -48.9886 O.2       1 UNK        -0.5000 
     67 C          -0.7481  -22.8725  -48.4192 C.2       11 UNK         0.5000 
     68 O          -0.7807  -23.9783  -48.9590 O.2       11 UNK        -0.5000 
     69 N          -1.8328  -22.1072  -48.2258 N.am      12 UNK        -0.5000 
     70 CA         -3.1967  -22.4840  -48.5948 C.3       12 UNK         0.1400 
     71 CB         -4.1553  -21.3210  -48.3046 C.3       12 UNK        -0.1800 
     72 C          -3.6740  -23.7641  -47.8909 C.2       12 UNK         0.5000 
     73 O          -4.2367  -24.6366  -48.5510 O.2       12 UNK        -0.5000 
     74 N          -3.4168  -23.8686  -46.5795 N.am      13 UNK        -0.5000 
     75 CA         -3.7258  -25.0398  -45.7585 C.3       13 UNK         0.1400 
     76 CB         -3.4367  -24.7324  -44.2820 C.3       13 UNK        -0.1800 
     77 C          -2.9748  -26.3025  -46.2176 C.2       13 UNK         0.5000 
     78 O          -3.6010  -27.3513  -46.3755 O.2       13 UNK        -0.5000 
     79 N          -1.6663  -26.1688  -46.4812 N.am      14 UNK        -0.5000 
     80 CA         -0.8066  -27.2285  -47.0195 C.3       14 UNK         0.1400 
     81 CB          0.6523  -26.7481  -47.0277 C.3       14 UNK        -0.1800 
     82 C          -1.2310  -27.7003  -48.4246 C.2       14 UNK         0.5000 
     83 O          -1.0884  -28.8813  -48.7412 O.2       14 UNK        -0.5000 
     84 N          -1.7925  -26.7801  -49.2176 N.am      15 UNK        -0.5000 
     85 CA         -2.3896  -27.0203  -50.5311 C.3       15 UNK         0.1400 
     86 CB         -2.2704  -25.7296  -51.3575 C.3       15 UNK        -0.1800 
     87 C          -3.8472  -27.5371  -50.4663 C.2       15 UNK         0.5000 
     88 O          -4.5262  -27.5385  -51.4934 O.2       15 UNK        -0.5000 
     89 N          -4.2980  -27.9820  -49.2829 N.am      16 UNK        -0.5000 
     90 CA         -5.6113  -28.5600  -48.9799 C.3       16 UNK         0.1400 
     91 CB         -5.8755  -29.8372  -49.8063 C.3       16 UNK        -0.1800 
     92 C          -6.7482  -27.5231  -49.0613 C.2       16 UNK         0.5000 
     93 O          -7.7691  -27.7614  -49.7092 O.2       16 UNK        -0.5000 
     94 N          -6.5388  -26.3944  -48.3707 N.am      17 UNK        -0.5000 
     95 CA         -7.4419  -25.2483  -48.2235 C.3       17 UNK         0.1400 
     96 CB         -8.7558  -25.6529  -47.5226 C.3       17 UNK        -0.1800 
     97 C          -7.6608  -24.4834  -49.5439 C.2       17 UNK         0.5000 
     98 O          -8.7731  -24.0353  -49.8310 O.2       17 UNK        -0.5000 
     99 N          -6.5796  -24.3141  -50.3149 N.am      18 UNK        -0.5000 
    100 CA        -6.5406  -23.5330  -51.5510 C.3       18 UNK         0.1400 
    101 CB        -5.4255  -24.0859  -52.4531 C.3       18 UNK        -0.1800 
    102 C         -6.3601  -22.0387  -51.2167 C.2       18 UNK         0.5000 
    103 O         -5.2855  -21.4749  -51.4344 O.2       18 UNK        -0.5000 
    104 N         -7.4076  -21.4527  -50.6212 N.am      19 UNK        -0.5000 
    105 CA        -7.4739  -20.0943  -50.0803 C.3       19 UNK         0.1400 
    106 CB        -8.8975  -19.8372  -49.5599 C.3       19 UNK        -0.1800 
    107 C         -7.0418  -19.0112  -51.0868 C.2       19 UNK         0.5000 
    108 O         -7.7840  -18.7175  -52.0260 O.2       19 UNK        -0.5000 
    109 N         -5.8404  -18.4591  -50.8621 N.am      20 UNK        -0.5000 
    110 CA        -5.1801  -17.4095  -51.6454 C.3       20 UNK         0.1400 
    111 CB        -5.9307  -16.0698  -51.4935 C.3       20 UNK        -0.1800 
    112 C         -4.9291  -17.7902  -53.1211 C.2       20 UNK         0.5000 
    113 O         -4.9218  -16.9124  -53.9870 O.2       20 UNK        -0.5000 
    114 N         -4.7016  -19.0841  -53.3929 N.am      21 UNK        -0.5000 
    115 CA        -4.4572  -19.6483  -54.7257 C.3       21 UNK         0.1400 
    116 CB        -4.7793  -21.1513  -54.6920 C.3       21 UNK        -0.1800 
    117 C         -3.0386  -19.3573  -55.2717 C.2       21 UNK         0.5000 
    118 O         -2.3565  -20.2654  -55.7504 O.2       21 UNK        -0.5000 
    119 N         -2.6210  -18.0907  -55.1935 N.am      22 UNK        -0.5000 
    120 CA        -1.3404  -17.5711  -55.6976 C.3       22 UNK         0.1400 
    121 C         -1.3630  -17.1934  -57.2086 C.2       22 UNK         0.5000 
    122 N         -2.5004  -17.2274  -57.8929 N.am      22 UNK        -0.7600 
    123 O         -0.3224  -16.8741  -57.7772 O.2       22 UNK        -0.5000 
    124 C124       -0.8398  -16.3854  -54.8333 C.3       23 UNK        -0.0398 
    125 S125       -0.4189  -16.8991  -53.1321 S.3       23 UNK        -0.2404 
    126 C126        1.3922  -16.9841  -53.2758 C.3       23 UNK        -0.0205 
    127 H127        4.6913   -9.9046  -47.5891 H         1 UNK         0.0600 
    128 H128        6.1858   -8.9916  -47.7543 H         1 UNK         0.0600 
    129 H129        6.1040  -10.3118  -46.5958 H         1 UNK         0.0600 
    130 H130        6.2435  -12.8610  -49.3426 H         1 UNK         0.3000 
    131 H131        5.2803  -12.4846  -46.6389 H         1 UNK         0.0600 
    132 H132        6.3672  -14.5734  -47.2533 H         1 UNK         0.0800 
    133 H133        4.7506  -14.8602  -46.7264 H         1 UNK         0.0800 
    134 H134        3.4581  -16.6351  -47.7712 H         1 UNK         0.0800 
    135 H135        2.6676  -15.3320  -48.6272 H         1 UNK         0.0800 
    136 H136        2.1694  -15.5624  -51.0827 H         1 UNK         0.1150 
    137 H137        2.0711  -19.5512  -52.6563 H         1 UNK         0.1150 
    138 H138        3.7958  -18.8074  -48.8023 H         1 UNK         0.1150 
    139 H139        3.8185  -21.1478  -51.4824 H         1 UNK         0.0800 
    140 H140        3.9879  -20.9915  -49.7530 H         1 UNK         0.0800 
    141 H141        0.4488  -20.4380  -48.9596 H         1 UNK         0.0800 
    142 H142        2.0043  -20.7396  -48.2354 H         1 UNK         0.0800 
    143 H143        1.2953  -23.1703  -47.8573 H         1 UNK         0.0600 
    144 H144        0.6764  -20.9255  -46.2799 H         1 UNK         0.3000 
    145 H145       -0.7658  -22.6390  -43.4849 H         1 UNK         0.0600 
    146 H146        1.0283  -21.3605  -42.3611 H         1 UNK         0.0600 
    147 H147        1.7207  -22.7234  -43.2280 H         1 UNK         0.0600 
    148 H148        1.8537  -21.1003  -43.8954 H         1 UNK         0.0600 
    149 H149       -0.3144  -19.8789  -43.9447 H         1 UNK         0.3000 
    150 H150       -3.4355  -19.1768  -45.6165 H         1 UNK         0.0600 
    151 H151       -3.8475  -19.0211  -43.1906 H         1 UNK         0.0600 
    152 H152       -3.3800  -17.4461  -43.8131 H         1 UNK         0.0600 
    153 H153       -2.2235  -18.4194  -42.9049 H         1 UNK         0.0600 
    154 H154       -1.0810  -17.6207  -45.0231 H         1 UNK         0.3000 
    155 H155        0.6245  -18.1708  -48.0561 H         1 UNK         0.0600 
    156 H156        0.3463  -15.6751  -48.3269 H         1 UNK         0.0600 
    157 H157       -1.1609  -15.7787  -47.4165 H         1 UNK         0.0600 
    158 H158       -1.0014  -16.6066  -48.9532 H         1 UNK         0.0600 
    159 H159        0.9202  -16.2806  -45.8843 H         1 UNK         0.3000 
    160 H160        2.9486  -18.4985  -43.8963 H         1 UNK         0.0600 
    161 H161        3.3750  -15.8133  -45.2865 H         1 UNK         0.0600 
    162 H162        4.3539  -17.2543  -45.5845 H         1 UNK         0.0600 
    163 H163        4.3644  -16.4946  -43.9998 H         1 UNK         0.0600 
    164 H164        1.9054  -15.8782  -43.4077 H         1 UNK         0.3000 
    165 H165       -0.9686  -16.4208  -42.0147 H         1 UNK         0.0600 
    166 H166        1.0926  -17.1810  -39.8853 H         1 UNK         0.0600 
    167 H167       -0.4375  -16.3625  -39.5667 H         1 UNK         0.0600 
    168 H168       -0.4275  -17.9920  -40.2205 H         1 UNK         0.0600 
    169 H169       -0.1229  -14.4183  -42.1163 H         1 UNK         0.3000 
    170 H170        2.2287  -12.5920  -40.6741 H         1 UNK         0.0600 
    171 H171        4.1197  -13.3367  -42.0930 H         1 UNK         0.0600 
    172 H172        3.0757  -13.4271  -43.5045 H         1 UNK         0.0600 
    173 H173        3.4259  -11.8684  -42.7586 H         1 UNK         0.0600 
    174 H174        0.8108  -12.4831  -43.2638 H         1 UNK         0.3000 
    175 H175       -2.2525  -11.4770  -41.8883 H         1 UNK         0.0600 
    176 H176       -2.0393   -9.4825  -43.3544 H         1 UNK         0.0600 
    177 H177       -1.0843   -9.2644  -41.8971 H         1 UNK         0.0600 
    178 H178       -0.2867   -9.6771  -43.4103 H         1 UNK         0.0600 
    179 H179       -1.3128  -11.5993  -44.5765 H         1 UNK         0.3000 
    180 H180       -1.4550  -15.0821  -45.0811 H         1 UNK         0.0600 
    181 H181       -3.5628  -13.0414  -45.9740 H         1 UNK         0.0600 
    182 H182       -3.8905  -14.5795  -45.1848 H         1 UNK         0.0600 
    183 H183       -3.1871  -14.5568  -46.7928 H         1 UNK         0.0600 
    184 H184       -1.2577  -12.7686  -46.8079 H         1 UNK         0.3000 
    185 H185        0.8964  -12.6844  -47.9682 H         1 UNK         0.0600 
    186 H186        1.6003  -10.3689  -47.2432 H         1 UNK         0.0600 
    187 H187        0.0071  -10.7521  -46.6262 H         1 UNK         0.0600 
    188 H188        1.4029  -10.8316  -45.5559 H         1 UNK         0.0600 
    189 H189        3.0002  -13.2596  -46.0455 H         1 UNK         0.3000 
    190 H190       -1.7197  -21.1857  -47.8115 H         1 UNK         0.3000 
    191 H191       -3.2110  -22.6746  -49.6699 H         1 UNK         0.0600 
    192 H192       -3.9343  -20.4641  -48.9408 H         1 UNK         0.0600 
    193 H193       -5.1877  -21.6145  -48.4925 H         1 UNK         0.0600 
    194 H194       -4.0961  -20.9929  -47.2677 H         1 UNK         0.0600 
    195 H195       -2.9938  -23.0775  -46.1010 H         1 UNK         0.3000 
    196 H196       -4.7952  -25.2370  -45.8565 H         1 UNK         0.0600 
    197 H197       -3.6856  -25.5852  -43.6493 H         1 UNK         0.0600 
    198 H198       -4.0277  -23.8852  -43.9336 H         1 UNK         0.0600 
    199 H199       -2.3857  -24.4960  -44.1165 H         1 UNK         0.0600 
    200 H200       -1.2180  -25.2741  -46.2987 H         1 UNK         0.3000 
    201 H201       -0.8791  -28.0870  -46.3488 H         1 UNK         0.0600 
    202 H202        0.9883  -26.4925  -46.0226 H         1 UNK         0.0600 
    203 H203        0.7815  -25.8668  -47.6569 H         1 UNK         0.0600 
    204 H204        1.3186  -27.5241  -47.4063 H         1 UNK         0.0600 
    205 H205       -1.8171  -25.8205  -48.8899 H         1 UNK         0.3000 
    206 H206       -1.8112  -27.7926  -51.0417 H         1 UNK         0.0600 
    207 H207       -1.2264  -25.4445  -51.4884 H         1 UNK         0.0600 
    208 H208       -2.7002  -25.8457  -52.3530 H         1 UNK         0.0600 
    209 H209       -2.7776  -24.9000  -50.8671 H         1 UNK         0.0600 
    210 H210       -3.6811  -27.8917  -48.4849 H         1 UNK         0.3000 
    211 H211       -5.5634  -28.8656  -47.9336 H         1 UNK         0.0600 
    212 H212       -6.0045  -29.6211  -50.8670 H         1 UNK         0.0600 
    213 H213       -6.7829  -30.3374  -49.4659 H         1 UNK         0.0600 
    214 H214       -5.0561  -30.5487  -49.7052 H         1 UNK         0.0600 
    215 H215       -5.6174  -26.2621  -47.9730 H         1 UNK         0.3000 
    216 H216       -6.9290  -24.5496  -47.5611 H         1 UNK         0.0600 
    217 H217       -8.5588  -26.1785  -46.5883 H         1 UNK         0.0600 
    218 H218       -9.3703  -26.2995  -48.1494 H         1 UNK         0.0600 
    219 H219       -9.3537  -24.7739  -47.2792 H         1 UNK         0.0600 
    220 H220       -5.6913  -24.6548  -49.9618 H         1 UNK         0.3000 
    221 H221       -7.4862  -23.6513  -52.0842 H         1 UNK         0.0600 
    222 H222       -4.4361  -23.8798  -52.0476 H         1 UNK         0.0600 
    223 H223       -5.5183  -25.1643  -52.5822 H         1 UNK         0.0600 
    224 H224       -5.4737  -23.6397  -53.4454 H         1 UNK         0.0600 
    225 H225       -8.2246  -22.0304  -50.4634 H         1 UNK         0.3000 
    226 H226       -6.8028  -20.0520  -49.2213 H         1 UNK         0.0600 
    227 H227       -9.1616  -20.5397  -48.7691 H         1 UNK         0.0600 
    228 H228       -8.9866  -18.8324  -49.1447 H         1 UNK         0.0600 
    229 H229       -9.6399  -19.9320  -50.3534 H         1 UNK         0.0600 
    230 H230       -5.2981  -18.8159  -50.0884 H         1 UNK         0.3000 
    231 H231       -4.1912  -17.2805  -51.2031 H         1 UNK         0.0600 
    232 H232       -5.3711  -15.2520  -51.9491 H         1 UNK         0.0600 
    233 H233       -6.0746  -15.8150  -50.4435 H         1 UNK         0.0600 
    234 H234       -6.9114  -16.0996  -51.9692 H         1 UNK         0.0600 
    235 H235       -4.7302  -19.7501  -52.6284 H         1 UNK         0.3000 
    236 H236       -5.1584  -19.1842  -55.4223 H         1 UNK         0.0600 
    237 H237       -4.6842  -21.5995  -55.6818 H         1 UNK         0.0600 
    238 H238       -4.1069  -21.6862  -54.0203 H         1 UNK         0.0600 
    239 H239       -5.8018  -21.3256  -54.3566 H         1 UNK         0.0600 
    240 H240       -3.2631  -17.4113  -54.7966 H         1 UNK         0.3000 
    241 H241       -0.5972  -18.3666  -55.6158 H         1 UNK         0.0600 
    242 H242       -2.4984  -16.9862  -58.8719 H         1 UNK         0.3800 
    243 H243       -3.3635  -17.4853  -57.4423 H         1 UNK         0.3800 
    244 H244        0.0358  -15.9134  -55.2827 H         1 UNK         0.0800 
    245 H245       -1.6022  -15.6066  -54.7812 H         1 UNK         0.0800 
    246 H246        1.6583  -17.6278  -54.1159 H         1 UNK         0.0800 
    247 H247        1.7841  -15.9934  -53.5115 H         1 UNK         0.0800 
@<TRIPOS>BOND
     1    1    2 1    
     2    1  127 1    
     3    1  128 1    
     4    1  129 1    
     5    2    3 2    
     6    2    4 am   BACKBONE|DICT|INTERRES
     7    4    5 1    
     8    4  130 1    
     9    5    6 1    
    10    5   65 1    
    11    5  131 1    
    12    6    7 1    
    13    6  132 1    
    14    6  133 1    
    15    7    8 1    
    16    8    9 1    
    17    8  134 1    
    18    8  135 1    
    19    9   10 ar   
    20    9   14 ar   
    21   10   11 ar   
    22   10  136 1    
    23   11   12 ar   
    24   11  126 1    
    25   12   13 ar   
    26   12  137 1    
    27   13   14 ar   
    28   13   15 1    
    29   14  138 1    
    30   15   16 1    
    31   15  139 1    
    32   15  140 1    
    33   16   17 1    
    34   17   18 1    
    35   17  141 1    
    36   17  142 1    
    37   18   19 1    
    38   18   67 1    
    39   18  143 1    
    40   19   20 am   BACKBONE|DICT|INTERRES
    41   19  144 1    
    42   20   21 2    
    43   20   22 1    
    44   22   23 1    
    45   22   24 1    
    46   22  145 1    
    47   23  146 1    
    48   23  147 1    
    49   23  148 1    
    50   24   25 am   BACKBONE|DICT|INTERRES
    51   24  149 1    
    52   25   26 2    
    53   25   27 1    
    54   27   28 1    
    55   27   29 1    
    56   27  150 1    
    57   28  151 1    
    58   28  152 1    
    59   28  153 1    
    60   29   30 am   BACKBONE|DICT|INTERRES
    61   29  154 1    
    62   30   31 2    
    63   30   32 1    
    64   32   33 1    
    65   32   34 1    
    66   32  155 1    
    67   33  156 1    
    68   33  157 1    
    69   33  158 1    
    70   34   35 am   BACKBONE|DICT|INTERRES
    71   34  159 1    
    72   35   36 2    
    73   35   37 1    
    74   37   38 1    
    75   37   39 1    
    76   37  160 1    
    77   38  161 1    
    78   38  162 1    
    79   38  163 1    
    80   39   40 am   BACKBONE|DICT|INTERRES
    81   39  164 1    
    82   40   41 2    
    83   40   42 1    
    84   42   43 1    
    85   42   44 1    
    86   42  165 1    
    87   43  166 1    
    88   43  167 1    
    89   43  168 1    
    90   44   45 am   BACKBONE|DICT|INTERRES
    91   44  169 1    
    92   45   46 2    
    93   45   47 1    
    94   47   48 1    
    95   47   49 1    
    96   47  170 1    
    97   48  171 1    
    98   48  172 1    
    99   48  173 1    
   100   49   50 am   BACKBONE|DICT|INTERRES
   101   49  174 1    
   102   50   51 2    
   103   50   52 1    
   104   52   53 1    
   105   52   54 1    
   106   52  175 1    
   107   53  176 1    
   108   53  177 1    
   109   53  178 1    
   110   54   55 am   BACKBONE|DICT|INTERRES
   111   54  179 1    
   112   55   56 2    
   113   55   57 1    
   114   57   58 1    
   115   57   59 1    
   116   57  180 1    
   117   58  181 1    
   118   58  182 1    
   119   58  183 1    
   120   59   60 am   BACKBONE|DICT|INTERRES
   121   59  184 1    
   122   60   61 2    
   123   60   62 1    
   124   62   63 1    
   125   62   64 1    
   126   62  185 1    
   127   63  186 1    
   128   63  187 1    
   129   63  188 1    
   130   64   65 am   BACKBONE|DICT|INTERRES
   131   64  189 1    
   132   65   66 2    
   133   67   68 2    
   134   67   69 am   BACKBONE|DICT|INTERRES
   135   69   70 1    
   136   69  190 1    
   137   70   71 1    
   138   70   72 1    
   139   70  191 1    
   140   71  192 1    
   141   71  193 1    
   142   71  194 1    
   143   72   73 2    
   144   72   74 am   BACKBONE|DICT|INTERRES
   145   74   75 1    
   146   74  195 1    
   147   75   76 1    
   148   75   77 1    
   149   75  196 1    
   150   76  197 1    
   151   76  198 1    
   152   76  199 1    
   153   77   78 2    
   154   77   79 am   BACKBONE|DICT|INTERRES
   155   79   80 1    
   156   79  200 1    
   157   80   81 1    
   158   80   82 1    
   159   80  201 1    
   160   81  202 1    
   161   81  203 1    
   162   81  204 1    
   163   82   83 2    
   164   82   84 am   BACKBONE|DICT|INTERRES
   165   84   85 1    
   166   84  205 1    
   167   85   86 1    
   168   85   87 1    
   169   85  206 1    
   170   86  207 1    
   171   86  208 1    
   172   86  209 1    
   173   87   88 2    
   174   87   89 am   BACKBONE|DICT|INTERRES
   175   89   90 1    
   176   89  210 1    
   177   90   91 1    
   178   90   92 1    
   179   90  211 1    
   180   91  212 1    
   181   91  213 1    
   182   91  214 1    
   183   92   93 2    
   184   92   94 am   BACKBONE|DICT|INTERRES
   185   94   95 1    
   186   94  215 1    
   187   95   96 1    
   188   95   97 1    
   189   95  216 1    
   190   96  217 1    
   191   96  218 1    
   192   96  219 1    
   193   97   98 2    
   194   97   99 am   BACKBONE|DICT|INTERRES
   195   99  100 1    
   196   99  220 1    
   197  100  101 1    
   198  100  102 1    
   199  100  221 1    
   200  101  222 1    
   201  101  223 1    
   202  101  224 1    
   203  102  103 2    
   204  102  104 am   BACKBONE|DICT|INTERRES
   205  104  105 1    
   206  104  225 1    
   207  105  106 1    
   208  105  107 1    
   209  105  226 1    
   210  106  227 1    
   211  106  228 1    
   212  106  229 1    
   213  107  108 2    
   214  107  109 am   BACKBONE|DICT|INTERRES
   215  109  110 1    
   216  109  230 1    
   217  110  111 1    
   218  110  112 1    
   219  110  231 1    
   220  111  232 1    
   221  111  233 1    
   222  111  234 1    
   223  112  113 2    
   224  112  114 am   BACKBONE|DICT|INTERRES
   225  114  115 1    
   226  114  235 1    
   227  115  116 1    
   228  115  117 1    
   229  115  236 1    
   230  116  237 1    
   231  116  238 1    
   232  116  239 1    
   233  117  118 2    
   234  117  119 am   BACKBONE|DICT|INTERRES
   235  119  120 1    
   236  119  240 1    
   237  120  121 1    
   238  120  124 1    
   239  120  241 1    
   240  121  122 am   BACKBONE|DICT|INTERRES
   241  121  123 2    
   242  122  242 1    
   243  122  243 1    
   244  124  125 1    
   245  124  244 1    
   246  124  245 1    
   247  125  126 1    
   248  126  246 1    
   249  126  247 1    
@<TRIPOS>SUBSTRUCTURE
     1 UNK         1 GROUP             0       ****    0 ROOT    
