@<TRIPOS>MOLECULE
3R540
247   249    1
SMALL
USER_CHARGES


@<TRIPOS>ATOM
      1 CA          0.7688  -12.0937  -49.4683 C.3       0 UNK        -0.1800 
      2 C           2.2159  -12.0858  -48.9965 C.2       0 UNK         0.5000 
      3 O           2.8160  -11.0176  -48.8767 O.2       0 UNK        -0.5000 
      4 N           2.7774  -13.2732  -48.7414 N.am      1 UNK        -0.5000 
      5 CA          4.1418  -13.4721  -48.2407 C.3       1 UNK         0.1400 
      6 C6          4.6015  -14.9390  -48.4427 C.3       23 UNK        -0.0398 
      7 S7          5.4852  -15.1976  -50.0188 S.3       23 UNK        -0.2404 
      8 C8          4.1789  -14.9943  -51.2802 C.3       23 UNK        -0.0205 
      9 C9          2.9593  -15.8857  -51.0700 C.ar      23 UNK        -0.0193 
     10 C10         1.6760  -15.3426  -51.1863 C.ar      23 UNK        -0.1150 
     11 C11         0.5435  -16.1375  -50.9924 C.ar      23 UNK        -0.0193 
     12 C12         0.7061  -17.4894  -50.6774 C.ar      23 UNK        -0.1150 
     13 C13         1.9800  -18.0547  -50.5829 C.ar      23 UNK        -0.0193 
     14 C14         3.1023  -17.2471  -50.7832 C.ar      23 UNK        -0.1150 
     15 C15         2.1493  -19.5365  -50.2821 C.3       23 UNK        -0.0205 
     16 S16         1.7218  -19.9297  -48.5604 S.3       23 UNK        -0.2404 
     17 C17        -0.0828  -20.2048  -48.6621 C.3       23 UNK        -0.0398 
     18 CA         -0.4667  -21.5705  -48.0543 C.3       11 UNK         0.1400 
     19 N          -0.1326  -21.6510  -46.6316 N.am      11 UNK        -0.5000 
     20 C           0.0296  -22.8002  -45.9649 C.2       10 UNK         0.5000 
     21 O          -0.2742  -23.8989  -46.4294 O.2       10 UNK        -0.5000 
     22 CA          0.6367  -22.7067  -44.5566 C.3       10 UNK         0.1400 
     23 CB          2.1532  -22.4739  -44.6439 C.3       10 UNK        -0.1800 
     24 N           0.0273  -21.6131  -43.8045 N.am      10 UNK        -0.5000 
     25 C          -0.8366  -21.7721  -42.7930 C.2       9 UNK         0.5000 
     26 O          -1.1217  -22.8626  -42.2966 O.2       9 UNK        -0.5000 
     27 CA         -1.5282  -20.4989  -42.2591 C.3       9 UNK         0.1400 
     28 CB         -0.7515  -19.9284  -41.0627 C.3       9 UNK        -0.1800 
     29 N          -1.6971  -19.4435  -43.2629 N.am      9 UNK        -0.5000 
     30 C          -2.3403  -19.5819  -44.4309 C.2       8 UNK         0.5000 
     31 O          -2.8962  -20.6195  -44.7833 O.2       8 UNK        -0.5000 
     32 CA         -2.2974  -18.3935  -45.4075 C.3       8 UNK         0.1400 
     33 CB         -3.5585  -17.5300  -45.2642 C.3       8 UNK        -0.1800 
     34 N          -1.1138  -17.5400  -45.2793 N.am      8 UNK        -0.5000 
     35 C           0.1656  -17.9272  -45.3909 C.2       7 UNK         0.5000 
     36 O           0.5044  -19.1088  -45.4905 O.2       7 UNK        -0.5000 
     37 CA          1.2423  -16.8216  -45.3279 C.3       7 UNK         0.1400 
     38 CB          2.3802  -17.0483  -46.3391 C.3       7 UNK        -0.1800 
     39 N           0.7177  -15.4500  -45.4134 N.am      7 UNK        -0.5000 
     40 C           0.0853  -14.8713  -46.4472 C.2       6 UNK         0.5000 
     41 O          -0.0728  -15.4007  -47.5453 O.2       6 UNK        -0.5000 
     42 CA         -0.5142  -13.4824  -46.1964 C.3       6 UNK         0.1400 
     43 CB         -1.8087  -13.5962  -45.3682 C.3       6 UNK        -0.1800 
     44 N           0.4429  -12.6013  -45.5360 N.am      6 UNK        -0.5000 
     45 C           0.3642  -11.2655  -45.5064 C.2       5 UNK         0.5000 
     46 O          -0.5352  -10.6242  -46.0539 O.2       5 UNK        -0.5000 
     47 CA          1.4721  -10.5328  -44.7154 C.3       5 UNK         0.1400 
     48 CB          1.1684   -9.0371  -44.4907 C.3       5 UNK        -0.1800 
     49 N           1.7890  -11.1901  -43.4409 N.am      5 UNK        -0.5000 
     50 C           0.9453  -11.4647  -42.4319 C.2       4 UNK         0.5000 
     51 O          -0.2370  -11.1190  -42.4149 O.2       4 UNK        -0.5000 
     52 CA          1.5233  -12.2534  -41.2332 C.3       4 UNK         0.1400 
     53 CB          0.4770  -13.1806  -40.5790 C.3       4 UNK        -0.1800 
     54 N           2.7539  -12.9948  -41.5431 N.am      4 UNK        -0.5000 
     55 C           2.8975  -13.9979  -42.4202 C.2       3 UNK         0.5000 
     56 O           1.9735  -14.4551  -43.0943 O.2       3 UNK        -0.5000 
     57 CA          4.3340  -14.5240  -42.6201 C.3       3 UNK         0.1400 
     58 CB          4.3609  -16.0415  -42.8656 C.3       3 UNK        -0.1800 
     59 N           4.9941  -13.8522  -43.7406 N.am      3 UNK        -0.5000 
     60 C           5.2998  -12.5491  -43.7939 C.2       2 UNK         0.5000 
     61 O           5.1417  -11.7755  -42.8489 O.2       2 UNK        -0.5000 
     62 CA          5.8598  -11.9926  -45.1188 C.3       2 UNK         0.1400 
     63 CB          7.3911  -11.8914  -45.0423 C.3       2 UNK        -0.1800 
     64 N           5.4972  -12.7016  -46.3535 N.am      2 UNK        -0.5000 
     65 C           4.2630  -13.0228  -46.7673 C.2       1 UNK         0.5000 
     66 O           3.2632  -12.9706  -46.0501 O.2       1 UNK        -0.5000 
     67 C          -1.9246  -21.9490  -48.3804 C.2       11 UNK         0.5000 
     68 O          -2.1752  -22.3649  -49.5125 O.2       11 UNK        -0.5000 
     69 N          -2.8556  -21.8362  -47.4196 N.am      12 UNK        -0.5000 
     70 CA         -4.2217  -22.3449  -47.5770 C.3       12 UNK         0.1400 
     71 CB         -5.1804  -21.6732  -46.5846 C.3       12 UNK        -0.1800 
     72 C          -4.2656  -23.8722  -47.4312 C.2       12 UNK         0.5000 
     73 O          -4.9675  -24.5304  -48.1963 O.2       12 UNK        -0.5000 
     74 N          -3.4778  -24.4185  -46.4932 N.am      13 UNK        -0.5000 
     75 CA         -3.3281  -25.8598  -46.2784 C.3       13 UNK         0.1400 
     76 CB         -2.5541  -26.1168  -44.9768 C.3       13 UNK        -0.1800 
     77 C          -2.6581  -26.5585  -47.4754 C.2       13 UNK         0.5000 
     78 O          -3.0891  -27.6446  -47.8629 O.2       13 UNK        -0.5000 
     79 N          -1.6736  -25.8864  -48.0901 N.am      14 UNK        -0.5000 
     80 CA         -1.0203  -26.2967  -49.3374 C.3       14 UNK         0.1400 
     81 CB          0.1380  -25.3332  -49.6364 C.3       14 UNK        -0.1800 
     82 C          -1.9812  -26.3668  -50.5439 C.2       14 UNK         0.5000 
     83 O          -1.7538  -27.1632  -51.4546 O.2       14 UNK        -0.5000 
     84 N          -3.0459  -25.5552  -50.5121 N.am      15 UNK        -0.5000 
     85 CA         -4.1298  -25.5245  -51.4944 C.3       15 UNK         0.1400 
     86 CB         -4.5006  -24.0562  -51.7521 C.3       15 UNK        -0.1800 
     87 C          -5.3596  -26.3422  -51.0429 C.2       15 UNK         0.5000 
     88 O          -6.4252  -26.2068  -51.6463 O.2       15 UNK        -0.5000 
     89 N          -5.2146  -27.1511  -49.9799 N.am      16 UNK        -0.5000 
     90 CA         -6.2299  -28.0251  -49.3758 C.3       16 UNK         0.1400 
     91 CB         -6.5560  -29.1965  -50.3252 C.3       16 UNK        -0.1800 
     92 C          -7.4966  -27.2802  -48.8959 C.2       16 UNK         0.5000 
     93 O          -8.5837  -27.8596  -48.8848 O.2       16 UNK        -0.5000 
     94 N          -7.3319  -26.0001  -48.5310 N.am      17 UNK        -0.5000 
     95 CA         -8.3530  -25.0294  -48.1253 C.3       17 UNK         0.1400 
     96 CB         -9.0412  -25.4674  -46.8163 C.3       17 UNK        -0.1800 
     97 C          -9.3663  -24.6598  -49.2326 C.2       17 UNK         0.5000 
     98 O         -10.3676  -24.0060  -48.9352 O.2       17 UNK        -0.5000 
     99 N          -9.0963  -25.0472  -50.4885 N.am      18 UNK        -0.5000 
    100 CA        -9.9231  -24.7106  -51.6511 C.3       18 UNK         0.1400 
    101 CB        -9.6691  -25.7417  -52.7614 C.3       18 UNK        -0.1800 
    102 C         -9.6531  -23.2841  -52.1675 C.2       18 UNK         0.5000 
    103 O        -10.5188  -22.6951  -52.8160 O.2       18 UNK        -0.5000 
    104 N         -8.4618  -22.7612  -51.8632 N.am      19 UNK        -0.5000 
    105 CA        -7.9644  -21.4301  -52.1864 C.3       19 UNK         0.1400 
    106 CB        -7.6503  -21.3219  -53.6963 C.3       19 UNK        -0.1800 
    107 C         -6.7433  -21.1811  -51.2820 C.2       19 UNK         0.5000 
    108 O         -6.7066  -21.6989  -50.1625 O.2       19 UNK        -0.5000 
    109 N         -5.7496  -20.4438  -51.7854 N.am      20 UNK        -0.5000 
    110 CA        -4.4180  -20.3287  -51.2055 C.3       20 UNK         0.1400 
    111 CB        -4.2884  -19.0203  -50.4114 C.3       20 UNK        -0.1800 
    112 C         -3.4009  -20.4080  -52.3482 C.2       20 UNK         0.5000 
    113 O         -3.6709  -19.9015  -53.4405 O.2       20 UNK        -0.5000 
    114 N         -2.2583  -21.0501  -52.0835 N.am      21 UNK        -0.5000 
    115 CA        -1.1924  -21.3610  -53.0413 C.3       21 UNK         0.1400 
    116 CB        -0.3545  -22.5155  -52.4594 C.3       21 UNK        -0.1800 
    117 C         -0.3268  -20.1438  -53.4498 C.2       21 UNK         0.5000 
    118 O          0.8982  -20.2541  -53.5128 O.2       21 UNK        -0.5000 
    119 N         -0.9711  -19.0031  -53.7167 N.am      22 UNK        -0.5000 
    120 CA        -0.3354  -17.7187  -54.0593 C.3       22 UNK         0.1400 
    121 C          0.2184  -17.6275  -55.5120 C.2       22 UNK         0.5000 
    122 N         -0.0553  -18.5814  -56.3939 N.am      22 UNK        -0.7600 
    123 O          0.9139  -16.6724  -55.8464 O.2       22 UNK        -0.5000 
    124 C124       -1.2579  -16.5071  -53.7497 C.3       23 UNK        -0.0398 
    125 S125       -2.0099  -16.5422  -52.0837 S.3       23 UNK        -0.2404 
    126 C126       -0.8485  -15.5260  -51.1093 C.3       23 UNK        -0.0205 
    127 H127        0.1676  -11.4307  -48.8462 H         1 UNK         0.0600 
    128 H128        0.7084  -11.7436  -50.4986 H         1 UNK         0.0600 
    129 H129        0.3332  -13.0920  -49.4212 H         1 UNK         0.0600 
    130 H130        2.2203  -14.1111  -48.8314 H         1 UNK         0.3000 
    131 H131        4.7999  -12.8152  -48.8140 H         1 UNK         0.0600 
    132 H132        5.2917  -15.2567  -47.6590 H         1 UNK         0.0800 
    133 H133        3.7620  -15.6309  -48.3854 H         1 UNK         0.0800 
    134 H134        3.8877  -13.9433  -51.3078 H         1 UNK         0.0800 
    135 H135        4.6041  -15.2171  -52.2594 H         1 UNK         0.0800 
    136 H136        1.5583  -14.2958  -51.4281 H         1 UNK         0.1150 
    137 H137       -0.1683  -18.1028  -50.5278 H         1 UNK         0.1150 
    138 H138        4.0915  -17.6765  -50.7104 H         1 UNK         0.1150 
    139 H139        1.5479  -20.1323  -50.9672 H         1 UNK         0.0800 
    140 H140        3.1832  -19.8390  -50.4541 H         1 UNK         0.0800 
    141 H141       -0.3959  -20.1633  -49.7058 H         1 UNK         0.0800 
    142 H142       -0.5938  -19.3873  -48.1518 H         1 UNK         0.0800 
    143 H143        0.1446  -22.3196  -48.5623 H         1 UNK         0.0600 
    144 H144        0.1604  -20.7777  -46.2001 H         1 UNK         0.3000 
    145 H145        0.4690  -23.6641  -44.0590 H         1 UNK         0.0600 
    146 H146        2.6052  -22.4603  -43.6521 H         1 UNK         0.0600 
    147 H147        2.6384  -23.2684  -45.2122 H         1 UNK         0.0600 
    148 H148        2.3905  -21.5274  -45.1322 H         1 UNK         0.0600 
    149 H149        0.1829  -20.6780  -44.1635 H         1 UNK         0.3000 
    150 H150       -2.5239  -20.7883  -41.9172 H         1 UNK         0.0600 
    151 H151       -0.6276  -20.6806  -40.2825 H         1 UNK         0.0600 
    152 H152       -1.2769  -19.0837  -40.6167 H         1 UNK         0.0600 
    153 H153        0.2438  -19.5905  -41.3542 H         1 UNK         0.0600 
    154 H154       -1.2552  -18.5578  -43.0667 H         1 UNK         0.3000 
    155 H155       -2.2872  -18.8098  -46.4166 H         1 UNK         0.0600 
    156 H156       -3.5945  -16.7543  -46.0294 H         1 UNK         0.0600 
    157 H157       -3.6048  -17.0439  -44.2889 H         1 UNK         0.0600 
    158 H158       -4.4606  -18.1337  -45.3744 H         1 UNK         0.0600 
    159 H159       -1.2863  -16.5521  -45.1750 H         1 UNK         0.3000 
    160 H160        1.6735  -16.9085  -44.3307 H         1 UNK         0.0600 
    161 H161        2.0220  -17.0167  -47.3684 H         1 UNK         0.0600 
    162 H162        2.8522  -18.0199  -46.1898 H         1 UNK         0.0600 
    163 H163        3.1549  -16.2920  -46.2209 H         1 UNK         0.0600 
    164 H164        0.8469  -14.9184  -44.5558 H         1 UNK         0.3000 
    165 H165       -0.7653  -13.0579  -47.1697 H         1 UNK         0.0600 
    166 H166       -1.6087  -13.9481  -44.3553 H         1 UNK         0.0600 
    167 H167       -2.3162  -12.6348  -45.2900 H         1 UNK         0.0600 
    168 H168       -2.5103  -14.2924  -45.8296 H         1 UNK         0.0600 
    169 H169        1.2837  -13.0365  -45.1706 H         1 UNK         0.3000 
    170 H170        2.3732  -10.5903  -45.3269 H         1 UNK         0.0600 
    171 H171        1.0524   -8.5154  -45.4415 H         1 UNK         0.0600 
    172 H172        0.2491   -8.8904  -43.9229 H         1 UNK         0.0600 
    173 H173        1.9784   -8.5475  -43.9503 H         1 UNK         0.0600 
    174 H174        2.7382  -11.5246  -43.3471 H         1 UNK         0.3000 
    175 H175        1.8042  -11.5033  -40.4928 H         1 UNK         0.0600 
    176 H176        0.9050  -13.7292  -39.7401 H         1 UNK         0.0600 
    177 H177       -0.3669  -12.6081  -40.1924 H         1 UNK         0.0600 
    178 H178        0.0788  -13.9073  -41.2878 H         1 UNK         0.0600 
    179 H179        3.5915  -12.6389  -41.1012 H         1 UNK         0.3000 
    180 H180        4.9042  -14.3233  -41.7107 H         1 UNK         0.0600 
    181 H181        3.9105  -16.3035  -43.8222 H         1 UNK         0.0600 
    182 H182        3.8160  -16.5754  -42.0860 H         1 UNK         0.0600 
    183 H183        5.3830  -16.4204  -42.8656 H         1 UNK         0.0600 
    184 H184        5.1192  -14.3977  -44.5796 H         1 UNK         0.3000 
    185 H185        5.4626  -10.9804  -45.2175 H         1 UNK         0.0600 
    186 H186        7.7972  -11.3644  -45.9059 H         1 UNK         0.0600 
    187 H187        7.7056  -11.3418  -44.1538 H         1 UNK         0.0600 
    188 H188        7.8558  -12.8772  -44.9998 H         1 UNK         0.0600 
    189 H189        6.2553  -12.8168  -47.0110 H         1 UNK         0.3000 
    190 H190       -2.6088  -21.4766  -46.5022 H         1 UNK         0.3000 
    191 H191       -4.5764  -22.1023  -48.5773 H         1 UNK         0.0600 
    192 H192       -5.1171  -20.5868  -46.6469 H         1 UNK         0.0600 
    193 H193       -6.2125  -21.9516  -46.8011 H         1 UNK         0.0600 
    194 H194       -4.9745  -21.9679  -45.5553 H         1 UNK         0.0600 
    195 H195       -2.8982  -23.8124  -45.9316 H         1 UNK         0.3000 
    196 H196       -4.3278  -26.2851  -46.1657 H         1 UNK         0.0600 
    197 H197       -2.4791  -27.1860  -44.7751 H         1 UNK         0.0600 
    198 H198       -3.0550  -25.6597  -44.1232 H         1 UNK         0.0600 
    199 H199       -1.5394  -25.7216  -45.0196 H         1 UNK         0.0600 
    200 H200       -1.3306  -25.0358  -47.6536 H         1 UNK         0.3000 
    201 H201       -0.6076  -27.2955  -49.1830 H         1 UNK         0.0600 
    202 H202        0.8410  -25.2862  -48.8043 H         1 UNK         0.0600 
    203 H203       -0.2227  -24.3233  -49.8298 H         1 UNK         0.0600 
    204 H204        0.6955  -25.6543  -50.5171 H         1 UNK         0.0600 
    205 H205       -3.1579  -24.9418  -49.7162 H         1 UNK         0.3000 
    206 H206       -3.7910  -25.9559  -52.4381 H         1 UNK         0.0600 
    207 H207       -3.6425  -23.5014  -52.1287 H         1 UNK         0.0600 
    208 H208       -5.2944  -23.9652  -52.4945 H         1 UNK         0.0600 
    209 H209       -4.8412  -23.5698  -50.8385 H         1 UNK         0.0600 
    210 H210       -4.3130  -27.1689  -49.5181 H         1 UNK         0.3000 
    211 H211       -5.7724  -28.4447  -48.4790 H         1 UNK         0.0600 
    212 H212       -7.0736  -28.8564  -51.2229 H         1 UNK         0.0600 
    213 H213       -7.1961  -29.9322  -49.8370 H         1 UNK         0.0600 
    214 H214       -5.6493  -29.7150  -50.6368 H         1 UNK         0.0600 
    215 H215       -6.3889  -25.6155  -48.5678 H         1 UNK         0.3000 
    216 H216       -7.8079  -24.1085  -47.9126 H         1 UNK         0.0600 
    217 H217       -8.3073  -25.7029  -46.0455 H         1 UNK         0.0600 
    218 H218       -9.6702  -26.3457  -46.9623 H         1 UNK         0.0600 
    219 H219       -9.6775  -24.6737  -46.4234 H         1 UNK         0.0600 
    220 H220       -8.2497  -25.5746  -50.6714 H         1 UNK         0.3000 
    221 H221      -10.9762  -24.7708  -51.3682 H         1 UNK         0.0600 
    222 H222       -8.6400  -25.7029  -53.1199 H         1 UNK         0.0600 
    223 H223       -9.8645  -26.7555  -52.4114 H         1 UNK         0.0600 
    224 H224      -10.3205  -25.5607  -53.6172 H         1 UNK         0.0600 
    225 H225       -7.8466  -23.2933  -51.2614 H         1 UNK         0.3000 
    226 H226       -8.7267  -20.6954  -51.9209 H         1 UNK         0.0600 
    227 H227       -8.5228  -21.5602  -54.3042 H         1 UNK         0.0600 
    228 H228       -7.3488  -20.3103  -53.9698 H         1 UNK         0.0600 
    229 H229       -6.8492  -22.0021  -53.9889 H         1 UNK         0.0600 
    230 H230       -5.8205  -20.0910  -52.7314 H         1 UNK         0.3000 
    231 H231       -4.2338  -21.1699  -50.5408 H         1 UNK         0.0600 
    232 H232       -3.2822  -18.9065  -50.0057 H         1 UNK         0.0600 
    233 H233       -4.9827  -19.0023  -49.5712 H         1 UNK         0.0600 
    234 H234       -4.4938  -18.1503  -51.0360 H         1 UNK         0.0600 
    235 H235       -2.1487  -21.4648  -51.1615 H         1 UNK         0.3000 
    236 H236       -1.6614  -21.7264  -53.9569 H         1 UNK         0.0600 
    237 H237        0.4091  -22.8461  -53.1644 H         1 UNK         0.0600 
    238 H238        0.1503  -22.2204  -51.5388 H         1 UNK         0.0600 
    239 H239       -0.9784  -23.3809  -52.2334 H         1 UNK         0.0600 
    240 H240       -1.9850  -19.0084  -53.6633 H         1 UNK         0.3000 
    241 H241        0.5451  -17.6228  -53.4236 H         1 UNK         0.0600 
    242 H242       -0.6248  -19.3701  -56.1332 H         1 UNK         0.3800 
    243 H243        0.3114  -18.5135  -57.3304 H         1 UNK         0.3800 
    244 H244       -0.7098  -15.5707  -53.8680 H         1 UNK         0.0800 
    245 H245       -2.0756  -16.4699  -54.4713 H         1 UNK         0.0800 
    246 H246       -0.8002  -14.5281  -51.5476 H         1 UNK         0.0800 
    247 H247       -1.2531  -15.4020  -50.1040 H         1 UNK         0.0800 
@<TRIPOS>BOND
     1    1    2 1    
     2    1  127 1    
     3    1  128 1    
     4    1  129 1    
     5    2    3 2    
     6    2    4 am   BACKBONE|DICT|INTERRES
     7    4    5 1    
     8    4  130 1    
     9    5    6 1    
    10    5   65 1    
    11    5  131 1    
    12    6    7 1    
    13    6  132 1    
    14    6  133 1    
    15    7    8 1    
    16    8    9 1    
    17    8  134 1    
    18    8  135 1    
    19    9   10 ar   
    20    9   14 ar   
    21   10   11 ar   
    22   10  136 1    
    23   11   12 ar   
    24   11  126 1    
    25   12   13 ar   
    26   12  137 1    
    27   13   14 ar   
    28   13   15 1    
    29   14  138 1    
    30   15   16 1    
    31   15  139 1    
    32   15  140 1    
    33   16   17 1    
    34   17   18 1    
    35   17  141 1    
    36   17  142 1    
    37   18   19 1    
    38   18   67 1    
    39   18  143 1    
    40   19   20 am   BACKBONE|DICT|INTERRES
    41   19  144 1    
    42   20   21 2    
    43   20   22 1    
    44   22   23 1    
    45   22   24 1    
    46   22  145 1    
    47   23  146 1    
    48   23  147 1    
    49   23  148 1    
    50   24   25 am   BACKBONE|DICT|INTERRES
    51   24  149 1    
    52   25   26 2    
    53   25   27 1    
    54   27   28 1    
    55   27   29 1    
    56   27  150 1    
    57   28  151 1    
    58   28  152 1    
    59   28  153 1    
    60   29   30 am   BACKBONE|DICT|INTERRES
    61   29  154 1    
    62   30   31 2    
    63   30   32 1    
    64   32   33 1    
    65   32   34 1    
    66   32  155 1    
    67   33  156 1    
    68   33  157 1    
    69   33  158 1    
    70   34   35 am   BACKBONE|DICT|INTERRES
    71   34  159 1    
    72   35   36 2    
    73   35   37 1    
    74   37   38 1    
    75   37   39 1    
    76   37  160 1    
    77   38  161 1    
    78   38  162 1    
    79   38  163 1    
    80   39   40 am   BACKBONE|DICT|INTERRES
    81   39  164 1    
    82   40   41 2    
    83   40   42 1    
    84   42   43 1    
    85   42   44 1    
    86   42  165 1    
    87   43  166 1    
    88   43  167 1    
    89   43  168 1    
    90   44   45 am   BACKBONE|DICT|INTERRES
    91   44  169 1    
    92   45   46 2    
    93   45   47 1    
    94   47   48 1    
    95   47   49 1    
    96   47  170 1    
    97   48  171 1    
    98   48  172 1    
    99   48  173 1    
   100   49   50 am   BACKBONE|DICT|INTERRES
   101   49  174 1    
   102   50   51 2    
   103   50   52 1    
   104   52   53 1    
   105   52   54 1    
   106   52  175 1    
   107   53  176 1    
   108   53  177 1    
   109   53  178 1    
   110   54   55 am   BACKBONE|DICT|INTERRES
   111   54  179 1    
   112   55   56 2    
   113   55   57 1    
   114   57   58 1    
   115   57   59 1    
   116   57  180 1    
   117   58  181 1    
   118   58  182 1    
   119   58  183 1    
   120   59   60 am   BACKBONE|DICT|INTERRES
   121   59  184 1    
   122   60   61 2    
   123   60   62 1    
   124   62   63 1    
   125   62   64 1    
   126   62  185 1    
   127   63  186 1    
   128   63  187 1    
   129   63  188 1    
   130   64   65 am   BACKBONE|DICT|INTERRES
   131   64  189 1    
   132   65   66 2    
   133   67   68 2    
   134   67   69 am   BACKBONE|DICT|INTERRES
   135   69   70 1    
   136   69  190 1    
   137   70   71 1    
   138   70   72 1    
   139   70  191 1    
   140   71  192 1    
   141   71  193 1    
   142   71  194 1    
   143   72   73 2    
   144   72   74 am   BACKBONE|DICT|INTERRES
   145   74   75 1    
   146   74  195 1    
   147   75   76 1    
   148   75   77 1    
   149   75  196 1    
   150   76  197 1    
   151   76  198 1    
   152   76  199 1    
   153   77   78 2    
   154   77   79 am   BACKBONE|DICT|INTERRES
   155   79   80 1    
   156   79  200 1    
   157   80   81 1    
   158   80   82 1    
   159   80  201 1    
   160   81  202 1    
   161   81  203 1    
   162   81  204 1    
   163   82   83 2    
   164   82   84 am   BACKBONE|DICT|INTERRES
   165   84   85 1    
   166   84  205 1    
   167   85   86 1    
   168   85   87 1    
   169   85  206 1    
   170   86  207 1    
   171   86  208 1    
   172   86  209 1    
   173   87   88 2    
   174   87   89 am   BACKBONE|DICT|INTERRES
   175   89   90 1    
   176   89  210 1    
   177   90   91 1    
   178   90   92 1    
   179   90  211 1    
   180   91  212 1    
   181   91  213 1    
   182   91  214 1    
   183   92   93 2    
   184   92   94 am   BACKBONE|DICT|INTERRES
   185   94   95 1    
   186   94  215 1    
   187   95   96 1    
   188   95   97 1    
   189   95  216 1    
   190   96  217 1    
   191   96  218 1    
   192   96  219 1    
   193   97   98 2    
   194   97   99 am   BACKBONE|DICT|INTERRES
   195   99  100 1    
   196   99  220 1    
   197  100  101 1    
   198  100  102 1    
   199  100  221 1    
   200  101  222 1    
   201  101  223 1    
   202  101  224 1    
   203  102  103 2    
   204  102  104 am   BACKBONE|DICT|INTERRES
   205  104  105 1    
   206  104  225 1    
   207  105  106 1    
   208  105  107 1    
   209  105  226 1    
   210  106  227 1    
   211  106  228 1    
   212  106  229 1    
   213  107  108 2    
   214  107  109 am   BACKBONE|DICT|INTERRES
   215  109  110 1    
   216  109  230 1    
   217  110  111 1    
   218  110  112 1    
   219  110  231 1    
   220  111  232 1    
   221  111  233 1    
   222  111  234 1    
   223  112  113 2    
   224  112  114 am   BACKBONE|DICT|INTERRES
   225  114  115 1    
   226  114  235 1    
   227  115  116 1    
   228  115  117 1    
   229  115  236 1    
   230  116  237 1    
   231  116  238 1    
   232  116  239 1    
   233  117  118 2    
   234  117  119 am   BACKBONE|DICT|INTERRES
   235  119  120 1    
   236  119  240 1    
   237  120  121 1    
   238  120  124 1    
   239  120  241 1    
   240  121  122 am   BACKBONE|DICT|INTERRES
   241  121  123 2    
   242  122  242 1    
   243  122  243 1    
   244  124  125 1    
   245  124  244 1    
   246  124  245 1    
   247  125  126 1    
   248  126  246 1    
   249  126  247 1    
@<TRIPOS>SUBSTRUCTURE
     1 UNK         1 GROUP             0       ****    0 ROOT    
