@<TRIPOS>MOLECULE
3R540
247   249    1
SMALL
USER_CHARGES


@<TRIPOS>ATOM
      1 CA          4.0995  -14.2323  -44.3549 C.3       0 UNK        -0.1800 
      2 C           2.9679  -14.2946  -45.3683 C.2       0 UNK         0.5000 
      3 O           1.9545  -14.9462  -45.1149 O.2       0 UNK        -0.5000 
      4 N           3.1388  -13.6355  -46.5183 N.am      1 UNK        -0.5000 
      5 CA          2.1463  -13.5444  -47.5897 C.3       1 UNK         0.1400 
      6 C6          2.8263  -13.2297  -48.9452 C.3       23 UNK        -0.0398 
      7 S7          1.6779  -13.1970  -50.3670 S.3       23 UNK        -0.2404 
      8 C8          2.0599  -14.7523  -51.2441 C.3       23 UNK        -0.0205 
      9 C9          1.2561  -15.9683  -50.7843 C.ar      23 UNK        -0.0193 
     10 C10        -0.0873  -15.8586  -50.3988 C.ar      23 UNK        -0.1150 
     11 C11        -0.8328  -16.9976  -50.0835 C.ar      23 UNK        -0.0193 
     12 C12        -0.2309  -18.2525  -50.1770 C.ar      23 UNK        -0.1150 
     13 C13         1.1097  -18.3887  -50.5468 C.ar      23 UNK        -0.0193 
     14 C14         1.8475  -17.2365  -50.8395 C.ar      23 UNK        -0.1150 
     15 C15         1.7404  -19.7722  -50.7100 C.3       23 UNK        -0.0205 
     16 S16         1.9593  -20.6825  -49.1391 S.3       23 UNK        -0.2404 
     17 C17         0.2625  -21.2675  -48.8274 C.3       23 UNK        -0.0398 
     18 CA          0.1331  -22.5306  -47.9457 C.3       11 UNK         0.1400 
     19 N           0.5553  -22.2834  -46.5625 N.am      11 UNK        -0.5000 
     20 C           0.5512  -23.1856  -45.5707 C.2       10 UNK         0.5000 
     21 O           0.2488  -24.3679  -45.7219 O.2       10 UNK        -0.5000 
     22 CA          0.8756  -22.6699  -44.1574 C.3       10 UNK         0.1400 
     23 CB          2.3878  -22.4854  -43.9612 C.3       10 UNK        -0.1800 
     24 N           0.1709  -21.4253  -43.8457 N.am      10 UNK        -0.5000 
     25 C          -1.1609  -21.3252  -43.7228 C.2       9 UNK         0.5000 
     26 O          -1.9298  -22.2802  -43.8291 O.2       9 UNK        -0.5000 
     27 CA         -1.7379  -19.9203  -43.4745 C.3       9 UNK         0.1400 
     28 CB         -1.6315  -19.5456  -41.9889 C.3       9 UNK        -0.1800 
     29 N          -1.0886  -18.8915  -44.2843 N.am      9 UNK        -0.5000 
     30 C          -1.1251  -18.8360  -45.6223 C.2       8 UNK         0.5000 
     31 O          -1.7612  -19.6198  -46.3267 O.2       8 UNK        -0.5000 
     32 CA         -0.2508  -17.7597  -46.2895 C.3       8 UNK         0.1400 
     33 CB         -0.9434  -16.3891  -46.2653 C.3       8 UNK        -0.1800 
     34 N           1.0812  -17.6485  -45.6929 N.am      8 UNK        -0.5000 
     35 C           1.9656  -18.6529  -45.6109 C.2       7 UNK         0.5000 
     36 O           1.7533  -19.7865  -46.0317 O.2       7 UNK        -0.5000 
     37 CA          3.2874  -18.3648  -44.8877 C.3       7 UNK         0.1400 
     38 CB          4.2926  -17.6854  -45.8293 C.3       7 UNK        -0.1800 
     39 N           3.0710  -17.5624  -43.6827 N.am      7 UNK        -0.5000 
     40 C           2.5798  -18.0696  -42.5432 C.2       6 UNK         0.5000 
     41 O           2.2866  -19.2568  -42.3942 O.2       6 UNK        -0.5000 
     42 CA          2.3588  -17.0842  -41.3803 C.3       6 UNK         0.1400 
     43 CB          3.6901  -16.7596  -40.6856 C.3       6 UNK        -0.1800 
     44 N           1.7013  -15.8326  -41.7614 N.am      6 UNK        -0.5000 
     45 C           0.5028  -15.7275  -42.3477 C.2       5 UNK         0.5000 
     46 O          -0.1510  -16.6993  -42.7245 O.2       5 UNK        -0.5000 
     47 CA         -0.0826  -14.3180  -42.5745 C.3       5 UNK         0.1400 
     48 CB         -1.3316  -14.0970  -41.7011 C.3       5 UNK        -0.1800 
     49 N           0.8429  -13.1826  -42.4471 N.am      5 UNK        -0.5000 
     50 C           1.4872  -12.7204  -41.3645 C.2       4 UNK         0.5000 
     51 O           1.5076  -13.2996  -40.2795 O.2       4 UNK        -0.5000 
     52 CA          2.2423  -11.3845  -41.5236 C.3       4 UNK         0.1400 
     53 CB          3.7630  -11.6012  -41.5479 C.3       4 UNK        -0.1800 
     54 N           1.8381  -10.6642  -42.7356 N.am      4 UNK        -0.5000 
     55 C           0.8244   -9.7894  -42.7882 C.2       3 UNK         0.5000 
     56 O           0.1889   -9.4094  -41.8041 O.2       3 UNK        -0.5000 
     57 CA          0.4303   -9.2961  -44.1913 C.3       3 UNK         0.1400 
     58 CB          1.5463   -8.4505  -44.8260 C.3       3 UNK        -0.1800 
     59 N           0.0881  -10.4052  -45.0843 N.am      3 UNK        -0.5000 
     60 C          -0.9790  -11.2036  -44.9549 C.2       2 UNK         0.5000 
     61 O          -1.8012  -11.0942  -44.0460 O.2       2 UNK        -0.5000 
     62 CA         -1.1712  -12.3257  -45.9956 C.3       2 UNK         0.1400 
     63 CB         -2.0028  -11.8314  -47.1939 C.3       2 UNK        -0.1800 
     64 N           0.0565  -12.9960  -46.4475 N.am      2 UNK        -0.5000 
     65 C           1.0676  -12.5168  -47.1845 C.2       1 UNK         0.5000 
     66 O           1.1959  -11.3305  -47.4922 O.2       1 UNK        -0.5000 
     67 C          -1.3264  -23.0317  -48.0151 C.2       11 UNK         0.5000 
     68 O          -1.6096  -24.0102  -48.7138 O.2       11 UNK        -0.5000 
     69 N          -2.2213  -22.3440  -47.2890 N.am      12 UNK        -0.5000 
     70 CA         -3.6423  -22.6655  -47.1935 C.3       12 UNK         0.1400 
     71 CB         -4.3810  -21.5681  -46.4137 C.3       12 UNK        -0.1800 
     72 C          -3.8894  -24.0509  -46.5735 C.2       12 UNK         0.5000 
     73 O          -4.6392  -24.8455  -47.1419 O.2       12 UNK        -0.5000 
     74 N          -3.2179  -24.3284  -45.4477 N.am      13 UNK        -0.5000 
     75 CA         -3.2711  -25.6083  -44.7419 C.3       13 UNK         0.1400 
     76 CB         -2.5439  -25.4774  -43.3951 C.3       13 UNK        -0.1800 
     77 C          -2.6909  -26.7797  -45.5557 C.2       13 UNK         0.5000 
     78 O          -3.2138  -27.8911  -45.4633 O.2       13 UNK        -0.5000 
     79 N          -1.6279  -26.5156  -46.3286 N.am      14 UNK        -0.5000 
     80 CA         -0.9492  -27.4981  -47.1693 C.3       14 UNK         0.1400 
     81 CB          0.3828  -26.9254  -47.6808 C.3       14 UNK        -0.1800 
     82 C          -1.8186  -27.9936  -48.3363 C.2       14 UNK         0.5000 
     83 O          -2.0168  -29.2034  -48.4624 O.2       14 UNK        -0.5000 
     84 N          -2.3051  -27.0673  -49.1751 N.am      15 UNK        -0.5000 
     85 CA         -3.0096  -27.4032  -50.4168 C.3       15 UNK         0.1400 
     86 CB         -2.0100  -27.9507  -51.4627 C.3       15 UNK        -0.1800 
     87 C          -3.8265  -26.2218  -50.9681 C.2       15 UNK         0.5000 
     88 O          -3.8899  -26.0509  -52.1873 O.2       15 UNK        -0.5000 
     89 N          -4.4113  -25.3960  -50.0844 N.am      16 UNK        -0.5000 
     90 CA         -5.2146  -24.2040  -50.4150 C.3       16 UNK         0.1400 
     91 CB         -6.5367  -24.6134  -51.0974 C.3       16 UNK        -0.1800 
     92 C          -4.4408  -23.1451  -51.2362 C.2       16 UNK         0.5000 
     93 O          -5.0499  -22.3641  -51.9654 O.2       16 UNK        -0.5000 
     94 N          -3.1021  -23.1709  -51.1435 N.am      17 UNK        -0.5000 
     95 CA         -2.1427  -22.4217  -51.9604 C.3       17 UNK         0.1400 
     96 CB         -2.2353  -20.9235  -51.6379 C.3       17 UNK        -0.1800 
     97 C          -2.2458  -22.7045  -53.4770 C.2       17 UNK         0.5000 
     98 O          -1.8457  -21.8609  -54.2823 O.2       17 UNK        -0.5000 
     99 N          -2.7751  -23.8830  -53.8417 N.am      18 UNK        -0.5000 
    100 CA        -3.0213  -24.3587  -55.2029 C.3       18 UNK         0.1400 
    101 CB        -1.6870  -24.7442  -55.8807 C.3       18 UNK        -0.1800 
    102 C         -3.8823  -23.3615  -56.0087 C.2       18 UNK         0.5000 
    103 O         -5.0372  -23.1300  -55.6473 O.2       18 UNK        -0.5000 
    104 N         -3.3078  -22.7786  -57.0683 N.am      19 UNK        -0.5000 
    105 CA        -3.9568  -21.8226  -57.9650 C.3       19 UNK         0.1400 
    106 CB        -3.0720  -21.6353  -59.2074 C.3       19 UNK        -0.1800 
    107 C         -4.2769  -20.4577  -57.3226 C.2       19 UNK         0.5000 
    108 O         -5.1346  -19.7457  -57.8471 O.2       19 UNK        -0.5000 
    109 N         -3.5974  -20.1012  -56.2208 N.am      20 UNK        -0.5000 
    110 CA        -3.8178  -18.8371  -55.5104 C.3       20 UNK         0.1400 
    111 CB        -2.6005  -18.5135  -54.6328 C.3       20 UNK        -0.1800 
    112 C         -5.1230  -18.8181  -54.6890 C.2       20 UNK         0.5000 
    113 O         -5.6520  -17.7334  -54.4433 O.2       20 UNK        -0.5000 
    114 N         -5.6301  -20.0049  -54.3148 N.am      21 UNK        -0.5000 
    115 CA        -6.9046  -20.2467  -53.6265 C.3       21 UNK         0.1400 
    116 CB        -8.0845  -19.9482  -54.5753 C.3       21 UNK        -0.1800 
    117 C         -7.0235  -19.5185  -52.2679 C.2       21 UNK         0.5000 
    118 O         -8.0691  -18.9398  -51.9629 O.2       21 UNK        -0.5000 
    119 N         -5.9414  -19.5469  -51.4821 N.am      22 UNK        -0.5000 
    120 CA        -5.8760  -18.9694  -50.1327 C.3       22 UNK         0.1400 
    121 C         -6.6336  -19.8502  -49.1015 C.2       22 UNK         0.5000 
    122 N         -7.3784  -19.2457  -48.1862 N.am      22 UNK        -0.7600 
    123 O         -6.5130  -21.0731  -49.0933 O.2       22 UNK        -0.5000 
    124 C124       -4.4189  -18.7333  -49.6622 C.3       23 UNK        -0.0398 
    125 S125       -3.4566  -17.6479  -50.7794 S.3       23 UNK        -0.2404 
    126 C126       -2.2780  -16.8846  -49.6156 C.3       23 UNK        -0.0205 
    127 H127        3.7026  -14.2692  -43.3412 H         1 UNK         0.0600 
    128 H128        4.6780  -13.3151  -44.4644 H         1 UNK         0.0600 
    129 H129        4.7747  -15.0766  -44.4870 H         1 UNK         0.0600 
    130 H130        3.9875  -13.1067  -46.6623 H         1 UNK         0.3000 
    131 H131        1.6635  -14.5189  -47.6969 H         1 UNK         0.0600 
    132 H132        3.6096  -13.9637  -49.1377 H         1 UNK         0.0800 
    133 H133        3.3327  -12.2639  -48.9018 H         1 UNK         0.0800 
    134 H134        1.8424  -14.5994  -52.3018 H         1 UNK         0.0800 
    135 H135        3.1311  -14.9504  -51.1856 H         1 UNK         0.0800 
    136 H136       -0.5617  -14.8886  -50.3592 H         1 UNK         0.1150 
    137 H137       -0.8301  -19.1208  -49.9710 H         1 UNK         0.1150 
    138 H138        2.8768  -17.3306  -51.1560 H         1 UNK         0.1150 
    139 H139        1.1420  -20.3641  -51.4035 H         1 UNK         0.0800 
    140 H140        2.7217  -19.6782  -51.1772 H         1 UNK         0.0800 
    141 H141       -0.1871  -21.4556  -49.8007 H         1 UNK         0.0800 
    142 H142       -0.2917  -20.4504  -48.3673 H         1 UNK         0.0800 
    143 H143        0.7727  -23.3145  -48.3557 H         1 UNK         0.0600 
    144 H144        0.8740  -21.3379  -46.3541 H         1 UNK         0.3000 
    145 H145        0.5385  -23.4265  -43.4456 H         1 UNK         0.0600 
    146 H146        2.6164  -22.1576  -42.9469 H         1 UNK         0.0600 
    147 H147        2.9173  -23.4242  -44.1275 H         1 UNK         0.0600 
    148 H148        2.8032  -21.7510  -44.6504 H         1 UNK         0.0600 
    149 H149        0.7351  -20.5905  -43.7590 H         1 UNK         0.3000 
    150 H150       -2.7952  -19.9414  -43.7460 H         1 UNK         0.0600 
    151 H151       -2.1130  -20.2954  -41.3599 H         1 UNK         0.0600 
    152 H152       -2.1180  -18.5908  -41.7885 H         1 UNK         0.0600 
    153 H153       -0.5918  -19.4632  -41.6687 H         1 UNK         0.0600 
    154 H154       -0.5756  -18.1724  -43.7782 H         1 UNK         0.3000 
    155 H155       -0.1170  -18.0559  -47.3308 H         1 UNK         0.0600 
    156 H156       -0.9161  -15.9428  -45.2723 H         1 UNK         0.0600 
    157 H157       -1.9922  -16.4645  -46.5527 H         1 UNK         0.0600 
    158 H158       -0.4643  -15.7048  -46.9640 H         1 UNK         0.0600 
    159 H159        1.3398  -16.7399  -45.3200 H         1 UNK         0.3000 
    160 H160        3.7201  -19.3220  -44.5880 H         1 UNK         0.0600 
    161 H161        3.8867  -16.7831  -46.2834 H         1 UNK         0.0600 
    162 H162        4.5619  -18.3567  -46.6458 H         1 UNK         0.0600 
    163 H163        5.2137  -17.4242  -45.3083 H         1 UNK         0.0600 
    164 H164        3.2119  -16.5658  -43.7518 H         1 UNK         0.3000 
    165 H165        1.7106  -17.5799  -40.6548 H         1 UNK         0.0600 
    166 H166        3.5311  -16.1536  -39.7933 H         1 UNK         0.0600 
    167 H167        4.2003  -17.6712  -40.3715 H         1 UNK         0.0600 
    168 H168        4.3666  -16.2141  -41.3447 H         1 UNK         0.0600 
    169 H169        2.1145  -14.9773  -41.4144 H         1 UNK         0.3000 
    170 H170       -0.4100  -14.3025  -43.6138 H         1 UNK         0.0600 
    171 H171       -2.0773  -14.8728  -41.8801 H         1 UNK         0.0600 
    172 H172       -1.0912  -14.1158  -40.6378 H         1 UNK         0.0600 
    173 H173       -1.8022  -13.1389  -41.9227 H         1 UNK         0.0600 
    174 H174        0.9364  -12.6287  -43.2840 H         1 UNK         0.3000 
    175 H175        2.0104  -10.7824  -40.6425 H         1 UNK         0.0600 
    176 H176        4.0865  -12.1242  -42.4452 H         1 UNK         0.0600 
    177 H177        4.2916  -10.6484  -41.5131 H         1 UNK         0.0600 
    178 H178        4.0930  -12.1845  -40.6871 H         1 UNK         0.0600 
    179 H179        2.3284  -10.8898  -43.5885 H         1 UNK         0.3000 
    180 H180       -0.4529   -8.6625  -44.0853 H         1 UNK         0.0600 
    181 H181        2.4422   -9.0393  -45.0258 H         1 UNK         0.0600 
    182 H182        1.8322   -7.6259  -44.1717 H         1 UNK         0.0600 
    183 H183        1.2180   -8.0158  -45.7704 H         1 UNK         0.0600 
    184 H184        0.6793  -10.5516  -45.8991 H         1 UNK         0.3000 
    185 H185       -1.7557  -13.1025  -45.4998 H         1 UNK         0.0600 
    186 H186       -2.9622  -11.4315  -46.8634 H         1 UNK         0.0600 
    187 H187       -1.4937  -11.0402  -47.7450 H         1 UNK         0.0600 
    188 H188       -2.2120  -12.6439  -47.8899 H         1 UNK         0.0600 
    189 H189        0.1421  -13.9607  -46.1560 H         1 UNK         0.3000 
    190 H190       -1.9148  -21.5213  -46.7771 H         1 UNK         0.3000 
    191 H191       -4.0355  -22.6666  -48.2081 H         1 UNK         0.0600 
    192 H192       -4.2775  -20.6002  -46.9041 H         1 UNK         0.0600 
    193 H193       -5.4481  -21.7854  -46.3532 H         1 UNK         0.0600 
    194 H194       -4.0062  -21.4694  -45.3954 H         1 UNK         0.0600 
    195 H195       -2.6398  -23.6049  -45.0275 H         1 UNK         0.3000 
    196 H196       -4.3205  -25.8338  -44.5413 H         1 UNK         0.0600 
    197 H197       -2.5779  -26.4145  -42.8380 H         1 UNK         0.0600 
    198 H198       -3.0048  -24.7113  -42.7714 H         1 UNK         0.0600 
    199 H199       -1.4947  -25.2116  -43.5304 H         1 UNK         0.0600 
    200 H200       -1.2124  -25.5901  -46.2888 H         1 UNK         0.3000 
    201 H201       -0.7160  -28.3629  -46.5445 H         1 UNK         0.0600 
    202 H202        1.0622  -26.7160  -46.8547 H         1 UNK         0.0600 
    203 H203        0.2404  -25.9995  -48.2384 H         1 UNK         0.0600 
    204 H204        0.8861  -27.6330  -48.3408 H         1 UNK         0.0600 
    205 H205       -2.1051  -26.0868  -49.0047 H         1 UNK         0.3000 
    206 H206       -3.7385  -28.1864  -50.1992 H         1 UNK         0.0600 
    207 H207       -1.4861  -28.8351  -51.1011 H         1 UNK         0.0600 
    208 H208       -2.5182  -28.2445  -52.3820 H         1 UNK         0.0600 
    209 H209       -1.2604  -27.2031  -51.7246 H         1 UNK         0.0600 
    210 H210       -4.3178  -25.5856  -49.0918 H         1 UNK         0.3000 
    211 H211       -5.4867  -23.7319  -49.4729 H         1 UNK         0.0600 
    212 H212       -6.3716  -25.0157  -52.0972 H         1 UNK         0.0600 
    213 H213       -7.2036  -23.7561  -51.1978 H         1 UNK         0.0600 
    214 H214       -7.0655  -25.3665  -50.5134 H         1 UNK         0.0600 
    215 H215       -2.6914  -23.8162  -50.4781 H         1 UNK         0.3000 
    216 H216       -1.1544  -22.7691  -51.6572 H         1 UNK         0.0600 
    217 H217       -1.3906  -20.3767  -52.0574 H         1 UNK         0.0600 
    218 H218       -2.2317  -20.7636  -50.5628 H         1 UNK         0.0600 
    219 H219       -3.1483  -20.4817  -52.0351 H         1 UNK         0.0600 
    220 H220       -3.1219  -24.4994  -53.1123 H         1 UNK         0.3000 
    221 H221       -3.6179  -25.2670  -55.1073 H         1 UNK         0.0600 
    222 H222       -1.0100  -23.8947  -55.9771 H         1 UNK         0.0600 
    223 H223       -1.1691  -25.5102  -55.3033 H         1 UNK         0.0600 
    224 H224       -1.8544  -25.1562  -56.8767 H         1 UNK         0.0600 
    225 H225       -2.3442  -23.0019  -57.2706 H         1 UNK         0.3000 
    226 H226       -4.9057  -22.2574  -58.2861 H         1 UNK         0.0600 
    227 H227       -2.9094  -22.5818  -59.7234 H         1 UNK         0.0600 
    228 H228       -3.5378  -20.9545  -59.9213 H         1 UNK         0.0600 
    229 H229       -2.0970  -21.2212  -58.9474 H         1 UNK         0.0600 
    230 H230       -2.9190  -20.7413  -55.8225 H         1 UNK         0.3000 
    231 H231       -3.8996  -18.0408  -56.2535 H         1 UNK         0.0600 
    232 H232       -1.6938  -18.4257  -55.2313 H         1 UNK         0.0600 
    233 H233       -2.4316  -19.2819  -53.8837 H         1 UNK         0.0600 
    234 H234       -2.7365  -17.5685  -54.1051 H         1 UNK         0.0600 
    235 H235       -5.1139  -20.8385  -54.5635 H         1 UNK         0.3000 
    236 H236       -6.9370  -21.3138  -53.4055 H         1 UNK         0.0600 
    237 H237       -9.0332  -20.2429  -54.1252 H         1 UNK         0.0600 
    238 H238       -8.1516  -18.8870  -54.8169 H         1 UNK         0.0600 
    239 H239       -7.9855  -20.4992  -55.5107 H         1 UNK         0.0600 
    240 H240       -5.1670  -20.1317  -51.7653 H         1 UNK         0.3000 
    241 H241       -6.3666  -17.9945  -50.1703 H         1 UNK         0.0600 
    242 H242       -7.8624  -19.8082  -47.5042 H         1 UNK         0.3800 
    243 H243       -7.4920  -18.2440  -48.1696 H         1 UNK         0.3800 
    244 H244       -3.8947  -19.6813  -49.5461 H         1 UNK         0.0800 
    245 H245       -4.4355  -18.2797  -48.6696 H         1 UNK         0.0800 
    246 H246       -2.3515  -17.3722  -48.6445 H         1 UNK         0.0800 
    247 H247       -2.5580  -15.8418  -49.4592 H         1 UNK         0.0800 
@<TRIPOS>BOND
     1    1    2 1    
     2    1  127 1    
     3    1  128 1    
     4    1  129 1    
     5    2    3 2    
     6    2    4 am   BACKBONE|DICT|INTERRES
     7    4    5 1    
     8    4  130 1    
     9    5    6 1    
    10    5   65 1    
    11    5  131 1    
    12    6    7 1    
    13    6  132 1    
    14    6  133 1    
    15    7    8 1    
    16    8    9 1    
    17    8  134 1    
    18    8  135 1    
    19    9   10 ar   
    20    9   14 ar   
    21   10   11 ar   
    22   10  136 1    
    23   11   12 ar   
    24   11  126 1    
    25   12   13 ar   
    26   12  137 1    
    27   13   14 ar   
    28   13   15 1    
    29   14  138 1    
    30   15   16 1    
    31   15  139 1    
    32   15  140 1    
    33   16   17 1    
    34   17   18 1    
    35   17  141 1    
    36   17  142 1    
    37   18   19 1    
    38   18   67 1    
    39   18  143 1    
    40   19   20 am   BACKBONE|DICT|INTERRES
    41   19  144 1    
    42   20   21 2    
    43   20   22 1    
    44   22   23 1    
    45   22   24 1    
    46   22  145 1    
    47   23  146 1    
    48   23  147 1    
    49   23  148 1    
    50   24   25 am   BACKBONE|DICT|INTERRES
    51   24  149 1    
    52   25   26 2    
    53   25   27 1    
    54   27   28 1    
    55   27   29 1    
    56   27  150 1    
    57   28  151 1    
    58   28  152 1    
    59   28  153 1    
    60   29   30 am   BACKBONE|DICT|INTERRES
    61   29  154 1    
    62   30   31 2    
    63   30   32 1    
    64   32   33 1    
    65   32   34 1    
    66   32  155 1    
    67   33  156 1    
    68   33  157 1    
    69   33  158 1    
    70   34   35 am   BACKBONE|DICT|INTERRES
    71   34  159 1    
    72   35   36 2    
    73   35   37 1    
    74   37   38 1    
    75   37   39 1    
    76   37  160 1    
    77   38  161 1    
    78   38  162 1    
    79   38  163 1    
    80   39   40 am   BACKBONE|DICT|INTERRES
    81   39  164 1    
    82   40   41 2    
    83   40   42 1    
    84   42   43 1    
    85   42   44 1    
    86   42  165 1    
    87   43  166 1    
    88   43  167 1    
    89   43  168 1    
    90   44   45 am   BACKBONE|DICT|INTERRES
    91   44  169 1    
    92   45   46 2    
    93   45   47 1    
    94   47   48 1    
    95   47   49 1    
    96   47  170 1    
    97   48  171 1    
    98   48  172 1    
    99   48  173 1    
   100   49   50 am   BACKBONE|DICT|INTERRES
   101   49  174 1    
   102   50   51 2    
   103   50   52 1    
   104   52   53 1    
   105   52   54 1    
   106   52  175 1    
   107   53  176 1    
   108   53  177 1    
   109   53  178 1    
   110   54   55 am   BACKBONE|DICT|INTERRES
   111   54  179 1    
   112   55   56 2    
   113   55   57 1    
   114   57   58 1    
   115   57   59 1    
   116   57  180 1    
   117   58  181 1    
   118   58  182 1    
   119   58  183 1    
   120   59   60 am   BACKBONE|DICT|INTERRES
   121   59  184 1    
   122   60   61 2    
   123   60   62 1    
   124   62   63 1    
   125   62   64 1    
   126   62  185 1    
   127   63  186 1    
   128   63  187 1    
   129   63  188 1    
   130   64   65 am   BACKBONE|DICT|INTERRES
   131   64  189 1    
   132   65   66 2    
   133   67   68 2    
   134   67   69 am   BACKBONE|DICT|INTERRES
   135   69   70 1    
   136   69  190 1    
   137   70   71 1    
   138   70   72 1    
   139   70  191 1    
   140   71  192 1    
   141   71  193 1    
   142   71  194 1    
   143   72   73 2    
   144   72   74 am   BACKBONE|DICT|INTERRES
   145   74   75 1    
   146   74  195 1    
   147   75   76 1    
   148   75   77 1    
   149   75  196 1    
   150   76  197 1    
   151   76  198 1    
   152   76  199 1    
   153   77   78 2    
   154   77   79 am   BACKBONE|DICT|INTERRES
   155   79   80 1    
   156   79  200 1    
   157   80   81 1    
   158   80   82 1    
   159   80  201 1    
   160   81  202 1    
   161   81  203 1    
   162   81  204 1    
   163   82   83 2    
   164   82   84 am   BACKBONE|DICT|INTERRES
   165   84   85 1    
   166   84  205 1    
   167   85   86 1    
   168   85   87 1    
   169   85  206 1    
   170   86  207 1    
   171   86  208 1    
   172   86  209 1    
   173   87   88 2    
   174   87   89 am   BACKBONE|DICT|INTERRES
   175   89   90 1    
   176   89  210 1    
   177   90   91 1    
   178   90   92 1    
   179   90  211 1    
   180   91  212 1    
   181   91  213 1    
   182   91  214 1    
   183   92   93 2    
   184   92   94 am   BACKBONE|DICT|INTERRES
   185   94   95 1    
   186   94  215 1    
   187   95   96 1    
   188   95   97 1    
   189   95  216 1    
   190   96  217 1    
   191   96  218 1    
   192   96  219 1    
   193   97   98 2    
   194   97   99 am   BACKBONE|DICT|INTERRES
   195   99  100 1    
   196   99  220 1    
   197  100  101 1    
   198  100  102 1    
   199  100  221 1    
   200  101  222 1    
   201  101  223 1    
   202  101  224 1    
   203  102  103 2    
   204  102  104 am   BACKBONE|DICT|INTERRES
   205  104  105 1    
   206  104  225 1    
   207  105  106 1    
   208  105  107 1    
   209  105  226 1    
   210  106  227 1    
   211  106  228 1    
   212  106  229 1    
   213  107  108 2    
   214  107  109 am   BACKBONE|DICT|INTERRES
   215  109  110 1    
   216  109  230 1    
   217  110  111 1    
   218  110  112 1    
   219  110  231 1    
   220  111  232 1    
   221  111  233 1    
   222  111  234 1    
   223  112  113 2    
   224  112  114 am   BACKBONE|DICT|INTERRES
   225  114  115 1    
   226  114  235 1    
   227  115  116 1    
   228  115  117 1    
   229  115  236 1    
   230  116  237 1    
   231  116  238 1    
   232  116  239 1    
   233  117  118 2    
   234  117  119 am   BACKBONE|DICT|INTERRES
   235  119  120 1    
   236  119  240 1    
   237  120  121 1    
   238  120  124 1    
   239  120  241 1    
   240  121  122 am   BACKBONE|DICT|INTERRES
   241  121  123 2    
   242  122  242 1    
   243  122  243 1    
   244  124  125 1    
   245  124  244 1    
   246  124  245 1    
   247  125  126 1    
   248  126  246 1    
   249  126  247 1    
@<TRIPOS>SUBSTRUCTURE
     1 UNK         1 GROUP             0       ****    0 ROOT    
