@<TRIPOS>MOLECULE
3R540
247   249    1
SMALL
USER_CHARGES


@<TRIPOS>ATOM
      1 CA         -1.6546  -13.5044  -41.8070 C.3       0 UNK        -0.1800 
      2 C          -2.4862  -13.3637  -43.0746 C.2       0 UNK         0.5000 
      3 O          -3.5178  -12.6914  -43.0594 O.2       0 UNK        -0.5000 
      4 N          -2.0426  -13.9972  -44.1674 N.am      1 UNK        -0.5000 
      5 CA         -2.6579  -13.9112  -45.4976 C.3       1 UNK         0.1400 
      6 C6         -2.1190  -14.9951  -46.4686 C.3       23 UNK        -0.0398 
      7 S7         -2.1735  -16.6876  -45.7871 S.3       23 UNK        -0.2404 
      8 C8         -0.4077  -17.1461  -45.8751 C.3       23 UNK        -0.0205 
      9 C9          0.0917  -17.6661  -47.2216 C.ar      23 UNK        -0.0193 
     10 C10        -0.6106  -17.4882  -48.4211 C.ar      23 UNK        -0.1150 
     11 C11        -0.1000  -17.9789  -49.6253 C.ar      23 UNK        -0.0193 
     12 C12         1.1268  -18.6457  -49.6331 C.ar      23 UNK        -0.1150 
     13 C13         1.8456  -18.8201  -48.4495 C.ar      23 UNK        -0.0193 
     14 C14         1.3186  -18.3367  -47.2493 C.ar      23 UNK        -0.1150 
     15 C15         3.2099  -19.4905  -48.4728 C.3       23 UNK        -0.0205 
     16 S16         3.2112  -21.1028  -47.6358 S.3       23 UNK        -0.2404 
     17 C17         2.2305  -22.1462  -48.7703 C.3       23 UNK        -0.0398 
     18 CA          1.0892  -22.9300  -48.0741 C.3       11 UNK         0.1400 
     19 N           1.5416  -23.5789  -46.8391 N.am      11 UNK        -0.5000 
     20 C           0.8577  -24.4749  -46.1178 C.2       10 UNK         0.5000 
     21 O          -0.2432  -24.9166  -46.4482 O.2       10 UNK        -0.5000 
     22 CA          1.4873  -24.9059  -44.7777 C.3       10 UNK         0.1400 
     23 CB          2.2774  -26.2111  -44.9537 C.3       10 UNK        -0.1800 
     24 N           2.3603  -23.8938  -44.1648 N.am      10 UNK        -0.5000 
     25 C           1.9617  -22.6779  -43.7645 C.2       9 UNK         0.5000 
     26 O           0.8233  -22.2450  -43.9472 O.2       9 UNK        -0.5000 
     27 CA          3.0195  -21.7890  -43.0845 C.3       9 UNK         0.1400 
     28 CB          3.7242  -20.8943  -44.1128 C.3       9 UNK        -0.1800 
     29 N           2.4189  -20.9389  -42.0582 N.am      9 UNK        -0.5000 
     30 C           2.0481  -21.3705  -40.8441 C.2       8 UNK         0.5000 
     31 O           2.2206  -22.5264  -40.4539 O.2       8 UNK        -0.5000 
     32 CA          1.3981  -20.3491  -39.8875 C.3       8 UNK         0.1400 
     33 CB          2.4233  -19.8557  -38.8543 C.3       8 UNK        -0.1800 
     34 N           0.8300  -19.1888  -40.5727 N.am      8 UNK        -0.5000 
     35 C          -0.2984  -19.2014  -41.2943 C.2       7 UNK         0.5000 
     36 O          -1.0325  -20.1848  -41.3887 O.2       7 UNK        -0.5000 
     37 CA         -0.6773  -17.8999  -42.0325 C.3       7 UNK         0.1400 
     38 CB         -1.8963  -17.2346  -41.3755 C.3       7 UNK        -0.1800 
     39 N           0.4060  -16.9118  -42.1334 N.am      7 UNK        -0.5000 
     40 C           1.5356  -17.0634  -42.8394 C.2       6 UNK         0.5000 
     41 O           1.8122  -18.0901  -43.4585 O.2       6 UNK        -0.5000 
     42 CA          2.5221  -15.8813  -42.7937 C.3       6 UNK         0.1400 
     43 CB          3.8366  -16.2742  -42.0908 C.3       6 UNK        -0.1800 
     44 N           2.7572  -15.2653  -44.1067 N.am      6 UNK        -0.5000 
     45 C           3.4530  -15.7339  -45.1557 C.2       5 UNK         0.5000 
     46 O           4.0241  -16.8237  -45.1798 O.2       5 UNK        -0.5000 
     47 CA          3.5682  -14.8026  -46.3842 C.3       5 UNK         0.1400 
     48 CB          3.3084  -15.5371  -47.7097 C.3       5 UNK        -0.1800 
     49 N           2.6708  -13.6465  -46.3303 N.am      5 UNK        -0.5000 
     50 C           3.0093  -12.4114  -45.9395 C.2       4 UNK         0.5000 
     51 O           4.1030  -12.1284  -45.4484 O.2       4 UNK        -0.5000 
     52 CA          1.9325  -11.3194  -46.1314 C.3       4 UNK         0.1400 
     53 CB          2.5259   -9.8994  -46.2399 C.3       4 UNK        -0.1800 
     54 N           1.0175  -11.5953  -47.2490 N.am      4 UNK        -0.5000 
     55 C           1.3232  -11.6902  -48.5555 C.2       3 UNK         0.5000 
     56 O           2.4565  -11.5192  -49.0053 O.2       3 UNK        -0.5000 
     57 CA          0.1877  -12.0721  -49.5319 C.3       3 UNK         0.1400 
     58 CB          0.3740  -13.5195  -50.0192 C.3       3 UNK        -0.1800 
     59 N          -1.1541  -11.9506  -48.9601 N.am      3 UNK        -0.5000 
     60 C          -1.7837  -10.8020  -48.6744 C.2       2 UNK         0.5000 
     61 O          -1.3395   -9.6896  -48.9590 O.2       2 UNK        -0.5000 
     62 CA         -3.1183  -10.9192  -47.9035 C.3       2 UNK         0.1400 
     63 CB         -4.3075  -10.8150  -48.8705 C.3       2 UNK        -0.1800 
     64 N          -3.2493  -12.1535  -47.1144 N.am      2 UNK        -0.5000 
     65 C          -2.4286  -12.5162  -46.1178 C.2       1 UNK         0.5000 
     66 O          -1.4670  -11.8340  -45.7539 O.2       1 UNK        -0.5000 
     67 C          -0.1912  -22.0808  -47.8982 C.2       11 UNK         0.5000 
     68 O          -0.9171  -21.8921  -48.8736 O.2       11 UNK        -0.5000 
     69 N          -0.5039  -21.6638  -46.6612 N.am      12 UNK        -0.5000 
     70 CA         -1.7586  -21.0004  -46.2986 C.3       12 UNK         0.1400 
     71 CB         -1.6553  -20.5032  -44.8493 C.3       12 UNK        -0.1800 
     72 C          -2.9979  -21.9099  -46.4438 C.2       12 UNK         0.5000 
     73 O          -4.1133  -21.3967  -46.5163 O.2       12 UNK        -0.5000 
     74 N          -2.7897  -23.2337  -46.4673 N.am      13 UNK        -0.5000 
     75 CA         -3.8313  -24.2506  -46.5925 C.3       13 UNK         0.1400 
     76 CB         -3.6488  -25.2754  -45.4601 C.3       13 UNK        -0.1800 
     77 C          -3.8133  -24.9382  -47.9712 C.2       13 UNK         0.5000 
     78 O          -4.5368  -25.9193  -48.1519 O.2       13 UNK        -0.5000 
     79 N          -3.0076  -24.4381  -48.9221 N.am      14 UNK        -0.5000 
     80 CA         -2.8744  -24.9733  -50.2798 C.3       14 UNK         0.1400 
     81 CB         -1.7051  -24.2688  -50.9845 C.3       14 UNK        -0.1800 
     82 C          -4.1890  -24.8259  -51.0698 C.2       14 UNK         0.5000 
     83 O          -4.5017  -23.7299  -51.5365 O.2       14 UNK        -0.5000 
     84 N          -4.9540  -25.9224  -51.1570 N.am      15 UNK        -0.5000 
     85 CA         -6.3388  -25.9869  -51.6425 C.3       15 UNK         0.1400 
     86 CB         -6.4370  -25.6179  -53.1380 C.3       15 UNK        -0.1800 
     87 C          -7.3098  -25.1834  -50.7485 C.2       15 UNK         0.5000 
     88 O          -8.2489  -24.5638  -51.2506 O.2       15 UNK        -0.5000 
     89 N          -7.0428  -25.1958  -49.4327 N.am      16 UNK        -0.5000 
     90 CA         -7.7607  -24.5625  -48.3175 C.3       16 UNK         0.1400 
     91 CB         -9.2102  -25.0740  -48.2200 C.3       16 UNK        -0.1800 
     92 C          -7.7147  -23.0220  -48.3046 C.2       16 UNK         0.5000 
     93 O          -7.5190  -22.4345  -47.2416 O.2       16 UNK        -0.5000 
     94 N          -7.8908  -22.3980  -49.4727 N.am      17 UNK        -0.5000 
     95 CA         -7.9370  -20.9485  -49.6686 C.3       17 UNK         0.1400 
     96 CB         -8.8726  -20.6620  -50.8555 C.3       17 UNK        -0.1800 
     97 C          -6.5522  -20.3138  -49.9097 C.2       17 UNK         0.5000 
     98 O          -6.4799  -19.0956  -50.0716 O.2       17 UNK        -0.5000 
     99 N          -5.4981  -21.1423  -49.9860 N.am      18 UNK        -0.5000 
    100 CA        -4.1182  -20.8146  -50.3835 C.3       18 UNK         0.1400 
    101 CB        -3.5372  -19.6587  -49.5469 C.3       18 UNK        -0.1800 
    102 C         -3.9746  -20.5636  -51.9028 C.2       18 UNK         0.5000 
    103 O         -2.9069  -20.1589  -52.3681 O.2       18 UNK        -0.5000 
    104 N         -5.0456  -20.8346  -52.6611 N.am      19 UNK        -0.5000 
    105 CA        -5.1688  -20.6110  -54.0984 C.3       19 UNK         0.1400 
    106 CB        -6.6159  -20.9023  -54.5229 C.3       19 UNK        -0.1800 
    107 C         -4.1834  -21.4359  -54.9413 C.2       19 UNK         0.5000 
    108 O         -3.7451  -20.9578  -55.9869 O.2       19 UNK        -0.5000 
    109 N         -3.8216  -22.6378  -54.4717 N.am      20 UNK        -0.5000 
    110 CA        -2.8450  -23.4936  -55.1493 C.3       20 UNK         0.1400 
    111 CB        -3.0600  -24.9565  -54.7360 C.3       20 UNK        -0.1800 
    112 C         -1.3856  -23.0463  -54.9284 C.2       20 UNK         0.5000 
    113 O         -0.5132  -23.4815  -55.6812 O.2       20 UNK        -0.5000 
    114 N         -1.1398  -22.1905  -53.9254 N.am      21 UNK        -0.5000 
    115 CA         0.1726  -21.6111  -53.6471 C.3       21 UNK         0.1400 
    116 CB         0.4022  -21.5327  -52.1299 C.3       21 UNK        -0.1800 
    117 C          0.3270  -20.2323  -54.3090 C.2       21 UNK         0.5000 
    118 O          1.3152  -20.0131  -55.0112 O.2       21 UNK        -0.5000 
    119 N         -0.6390  -19.3323  -54.0792 N.am      22 UNK        -0.5000 
    120 CA        -0.6044  -17.9448  -54.5816 C.3       22 UNK         0.1400 
    121 C         -1.2550  -17.7462  -55.9809 C.2       22 UNK         0.5000 
    122 N         -1.9534  -18.7176  -56.5524 N.am      22 UNK        -0.7600 
    123 O         -1.1053  -16.6834  -56.5779 O.2       22 UNK        -0.5000 
    124 C124       -1.1772  -16.9407  -53.5471 C.3       23 UNK        -0.0398 
    125 S125       -0.0759  -16.7300  -52.1061 S.3       23 UNK        -0.2404 
    126 C126       -0.8904  -17.8268  -50.9134 C.3       23 UNK        -0.0205 
    127 H127       -2.2303  -14.0122  -41.0333 H         1 UNK         0.0600 
    128 H128       -1.3741  -12.5198  -41.4328 H         1 UNK         0.0600 
    129 H129       -0.7407  -14.0710  -41.9830 H         1 UNK         0.0600 
    130 H130       -1.1938  -14.5377  -44.1174 H         1 UNK         0.3000 
    131 H131       -3.7335  -14.0590  -45.3788 H         1 UNK         0.0600 
    132 H132       -2.7074  -15.0001  -47.3877 H         1 UNK         0.0800 
    133 H133       -1.0961  -14.7653  -46.7728 H         1 UNK         0.0800 
    134 H134       -0.2360  -17.9246  -45.1385 H         1 UNK         0.0800 
    135 H135        0.2103  -16.3030  -45.5661 H         1 UNK         0.0800 
    136 H136       -1.5618  -16.9791  -48.4310 H         1 UNK         0.1150 
    137 H137        1.5243  -19.0155  -50.5670 H         1 UNK         0.1150 
    138 H138        1.8787  -18.4693  -46.3329 H         1 UNK         0.1150 
    139 H139        3.5715  -19.6121  -49.4950 H         1 UNK         0.0800 
    140 H140        3.9290  -18.8430  -47.9699 H         1 UNK         0.0800 
    141 H141        2.9209  -22.8559  -49.2276 H         1 UNK         0.0800 
    142 H142        1.8456  -21.5465  -49.5953 H         1 UNK         0.0800 
    143 H143        0.8065  -23.7374  -48.7518 H         1 UNK         0.0600 
    144 H144        2.4252  -23.2497  -46.4772 H         1 UNK         0.3000 
    145 H145        0.6660  -25.0953  -44.0835 H         1 UNK         0.0600 
    146 H146        2.6448  -26.5829  -43.9970 H         1 UNK         0.0600 
    147 H147        1.6501  -26.9928  -45.3845 H         1 UNK         0.0600 
    148 H148        3.1345  -26.0765  -45.6147 H         1 UNK         0.0600 
    149 H149        3.3159  -24.1736  -43.9960 H         1 UNK         0.3000 
    150 H150        3.7697  -22.4275  -42.6132 H         1 UNK         0.0600 
    151 H151        4.2668  -21.4941  -44.8437 H         1 UNK         0.0600 
    152 H152        4.4478  -20.2334  -43.6353 H         1 UNK         0.0600 
    153 H153        3.0138  -20.2697  -44.6567 H         1 UNK         0.0600 
    154 H154        2.1883  -19.9939  -42.3400 H         1 UNK         0.3000 
    155 H155        0.5959  -20.8631  -39.3538 H         1 UNK         0.0600 
    156 H156        3.2480  -19.3221  -39.3288 H         1 UNK         0.0600 
    157 H157        2.8502  -20.6908  -38.2973 H         1 UNK         0.0600 
    158 H158        1.9618  -19.1857  -38.1286 H         1 UNK         0.0600 
    159 H159        1.3652  -18.3346  -40.5388 H         1 UNK         0.3000 
    160 H160       -0.9684  -18.1903  -43.0410 H         1 UNK         0.0600 
    161 H161       -1.6599  -16.8459  -40.3844 H         1 UNK         0.0600 
    162 H162       -2.7183  -17.9429  -41.2634 H         1 UNK         0.0600 
    163 H163       -2.2683  -16.4115  -41.9851 H         1 UNK         0.0600 
    164 H164        0.2724  -16.0613  -41.6068 H         1 UNK         0.3000 
    165 H165        2.0693  -15.0931  -42.1900 H         1 UNK         0.0600 
    166 H166        4.3387  -17.1023  -42.5920 H         1 UNK         0.0600 
    167 H167        4.5305  -15.4345  -42.0519 H         1 UNK         0.0600 
    168 H168        3.6480  -16.5882  -41.0636 H         1 UNK         0.0600 
    169 H169        2.3483  -14.3502  -44.2255 H         1 UNK         0.3000 
    170 H170        4.6045  -14.4590  -46.4040 H         1 UNK         0.0600 
    171 H171        3.9189  -16.4355  -47.7980 H         1 UNK         0.0600 
    172 H172        2.2639  -15.8283  -47.8097 H         1 UNK         0.0600 
    173 H173        3.5515  -14.9002  -48.5605 H         1 UNK         0.0600 
    174 H174        1.7488  -13.7799  -46.7169 H         1 UNK         0.3000 
    175 H175        1.3186  -11.3459  -45.2300 H         1 UNK         0.0600 
    176 H176        3.2181   -9.8106  -47.0775 H         1 UNK         0.0600 
    177 H177        1.7412   -9.1545  -46.3723 H         1 UNK         0.0600 
    178 H178        3.0738   -9.6341  -45.3351 H         1 UNK         0.0600 
    179 H179        0.0492  -11.7219  -46.9701 H         1 UNK         0.3000 
    180 H180        0.2571  -11.4050  -50.3936 H         1 UNK         0.0600 
    181 H181       -0.3778  -13.7864  -50.7622 H         1 UNK         0.0600 
    182 H182        0.3044  -14.2369  -49.2003 H         1 UNK         0.0600 
    183 H183        1.3497  -13.6549  -50.4878 H         1 UNK         0.0600 
    184 H184       -1.6178  -12.8128  -48.7203 H         1 UNK         0.3000 
    185 H185       -3.1659  -10.0768  -47.2102 H         1 UNK         0.0600 
    186 H186       -5.2552  -10.8043  -48.3317 H         1 UNK         0.0600 
    187 H187       -4.2577   -9.8946  -49.4541 H         1 UNK         0.0600 
    188 H188       -4.3287  -11.6485  -49.5736 H         1 UNK         0.0600 
    189 H189       -4.0173  -12.7599  -47.3657 H         1 UNK         0.3000 
    190 H190        0.1226  -21.8779  -45.8927 H         1 UNK         0.3000 
    191 H191       -1.8818  -20.1373  -46.9558 H         1 UNK         0.0600 
    192 H192       -2.4401  -19.7792  -44.6281 H         1 UNK         0.0600 
    193 H193       -0.6961  -20.0256  -44.6580 H         1 UNK         0.0600 
    194 H194       -1.7526  -21.3214  -44.1342 H         1 UNK         0.0600 
    195 H195       -1.8395  -23.5845  -46.4069 H         1 UNK         0.3000 
    196 H196       -4.8198  -23.8008  -46.4803 H         1 UNK         0.0600 
    197 H197       -2.7015  -25.8085  -45.5484 H         1 UNK         0.0600 
    198 H198       -3.6706  -24.7910  -44.4838 H         1 UNK         0.0600 
    199 H199       -4.4465  -26.0192  -45.4685 H         1 UNK         0.0600 
    200 H200       -2.4638  -23.6118  -48.7103 H         1 UNK         0.3000 
    201 H201       -2.6260  -26.0337  -50.2025 H         1 UNK         0.0600 
    202 H202       -1.8907  -23.2026  -51.1143 H         1 UNK         0.0600 
    203 H203       -1.5218  -24.6936  -51.9704 H         1 UNK         0.0600 
    204 H204       -0.7823  -24.3800  -50.4170 H         1 UNK         0.0600 
    205 H205       -4.6161  -26.7665  -50.7146 H         1 UNK         0.3000 
    206 H206       -6.6448  -27.0295  -51.5470 H         1 UNK         0.0600 
    207 H207       -5.7692  -26.2371  -53.7356 H         1 UNK         0.0600 
    208 H208       -7.4473  -25.7824  -53.5141 H         1 UNK         0.0600 
    209 H209       -6.1895  -24.5728  -53.3243 H         1 UNK         0.0600 
    210 H210       -6.2017  -25.6879  -49.1436 H         1 UNK         0.3000 
    211 H211       -7.2408  -24.8930  -47.4167 H         1 UNK         0.0600 
    212 H212       -9.7005  -24.6823  -47.3280 H         1 UNK         0.0600 
    213 H213       -9.2406  -26.1617  -48.1560 H         1 UNK         0.0600 
    214 H214       -9.8100  -24.7711  -49.0786 H         1 UNK         0.0600 
    215 H215       -8.0657  -22.9825  -50.2871 H         1 UNK         0.3000 
    216 H216       -8.3601  -20.4767  -48.7793 H         1 UNK         0.0600 
    217 H217       -8.5012  -21.1105  -51.7778 H         1 UNK         0.0600 
    218 H218       -8.9762  -19.5901  -51.0289 H         1 UNK         0.0600 
    219 H219       -9.8723  -21.0561  -50.6719 H         1 UNK         0.0600 
    220 H220       -5.6797  -22.1285  -49.8632 H         1 UNK         0.3000 
    221 H221       -3.5263  -21.7002  -50.1546 H         1 UNK         0.0600 
    222 H222       -3.8494  -19.7150  -48.5059 H         1 UNK         0.0600 
    223 H223       -3.8426  -18.6847  -49.9295 H         1 UNK         0.0600 
    224 H224       -2.4491  -19.6962  -49.5569 H         1 UNK         0.0600 
    225 H225       -5.8531  -21.2167  -52.1943 H         1 UNK         0.3000 
    226 H226       -4.9590  -19.5563  -54.2880 H         1 UNK         0.0600 
    227 H227       -6.8956  -21.9362  -54.3155 H         1 UNK         0.0600 
    228 H228       -7.3185  -20.2525  -54.0007 H         1 UNK         0.0600 
    229 H229       -6.7518  -20.7327  -55.5919 H         1 UNK         0.0600 
    230 H230       -4.1921  -22.9579  -53.5837 H         1 UNK         0.3000 
    231 H231       -3.0248  -23.4389  -56.2254 H         1 UNK         0.0600 
    232 H232       -2.9958  -25.0913  -53.6596 H         1 UNK         0.0600 
    233 H233       -2.3158  -25.6091  -55.1940 H         1 UNK         0.0600 
    234 H234       -4.0381  -25.3092  -55.0609 H         1 UNK         0.0600 
    235 H235       -1.9161  -21.8360  -53.3818 H         1 UNK         0.3000 
    236 H236        0.9575  -22.2535  -54.0522 H         1 UNK         0.0600 
    237 H237        0.5025  -22.5284  -51.6995 H         1 UNK         0.0600 
    238 H238        1.3217  -20.9923  -51.9048 H         1 UNK         0.0600 
    239 H239       -0.4144  -21.0304  -51.6125 H         1 UNK         0.0600 
    240 H240       -1.4317  -19.5861  -53.4970 H         1 UNK         0.3000 
    241 H241        0.4401  -17.6646  -54.7327 H         1 UNK         0.0600 
    242 H242       -2.3533  -18.5574  -57.4630 H         1 UNK         0.3800 
    243 H243       -2.1512  -19.5900  -56.0810 H         1 UNK         0.3800 
    244 H244       -2.1745  -17.2446  -53.2244 H         1 UNK         0.0800 
    245 H245       -1.2944  -15.9499  -53.9898 H         1 UNK         0.0800 
    246 H246       -1.8939  -17.4493  -50.7143 H         1 UNK         0.0800 
    247 H247       -1.0074  -18.8117  -51.3580 H         1 UNK         0.0800 
@<TRIPOS>BOND
     1    1    2 1    
     2    1  127 1    
     3    1  128 1    
     4    1  129 1    
     5    2    3 2    
     6    2    4 am   BACKBONE|DICT|INTERRES
     7    4    5 1    
     8    4  130 1    
     9    5    6 1    
    10    5   65 1    
    11    5  131 1    
    12    6    7 1    
    13    6  132 1    
    14    6  133 1    
    15    7    8 1    
    16    8    9 1    
    17    8  134 1    
    18    8  135 1    
    19    9   10 ar   
    20    9   14 ar   
    21   10   11 ar   
    22   10  136 1    
    23   11   12 ar   
    24   11  126 1    
    25   12   13 ar   
    26   12  137 1    
    27   13   14 ar   
    28   13   15 1    
    29   14  138 1    
    30   15   16 1    
    31   15  139 1    
    32   15  140 1    
    33   16   17 1    
    34   17   18 1    
    35   17  141 1    
    36   17  142 1    
    37   18   19 1    
    38   18   67 1    
    39   18  143 1    
    40   19   20 am   BACKBONE|DICT|INTERRES
    41   19  144 1    
    42   20   21 2    
    43   20   22 1    
    44   22   23 1    
    45   22   24 1    
    46   22  145 1    
    47   23  146 1    
    48   23  147 1    
    49   23  148 1    
    50   24   25 am   BACKBONE|DICT|INTERRES
    51   24  149 1    
    52   25   26 2    
    53   25   27 1    
    54   27   28 1    
    55   27   29 1    
    56   27  150 1    
    57   28  151 1    
    58   28  152 1    
    59   28  153 1    
    60   29   30 am   BACKBONE|DICT|INTERRES
    61   29  154 1    
    62   30   31 2    
    63   30   32 1    
    64   32   33 1    
    65   32   34 1    
    66   32  155 1    
    67   33  156 1    
    68   33  157 1    
    69   33  158 1    
    70   34   35 am   BACKBONE|DICT|INTERRES
    71   34  159 1    
    72   35   36 2    
    73   35   37 1    
    74   37   38 1    
    75   37   39 1    
    76   37  160 1    
    77   38  161 1    
    78   38  162 1    
    79   38  163 1    
    80   39   40 am   BACKBONE|DICT|INTERRES
    81   39  164 1    
    82   40   41 2    
    83   40   42 1    
    84   42   43 1    
    85   42   44 1    
    86   42  165 1    
    87   43  166 1    
    88   43  167 1    
    89   43  168 1    
    90   44   45 am   BACKBONE|DICT|INTERRES
    91   44  169 1    
    92   45   46 2    
    93   45   47 1    
    94   47   48 1    
    95   47   49 1    
    96   47  170 1    
    97   48  171 1    
    98   48  172 1    
    99   48  173 1    
   100   49   50 am   BACKBONE|DICT|INTERRES
   101   49  174 1    
   102   50   51 2    
   103   50   52 1    
   104   52   53 1    
   105   52   54 1    
   106   52  175 1    
   107   53  176 1    
   108   53  177 1    
   109   53  178 1    
   110   54   55 am   BACKBONE|DICT|INTERRES
   111   54  179 1    
   112   55   56 2    
   113   55   57 1    
   114   57   58 1    
   115   57   59 1    
   116   57  180 1    
   117   58  181 1    
   118   58  182 1    
   119   58  183 1    
   120   59   60 am   BACKBONE|DICT|INTERRES
   121   59  184 1    
   122   60   61 2    
   123   60   62 1    
   124   62   63 1    
   125   62   64 1    
   126   62  185 1    
   127   63  186 1    
   128   63  187 1    
   129   63  188 1    
   130   64   65 am   BACKBONE|DICT|INTERRES
   131   64  189 1    
   132   65   66 2    
   133   67   68 2    
   134   67   69 am   BACKBONE|DICT|INTERRES
   135   69   70 1    
   136   69  190 1    
   137   70   71 1    
   138   70   72 1    
   139   70  191 1    
   140   71  192 1    
   141   71  193 1    
   142   71  194 1    
   143   72   73 2    
   144   72   74 am   BACKBONE|DICT|INTERRES
   145   74   75 1    
   146   74  195 1    
   147   75   76 1    
   148   75   77 1    
   149   75  196 1    
   150   76  197 1    
   151   76  198 1    
   152   76  199 1    
   153   77   78 2    
   154   77   79 am   BACKBONE|DICT|INTERRES
   155   79   80 1    
   156   79  200 1    
   157   80   81 1    
   158   80   82 1    
   159   80  201 1    
   160   81  202 1    
   161   81  203 1    
   162   81  204 1    
   163   82   83 2    
   164   82   84 am   BACKBONE|DICT|INTERRES
   165   84   85 1    
   166   84  205 1    
   167   85   86 1    
   168   85   87 1    
   169   85  206 1    
   170   86  207 1    
   171   86  208 1    
   172   86  209 1    
   173   87   88 2    
   174   87   89 am   BACKBONE|DICT|INTERRES
   175   89   90 1    
   176   89  210 1    
   177   90   91 1    
   178   90   92 1    
   179   90  211 1    
   180   91  212 1    
   181   91  213 1    
   182   91  214 1    
   183   92   93 2    
   184   92   94 am   BACKBONE|DICT|INTERRES
   185   94   95 1    
   186   94  215 1    
   187   95   96 1    
   188   95   97 1    
   189   95  216 1    
   190   96  217 1    
   191   96  218 1    
   192   96  219 1    
   193   97   98 2    
   194   97   99 am   BACKBONE|DICT|INTERRES
   195   99  100 1    
   196   99  220 1    
   197  100  101 1    
   198  100  102 1    
   199  100  221 1    
   200  101  222 1    
   201  101  223 1    
   202  101  224 1    
   203  102  103 2    
   204  102  104 am   BACKBONE|DICT|INTERRES
   205  104  105 1    
   206  104  225 1    
   207  105  106 1    
   208  105  107 1    
   209  105  226 1    
   210  106  227 1    
   211  106  228 1    
   212  106  229 1    
   213  107  108 2    
   214  107  109 am   BACKBONE|DICT|INTERRES
   215  109  110 1    
   216  109  230 1    
   217  110  111 1    
   218  110  112 1    
   219  110  231 1    
   220  111  232 1    
   221  111  233 1    
   222  111  234 1    
   223  112  113 2    
   224  112  114 am   BACKBONE|DICT|INTERRES
   225  114  115 1    
   226  114  235 1    
   227  115  116 1    
   228  115  117 1    
   229  115  236 1    
   230  116  237 1    
   231  116  238 1    
   232  116  239 1    
   233  117  118 2    
   234  117  119 am   BACKBONE|DICT|INTERRES
   235  119  120 1    
   236  119  240 1    
   237  120  121 1    
   238  120  124 1    
   239  120  241 1    
   240  121  122 am   BACKBONE|DICT|INTERRES
   241  121  123 2    
   242  122  242 1    
   243  122  243 1    
   244  124  125 1    
   245  124  244 1    
   246  124  245 1    
   247  125  126 1    
   248  126  246 1    
   249  126  247 1    
@<TRIPOS>SUBSTRUCTURE
     1 UNK         1 GROUP             0       ****    0 ROOT    
