@<TRIPOS>MOLECULE
3R540
247   249    1
SMALL
USER_CHARGES


@<TRIPOS>ATOM
      1 CA         -5.2893  -20.2257  -46.7870 C.3       0 UNK        -0.1800 
      2 C          -4.2289  -19.1778  -46.4806 C.2       0 UNK         0.5000 
      3 O          -3.6885  -19.1595  -45.3778 O.2       0 UNK        -0.5000 
      4 N          -3.9469  -18.2998  -47.4517 N.am      1 UNK        -0.5000 
      5 CA         -2.8874  -17.2752  -47.4447 C.3       1 UNK         0.1400 
      6 C6         -1.4610  -17.8760  -47.5315 C.3       23 UNK        -0.0398 
      7 S7         -1.2274  -18.9409  -48.9889 S.3       23 UNK        -0.2404 
      8 C8          0.4551  -18.4805  -49.5049 C.3       23 UNK        -0.0205 
      9 C9          1.0858  -19.6123  -50.2899 C.ar      23 UNK        -0.0193 
     10 C10         0.6906  -19.8764  -51.6021 C.ar      23 UNK        -0.1150 
     11 C11         1.2046  -20.9806  -52.2869 C.ar      23 UNK        -0.0193 
     12 C12         2.1104  -21.8317  -51.6412 C.ar      23 UNK        -0.1150 
     13 C13         2.5233  -21.5644  -50.3306 C.ar      23 UNK        -0.0193 
     14 C14         2.0319  -20.4331  -49.6773 C.ar      23 UNK        -0.1150 
     15 C15         3.4908  -22.4923  -49.6078 C.3       23 UNK        -0.0205 
     16 S16         2.6293  -23.6933  -48.5363 S.3       23 UNK        -0.2404 
     17 C17         2.0300  -22.6292  -47.1741 C.3       23 UNK        -0.0398 
     18 CA          1.3199  -23.3948  -46.0279 C.3       11 UNK         0.1400 
     19 N           1.4282  -22.6385  -44.7788 N.am      11 UNK        -0.5000 
     20 C           1.5353  -23.1625  -43.5493 C.2       10 UNK         0.5000 
     21 O           1.5777  -24.3724  -43.3266 O.2       10 UNK        -0.5000 
     22 CA          1.5792  -22.1688  -42.3639 C.3       10 UNK         0.1400 
     23 CB          3.0298  -21.9145  -41.9280 C.3       10 UNK        -0.1800 
     24 N           0.9473  -20.8813  -42.6620 N.am      10 UNK        -0.5000 
     25 C          -0.3377  -20.7234  -43.0042 C.2       9 UNK         0.5000 
     26 O          -1.1585  -21.6355  -42.9347 O.2       9 UNK        -0.5000 
     27 CA         -0.7663  -19.3656  -43.5957 C.3       9 UNK         0.1400 
     28 CB         -1.7235  -18.6249  -42.6529 C.3       9 UNK        -0.1800 
     29 N           0.3446  -18.4820  -43.9607 N.am      9 UNK        -0.5000 
     30 C           1.2453  -18.7252  -44.9249 C.2       8 UNK         0.5000 
     31 O           1.2572  -19.7523  -45.6047 O.2       8 UNK        -0.5000 
     32 CA          2.3388  -17.6655  -45.1269 C.3       8 UNK         0.1400 
     33 CB          1.8179  -16.5003  -45.9726 C.3       8 UNK        -0.1800 
     34 N           2.8020  -17.1406  -43.8458 N.am      8 UNK        -0.5000 
     35 C           3.7829  -17.6855  -43.1157 C.2       7 UNK         0.5000 
     36 O           4.4334  -18.6701  -43.4665 O.2       7 UNK        -0.5000 
     37 CA          4.0750  -17.0291  -41.7532 C.3       7 UNK         0.1400 
     38 CB          5.0934  -15.8899  -41.9103 C.3       7 UNK        -0.1800 
     39 N           2.8728  -16.5106  -41.0988 N.am      7 UNK        -0.5000 
     40 C           1.8650  -17.2708  -40.6502 C.2       6 UNK         0.5000 
     41 O           1.8507  -18.4998  -40.7190 O.2       6 UNK        -0.5000 
     42 CA          0.6595  -16.5341  -40.0387 C.3       6 UNK         0.1400 
     43 CB          0.8610  -16.3523  -38.5267 C.3       6 UNK        -0.1800 
     44 N           0.3566  -15.2300  -40.6382 N.am      6 UNK        -0.5000 
     45 C           0.1075  -14.9780  -41.9320 C.2       5 UNK         0.5000 
     46 O           0.2032  -15.8259  -42.8227 O.2       5 UNK        -0.5000 
     47 CA         -0.3658  -13.5423  -42.2473 C.3       5 UNK         0.1400 
     48 CB          0.5010  -12.4663  -41.5548 C.3       5 UNK        -0.1800 
     49 N          -0.5070  -13.2481  -43.6768 N.am      5 UNK        -0.5000 
     50 C           0.4605  -13.1488  -44.6022 C.2       4 UNK         0.5000 
     51 O           1.6524  -13.3593  -44.3713 O.2       4 UNK        -0.5000 
     52 CA          0.0329  -12.6823  -46.0125 C.3       4 UNK         0.1400 
     53 CB          0.6852  -13.4983  -47.1408 C.3       4 UNK        -0.1800 
     54 N          -1.4193  -12.7170  -46.1913 N.am      4 UNK        -0.5000 
     55 C          -2.2265  -11.6473  -46.2121 C.2       3 UNK         0.5000 
     56 O          -1.8244  -10.4868  -46.1237 O.2       3 UNK        -0.5000 
     57 CA         -3.7434  -11.9064  -46.3412 C.3       3 UNK         0.1400 
     58 CB         -4.2070  -11.6630  -47.7861 C.3       3 UNK        -0.1800 
     59 N          -4.1575  -13.2520  -45.9363 N.am      3 UNK        -0.5000 
     60 C          -4.0625  -13.7552  -44.6977 C.2       2 UNK         0.5000 
     61 O          -3.6441  -13.1177  -43.7308 O.2       2 UNK        -0.5000 
     62 CA         -4.4376  -15.2404  -44.5261 C.3       2 UNK         0.1400 
     63 CB         -5.9119  -15.3819  -44.1208 C.3       2 UNK        -0.1800 
     64 N          -4.1825  -16.0736  -45.7080 N.am      2 UNK        -0.5000 
     65 C          -2.9883  -16.2410  -46.2962 C.2       1 UNK         0.5000 
     66 O          -1.9919  -15.5884  -45.9820 O.2       1 UNK        -0.5000 
     67 C          -0.1501  -23.6991  -46.4073 C.2       11 UNK         0.5000 
     68 O          -0.3637  -24.3696  -47.4157 O.2       11 UNK        -0.5000 
     69 N          -1.1407  -23.1997  -45.6453 N.am      12 UNK        -0.5000 
     70 CA         -2.5680  -23.1685  -46.0069 C.3       12 UNK         0.1400 
     71 CB         -3.3983  -22.6356  -44.8313 C.3       12 UNK        -0.1800 
     72 C          -3.1719  -24.4983  -46.4915 C.2       12 UNK         0.5000 
     73 O          -3.9621  -24.4893  -47.4349 O.2       12 UNK        -0.5000 
     74 N          -2.7713  -25.6092  -45.8598 N.am      13 UNK        -0.5000 
     75 CA         -3.2159  -26.9623  -46.1987 C.3       13 UNK         0.1400 
     76 CB         -2.7933  -27.9207  -45.0748 C.3       13 UNK        -0.1800 
     77 C          -2.6944  -27.4656  -47.5599 C.2       13 UNK         0.5000 
     78 O          -3.3545  -28.2964  -48.1852 O.2       13 UNK        -0.5000 
     79 N          -1.5292  -26.9651  -47.9900 N.am      14 UNK        -0.5000 
     80 CA         -0.9171  -27.2781  -49.2797 C.3       14 UNK         0.1400 
     81 CB          0.6114  -27.3082  -49.1213 C.3       14 UNK        -0.1800 
     82 C          -1.3317  -26.2580  -50.3522 C.2       14 UNK         0.5000 
     83 O          -1.5844  -26.6493  -51.4920 O.2       14 UNK        -0.5000 
     84 N          -1.3912  -24.9754  -49.9682 N.am      15 UNK        -0.5000 
     85 CA         -1.7621  -23.8541  -50.8276 C.3       15 UNK         0.1400 
     86 CB         -1.4524  -22.5341  -50.1023 C.3       15 UNK        -0.1800 
     87 C          -3.2362  -23.9133  -51.2633 C.2       15 UNK         0.5000 
     88 O          -3.5170  -23.8752  -52.4615 O.2       15 UNK        -0.5000 
     89 N          -4.1415  -24.0222  -50.2762 N.am      16 UNK        -0.5000 
     90 CA         -5.6017  -24.0938  -50.4104 C.3       16 UNK         0.1400 
     91 CB         -6.0110  -25.4769  -50.9567 C.3       16 UNK        -0.1800 
     92 C          -6.2117  -22.9220  -51.2148 C.2       16 UNK         0.5000 
     93 O          -7.1661  -23.1197  -51.9699 O.2       16 UNK        -0.5000 
     94 N          -5.6381  -21.7238  -51.0541 N.am      17 UNK        -0.5000 
     95 CA         -5.9548  -20.5233  -51.8200 C.3       17 UNK         0.1400 
     96 CB         -5.2370  -20.5870  -53.1844 C.3       17 UNK        -0.1800 
     97 C          -5.5280  -19.2774  -51.0294 C.2       17 UNK         0.5000 
     98 O          -4.9323  -19.3940  -49.9548 O.2       17 UNK        -0.5000 
     99 N          -5.8264  -18.0983  -51.5877 N.am      18 UNK        -0.5000 
    100 CA        -5.3178  -16.8065  -51.1245 C.3       18 UNK         0.1400 
    101 CB        -6.1206  -15.6859  -51.8070 C.3       18 UNK        -0.1800 
    102 C         -3.8026  -16.6535  -51.3837 C.2       18 UNK         0.5000 
    103 O         -3.1965  -17.4947  -52.0530 O.2       18 UNK        -0.5000 
    104 N         -3.2220  -15.5748  -50.8405 N.am      19 UNK        -0.5000 
    105 CA        -1.7937  -15.2524  -50.8773 C.3       19 UNK         0.1400 
    106 CB        -1.5652  -13.9092  -50.1657 C.3       19 UNK        -0.1800 
    107 C         -1.2019  -15.2517  -52.3029 C.2       19 UNK         0.5000 
    108 O         -1.4408  -14.3140  -53.0654 O.2       19 UNK        -0.5000 
    109 N         -0.4720  -16.3305  -52.6241 N.am      20 UNK        -0.5000 
    110 CA         0.1610  -16.6421  -53.9116 C.3       20 UNK         0.1400 
    111 CB         1.2528  -15.6065  -54.2527 C.3       20 UNK        -0.1800 
    112 C         -0.8387  -16.8624  -55.0704 C.2       20 UNK         0.5000 
    113 O         -0.4601  -16.7238  -56.2344 O.2       20 UNK        -0.5000 
    114 N         -2.0874  -17.2266  -54.7473 N.am      21 UNK        -0.5000 
    115 CA        -3.1828  -17.4134  -55.7031 C.3       21 UNK         0.1400 
    116 CB        -4.4621  -16.7983  -55.1121 C.3       21 UNK        -0.1800 
    117 C         -3.3914  -18.8907  -56.0970 C.2       21 UNK         0.5000 
    118 O         -4.4791  -19.2446  -56.5548 O.2       21 UNK        -0.5000 
    119 N         -2.3645  -19.7321  -55.9148 N.am      22 UNK        -0.5000 
    120 CA        -2.3881  -21.1742  -56.2262 C.3       22 UNK         0.1400 
    121 C         -2.5219  -21.5254  -57.7392 C.2       22 UNK         0.5000 
    122 N         -2.2683  -20.6063  -58.6633 N.am      22 UNK        -0.7600 
    123 O         -2.8616  -22.6552  -58.0799 O.2       22 UNK        -0.5000 
    124 C124       -1.1737  -21.9264  -55.6229 C.3       23 UNK        -0.0398 
    125 S125       -0.9875  -21.6858  -53.8249 S.3       23 UNK        -0.2404 
    126 C126        0.7740  -21.2431  -53.7212 C.3       23 UNK        -0.0205 
    127 H127       -4.8282  -21.1099  -47.2268 H         1 UNK         0.0600 
    128 H128       -6.0337  -19.8431  -47.4854 H         1 UNK         0.0600 
    129 H129       -5.8064  -20.5241  -45.8750 H         1 UNK         0.0600 
    130 H130       -4.3847  -18.4609  -48.3556 H         1 UNK         0.3000 
    131 H131       -3.0458  -16.6936  -48.3511 H         1 UNK         0.0600 
    132 H132       -0.7188  -17.0786  -47.5749 H         1 UNK         0.0800 
    133 H133       -1.2355  -18.4608  -46.6398 H         1 UNK         0.0800 
    134 H134        1.0600  -18.2715  -48.6235 H         1 UNK         0.0800 
    135 H135        0.4419  -17.5680  -50.0984 H         1 UNK         0.0800 
    136 H136       -0.0479  -19.2487  -52.0787 H         1 UNK         0.1150 
    137 H137        2.4933  -22.7014  -52.1561 H         1 UNK         0.1150 
    138 H138        2.3529  -20.2137  -48.6691 H         1 UNK         0.1150 
    139 H139        4.0895  -23.0416  -50.3358 H         1 UNK         0.0800 
    140 H140        4.1965  -21.9103  -49.0132 H         1 UNK         0.0800 
    141 H141        1.3608  -21.8654  -47.5692 H         1 UNK         0.0800 
    142 H142        2.8997  -22.0961  -46.7865 H         1 UNK         0.0800 
    143 H143        1.8221  -24.3553  -45.8951 H         1 UNK         0.0600 
    144 H144        1.3938  -21.6282  -44.8781 H         1 UNK         0.3000 
    145 H145        1.0406  -22.6232  -41.5301 H         1 UNK         0.0600 
    146 H146        3.0703  -21.2659  -41.0524 H         1 UNK         0.0600 
    147 H147        3.5296  -22.8478  -41.6654 H         1 UNK         0.0600 
    148 H148        3.6102  -21.4412  -42.7214 H         1 UNK         0.0600 
    149 H149        1.5506  -20.0711  -42.6871 H         1 UNK         0.3000 
    150 H150       -1.3065  -19.5924  -44.5148 H         1 UNK         0.0600 
    151 H151       -2.6215  -19.2164  -42.4701 H         1 UNK         0.0600 
    152 H152       -2.0444  -17.6747  -43.0813 H         1 UNK         0.0600 
    153 H153       -1.2592  -18.4269  -41.6893 H         1 UNK         0.0600 
    154 H154        0.3825  -17.5874  -43.4779 H         1 UNK         0.3000 
    155 H155        3.1730  -18.1270  -45.6597 H         1 UNK         0.0600 
    156 H156        1.5809  -16.8225  -46.9839 H         1 UNK         0.0600 
    157 H157        2.5650  -15.7108  -46.0534 H         1 UNK         0.0600 
    158 H158        0.9156  -16.0659  -45.5402 H         1 UNK         0.0600 
    159 H159        2.2806  -16.3610  -43.4640 H         1 UNK         0.3000 
    160 H160        4.5109  -17.7919  -41.1045 H         1 UNK         0.0600 
    161 H161        4.7018  -15.0824  -42.5305 H         1 UNK         0.0600 
    162 H162        6.0110  -16.2486  -42.3788 H         1 UNK         0.0600 
    163 H163        5.3670  -15.4687  -40.9428 H         1 UNK         0.0600 
    164 H164        2.7959  -15.5083  -41.0079 H         1 UNK         0.3000 
    165 H165       -0.2165  -17.1661  -40.1804 H         1 UNK         0.0600 
    166 H166       -0.0297  -15.9358  -38.0560 H         1 UNK         0.0600 
    167 H167        1.0652  -17.3077  -38.0412 H         1 UNK         0.0600 
    168 H168        1.6986  -15.6882  -38.3092 H         1 UNK         0.0600 
    169 H169        0.2573  -14.4672  -39.9845 H         1 UNK         0.3000 
    170 H170       -1.3746  -13.4647  -41.8394 H         1 UNK         0.0600 
    171 H171        0.4193  -12.5218  -40.4691 H         1 UNK         0.0600 
    172 H172        1.5565  -12.5691  -41.8091 H         1 UNK         0.0600 
    173 H173        0.1858  -11.4632  -41.8427 H         1 UNK         0.0600 
    174 H174       -1.4593  -13.0890  -43.9807 H         1 UNK         0.3000 
    175 H175        0.3992  -11.6582  -46.1047 H         1 UNK         0.0600 
    176 H176        0.2691  -14.5029  -47.2056 H         1 UNK         0.0600 
    177 H177        0.5269  -13.0138  -48.1034 H         1 UNK         0.0600 
    178 H178        1.7633  -13.5853  -47.0037 H         1 UNK         0.0600 
    179 H179       -1.8263  -13.6476  -46.2203 H         1 UNK         0.3000 
    180 H180       -4.2519  -11.1907  -45.6920 H         1 UNK         0.0600 
    181 H181       -3.9421  -10.6583  -48.1182 H         1 UNK         0.0600 
    182 H182       -5.2895  -11.7571  -47.8749 H         1 UNK         0.0600 
    183 H183       -3.7496  -12.3685  -48.4803 H         1 UNK         0.0600 
    184 H184       -4.5082  -13.8555  -46.6647 H         1 UNK         0.3000 
    185 H185       -3.8219  -15.6351  -43.7150 H         1 UNK         0.0600 
    186 H186       -6.1307  -14.7940  -43.2283 H         1 UNK         0.0600 
    187 H187       -6.5810  -15.0407  -44.9116 H         1 UNK         0.0600 
    188 H188       -6.1604  -16.4189  -43.8935 H         1 UNK         0.0600 
    189 H189       -4.9459  -16.6536  -46.0241 H         1 UNK         0.3000 
    190 H190       -0.8938  -22.7015  -44.7990 H         1 UNK         0.3000 
    191 H191       -2.6645  -22.4580  -46.8295 H         1 UNK         0.0600 
    192 H192       -3.1378  -21.6043  -44.6014 H         1 UNK         0.0600 
    193 H193       -3.2481  -23.2305  -43.9298 H         1 UNK         0.0600 
    194 H194       -4.4649  -22.6497  -45.0593 H         1 UNK         0.0600 
    195 H195       -2.1061  -25.5205  -45.1057 H         1 UNK         0.3000 
    196 H196       -4.3069  -26.9561  -46.2488 H         1 UNK         0.0600 
    197 H197       -3.1323  -28.9371  -45.2797 H         1 UNK         0.0600 
    198 H198       -3.2241  -27.6227  -44.1187 H         1 UNK         0.0600 
    199 H199       -1.7090  -27.9530  -44.9605 H         1 UNK         0.0600 
    200 H200       -1.0873  -26.2262  -47.4542 H         1 UNK         0.3000 
    201 H201       -1.2373  -28.2676  -49.6131 H         1 UNK         0.0600 
    202 H202        0.9171  -28.0641  -48.3980 H         1 UNK         0.0600 
    203 H203        1.0030  -26.3473  -48.7861 H         1 UNK         0.0600 
    204 H204        1.0970  -27.5475  -50.0681 H         1 UNK         0.0600 
    205 H205       -1.1083  -24.7430  -49.0188 H         1 UNK         0.3000 
    206 H206       -1.1415  -23.9008  -51.7246 H         1 UNK         0.0600 
    207 H207       -0.3925  -22.4587  -49.8585 H         1 UNK         0.0600 
    208 H208       -1.7017  -21.6761  -50.7281 H         1 UNK         0.0600 
    209 H209       -2.0132  -22.4359  -49.1732 H         1 UNK         0.0600 
    210 H210       -3.8086  -24.0927  -49.3187 H         1 UNK         0.3000 
    211 H211       -6.0039  -24.0070  -49.4002 H         1 UNK         0.0600 
    212 H212       -5.6739  -25.6196  -51.9839 H         1 UNK         0.0600 
    213 H213       -7.0945  -25.5999  -50.9454 H         1 UNK         0.0600 
    214 H214       -5.5881  -26.2788  -50.3510 H         1 UNK         0.0600 
    215 H215       -4.8978  -21.6042  -50.3751 H         1 UNK         0.3000 
    216 H216       -7.0343  -20.4672  -51.9739 H         1 UNK         0.0600 
    217 H217       -5.5045  -19.7405  -53.8165 H         1 UNK         0.0600 
    218 H218       -5.5020  -21.4896  -53.7352 H         1 UNK         0.0600 
    219 H219       -4.1520  -20.5792  -53.0664 H         1 UNK         0.0600 
    220 H220       -6.3077  -18.0924  -52.4742 H         1 UNK         0.3000 
    221 H221       -5.4801  -16.7418  -50.0466 H         1 UNK         0.0600 
    222 H222       -5.9885  -15.6910  -52.8886 H         1 UNK         0.0600 
    223 H223       -7.1866  -15.7871  -51.6021 H         1 UNK         0.0600 
    224 H224       -5.8193  -14.7020  -51.4463 H         1 UNK         0.0600 
    225 H225       -3.8070  -14.9057  -50.3635 H         1 UNK         0.3000 
    226 H226       -1.2803  -16.0165  -50.2930 H         1 UNK         0.0600 
    227 H227       -1.8387  -13.9679  -49.1119 H         1 UNK         0.0600 
    228 H228       -0.5151  -13.6190  -50.2124 H         1 UNK         0.0600 
    229 H229       -2.1459  -13.1065  -50.6218 H         1 UNK         0.0600 
    230 H230       -0.4139  -17.0662  -51.9361 H         1 UNK         0.3000 
    231 H231        0.6622  -17.6008  -53.7734 H         1 UNK         0.0600 
    232 H232        1.8368  -15.9225  -55.1179 H         1 UNK         0.0600 
    233 H233        1.9492  -15.4801  -53.4237 H         1 UNK         0.0600 
    234 H234        0.8274  -14.6303  -54.4865 H         1 UNK         0.0600 
    235 H235       -2.3301  -17.3483  -53.7666 H         1 UNK         0.3000 
    236 H236       -2.9609  -16.8725  -56.6251 H         1 UNK         0.0600 
    237 H237       -4.2937  -15.7711  -54.7881 H         1 UNK         0.0600 
    238 H238       -5.2665  -16.7780  -55.8482 H         1 UNK         0.0600 
    239 H239       -4.8170  -17.3700  -54.2558 H         1 UNK         0.0600 
    240 H240       -1.5107  -19.3706  -55.5191 H         1 UNK         0.3000 
    241 H241       -3.2838  -21.5771  -55.7490 H         1 UNK         0.0600 
    242 H242       -2.3611  -20.8439  -59.6386 H         1 UNK         0.3800 
    243 H243       -1.9882  -19.6756  -58.3987 H         1 UNK         0.3800 
    244 H244       -1.2692  -23.0002  -55.7945 H         1 UNK         0.0800 
    245 H245       -0.2570  -21.6207  -56.1300 H         1 UNK         0.0800 
    246 H246        0.9617  -20.3502  -54.3191 H         1 UNK         0.0800 
    247 H247        1.3708  -22.0445  -54.1596 H         1 UNK         0.0800 
@<TRIPOS>BOND
     1    1    2 1    
     2    1  127 1    
     3    1  128 1    
     4    1  129 1    
     5    2    3 2    
     6    2    4 am   BACKBONE|DICT|INTERRES
     7    4    5 1    
     8    4  130 1    
     9    5    6 1    
    10    5   65 1    
    11    5  131 1    
    12    6    7 1    
    13    6  132 1    
    14    6  133 1    
    15    7    8 1    
    16    8    9 1    
    17    8  134 1    
    18    8  135 1    
    19    9   10 ar   
    20    9   14 ar   
    21   10   11 ar   
    22   10  136 1    
    23   11   12 ar   
    24   11  126 1    
    25   12   13 ar   
    26   12  137 1    
    27   13   14 ar   
    28   13   15 1    
    29   14  138 1    
    30   15   16 1    
    31   15  139 1    
    32   15  140 1    
    33   16   17 1    
    34   17   18 1    
    35   17  141 1    
    36   17  142 1    
    37   18   19 1    
    38   18   67 1    
    39   18  143 1    
    40   19   20 am   BACKBONE|DICT|INTERRES
    41   19  144 1    
    42   20   21 2    
    43   20   22 1    
    44   22   23 1    
    45   22   24 1    
    46   22  145 1    
    47   23  146 1    
    48   23  147 1    
    49   23  148 1    
    50   24   25 am   BACKBONE|DICT|INTERRES
    51   24  149 1    
    52   25   26 2    
    53   25   27 1    
    54   27   28 1    
    55   27   29 1    
    56   27  150 1    
    57   28  151 1    
    58   28  152 1    
    59   28  153 1    
    60   29   30 am   BACKBONE|DICT|INTERRES
    61   29  154 1    
    62   30   31 2    
    63   30   32 1    
    64   32   33 1    
    65   32   34 1    
    66   32  155 1    
    67   33  156 1    
    68   33  157 1    
    69   33  158 1    
    70   34   35 am   BACKBONE|DICT|INTERRES
    71   34  159 1    
    72   35   36 2    
    73   35   37 1    
    74   37   38 1    
    75   37   39 1    
    76   37  160 1    
    77   38  161 1    
    78   38  162 1    
    79   38  163 1    
    80   39   40 am   BACKBONE|DICT|INTERRES
    81   39  164 1    
    82   40   41 2    
    83   40   42 1    
    84   42   43 1    
    85   42   44 1    
    86   42  165 1    
    87   43  166 1    
    88   43  167 1    
    89   43  168 1    
    90   44   45 am   BACKBONE|DICT|INTERRES
    91   44  169 1    
    92   45   46 2    
    93   45   47 1    
    94   47   48 1    
    95   47   49 1    
    96   47  170 1    
    97   48  171 1    
    98   48  172 1    
    99   48  173 1    
   100   49   50 am   BACKBONE|DICT|INTERRES
   101   49  174 1    
   102   50   51 2    
   103   50   52 1    
   104   52   53 1    
   105   52   54 1    
   106   52  175 1    
   107   53  176 1    
   108   53  177 1    
   109   53  178 1    
   110   54   55 am   BACKBONE|DICT|INTERRES
   111   54  179 1    
   112   55   56 2    
   113   55   57 1    
   114   57   58 1    
   115   57   59 1    
   116   57  180 1    
   117   58  181 1    
   118   58  182 1    
   119   58  183 1    
   120   59   60 am   BACKBONE|DICT|INTERRES
   121   59  184 1    
   122   60   61 2    
   123   60   62 1    
   124   62   63 1    
   125   62   64 1    
   126   62  185 1    
   127   63  186 1    
   128   63  187 1    
   129   63  188 1    
   130   64   65 am   BACKBONE|DICT|INTERRES
   131   64  189 1    
   132   65   66 2    
   133   67   68 2    
   134   67   69 am   BACKBONE|DICT|INTERRES
   135   69   70 1    
   136   69  190 1    
   137   70   71 1    
   138   70   72 1    
   139   70  191 1    
   140   71  192 1    
   141   71  193 1    
   142   71  194 1    
   143   72   73 2    
   144   72   74 am   BACKBONE|DICT|INTERRES
   145   74   75 1    
   146   74  195 1    
   147   75   76 1    
   148   75   77 1    
   149   75  196 1    
   150   76  197 1    
   151   76  198 1    
   152   76  199 1    
   153   77   78 2    
   154   77   79 am   BACKBONE|DICT|INTERRES
   155   79   80 1    
   156   79  200 1    
   157   80   81 1    
   158   80   82 1    
   159   80  201 1    
   160   81  202 1    
   161   81  203 1    
   162   81  204 1    
   163   82   83 2    
   164   82   84 am   BACKBONE|DICT|INTERRES
   165   84   85 1    
   166   84  205 1    
   167   85   86 1    
   168   85   87 1    
   169   85  206 1    
   170   86  207 1    
   171   86  208 1    
   172   86  209 1    
   173   87   88 2    
   174   87   89 am   BACKBONE|DICT|INTERRES
   175   89   90 1    
   176   89  210 1    
   177   90   91 1    
   178   90   92 1    
   179   90  211 1    
   180   91  212 1    
   181   91  213 1    
   182   91  214 1    
   183   92   93 2    
   184   92   94 am   BACKBONE|DICT|INTERRES
   185   94   95 1    
   186   94  215 1    
   187   95   96 1    
   188   95   97 1    
   189   95  216 1    
   190   96  217 1    
   191   96  218 1    
   192   96  219 1    
   193   97   98 2    
   194   97   99 am   BACKBONE|DICT|INTERRES
   195   99  100 1    
   196   99  220 1    
   197  100  101 1    
   198  100  102 1    
   199  100  221 1    
   200  101  222 1    
   201  101  223 1    
   202  101  224 1    
   203  102  103 2    
   204  102  104 am   BACKBONE|DICT|INTERRES
   205  104  105 1    
   206  104  225 1    
   207  105  106 1    
   208  105  107 1    
   209  105  226 1    
   210  106  227 1    
   211  106  228 1    
   212  106  229 1    
   213  107  108 2    
   214  107  109 am   BACKBONE|DICT|INTERRES
   215  109  110 1    
   216  109  230 1    
   217  110  111 1    
   218  110  112 1    
   219  110  231 1    
   220  111  232 1    
   221  111  233 1    
   222  111  234 1    
   223  112  113 2    
   224  112  114 am   BACKBONE|DICT|INTERRES
   225  114  115 1    
   226  114  235 1    
   227  115  116 1    
   228  115  117 1    
   229  115  236 1    
   230  116  237 1    
   231  116  238 1    
   232  116  239 1    
   233  117  118 2    
   234  117  119 am   BACKBONE|DICT|INTERRES
   235  119  120 1    
   236  119  240 1    
   237  120  121 1    
   238  120  124 1    
   239  120  241 1    
   240  121  122 am   BACKBONE|DICT|INTERRES
   241  121  123 2    
   242  122  242 1    
   243  122  243 1    
   244  124  125 1    
   245  124  244 1    
   246  124  245 1    
   247  125  126 1    
   248  126  246 1    
   249  126  247 1    
@<TRIPOS>SUBSTRUCTURE
     1 UNK         1 GROUP             0       ****    0 ROOT    
