@<TRIPOS>MOLECULE
3R540
247   249    1
SMALL
USER_CHARGES


@<TRIPOS>ATOM
      1 CA         -4.5889  -17.7505  -46.0412 C.3       0 UNK        -0.1800 
      2 C          -4.3604  -16.5333  -46.9263 C.2       0 UNK         0.5000 
      3 O          -5.3241  -15.9502  -47.4222 O.2       0 UNK        -0.5000 
      4 N          -3.0947  -16.1326  -47.1068 N.am      1 UNK        -0.5000 
      5 CA         -2.6989  -14.9109  -47.8240 C.3       1 UNK         0.1400 
      6 C6         -1.1976  -14.9081  -48.2051 C.3       23 UNK        -0.0398 
      7 S7         -0.7126  -16.3240  -49.2413 S.3       23 UNK        -0.2404 
      8 C8          0.5977  -15.5752  -50.2523 C.3       23 UNK        -0.0205 
      9 C9          1.3210  -16.6380  -51.0603 C.ar      23 UNK        -0.0193 
     10 C10         0.8317  -17.0271  -52.3094 C.ar      23 UNK        -0.1150 
     11 C11         1.4730  -18.0282  -53.0450 C.ar      23 UNK        -0.0193 
     12 C12         2.6151  -18.6405  -52.5166 C.ar      23 UNK        -0.1150 
     13 C13         3.1201  -18.2514  -51.2714 C.ar      23 UNK        -0.0193 
     14 C14         2.4697  -17.2472  -50.5495 C.ar      23 UNK        -0.1150 
     15 C15         4.3750  -18.9062  -50.7130 C.3       23 UNK        -0.0205 
     16 S16         4.0483  -20.5587  -50.0227 S.3       23 UNK        -0.2404 
     17 C17         3.1953  -20.1641  -48.4565 C.3       23 UNK        -0.0398 
     18 CA          2.2309  -21.2918  -48.0085 C.3       11 UNK         0.1400 
     19 N           2.0731  -21.3242  -46.5501 N.am      11 UNK        -0.5000 
     20 C           1.6886  -22.4126  -45.8678 C.2       10 UNK         0.5000 
     21 O           1.4586  -23.5020  -46.3931 O.2       10 UNK        -0.5000 
     22 CA          1.5051  -22.2611  -44.3484 C.3       10 UNK         0.1400 
     23 CB          2.8550  -22.3910  -43.6272 C.3       10 UNK        -0.1800 
     24 N           0.8562  -21.0109  -43.9496 N.am      10 UNK        -0.5000 
     25 C          -0.3988  -20.6599  -44.2648 C.2       9 UNK         0.5000 
     26 O          -1.1177  -21.3181  -45.0157 O.2       9 UNK        -0.5000 
     27 CA         -0.9297  -19.3480  -43.6628 C.3       9 UNK         0.1400 
     28 CB         -1.2370  -19.5120  -42.1663 C.3       9 UNK        -0.1800 
     29 N           0.0459  -18.2774  -43.8428 N.am      9 UNK        -0.5000 
     30 C          -0.0076  -17.3520  -44.8090 C.2       8 UNK         0.5000 
     31 O          -0.9755  -17.1961  -45.5534 O.2       8 UNK        -0.5000 
     32 CA          1.2172  -16.4320  -44.9792 C.3       8 UNK         0.1400 
     33 CB          0.8995  -15.0021  -44.5112 C.3       8 UNK        -0.1800 
     34 N           2.4095  -16.9116  -44.2770 N.am      8 UNK        -0.5000 
     35 C           3.1487  -17.9642  -44.6555 C.2       7 UNK         0.5000 
     36 O           2.8925  -18.6637  -45.6353 O.2       7 UNK        -0.5000 
     37 CA          4.3424  -18.3304  -43.7534 C.3       7 UNK         0.1400 
     38 CB          5.5917  -17.5416  -44.1711 C.3       7 UNK        -0.1800 
     39 N           4.0851  -18.1101  -42.3275 N.am      7 UNK        -0.5000 
     40 C           3.1324  -18.7301  -41.6166 C.2       6 UNK         0.5000 
     41 O           2.3490  -19.5490  -42.0948 O.2       6 UNK        -0.5000 
     42 CA          2.9880  -18.3205  -40.1403 C.3       6 UNK         0.1400 
     43 CB          3.9661  -19.1148  -39.2623 C.3       6 UNK        -0.1800 
     44 N           3.1740  -16.8849  -39.9066 N.am      6 UNK        -0.5000 
     45 C           2.4301  -15.9223  -40.4660 C.2       5 UNK         0.5000 
     46 O           1.5424  -16.1364  -41.2983 O.2       5 UNK        -0.5000 
     47 CA          2.7452  -14.4790  -40.0502 C.3       5 UNK         0.1400 
     48 CB          3.9292  -13.9257  -40.8592 C.3       5 UNK        -0.1800 
     49 N           1.5594  -13.6850  -40.3338 N.am      5 UNK        -0.5000 
     50 C           0.9513  -12.8283  -39.5087 C.2       4 UNK         0.5000 
     51 O           1.4197  -12.4575  -38.4317 O.2       4 UNK        -0.5000 
     52 CA         -0.4307  -12.3154  -39.9628 C.3       4 UNK         0.1400 
     53 CB         -0.3100  -10.9157  -40.5851 C.3       4 UNK        -0.1800 
     54 N          -1.0738  -13.2082  -40.9326 N.am      4 UNK        -0.5000 
     55 C          -1.6280  -14.3958  -40.6437 C.2       3 UNK         0.5000 
     56 O          -1.7035  -14.8449  -39.4993 O.2       3 UNK        -0.5000 
     57 CA         -2.1501  -15.2317  -41.8356 C.3       3 UNK         0.1400 
     58 CB         -3.3921  -16.0747  -41.4806 C.3       3 UNK        -0.1800 
     59 N          -2.3745  -14.4517  -43.0621 N.am      3 UNK        -0.5000 
     60 C          -3.2674  -13.4645  -43.2546 C.2       2 UNK         0.5000 
     61 O          -4.0668  -13.0743  -42.4048 O.2       2 UNK        -0.5000 
     62 CA         -3.2481  -12.7993  -44.6384 C.3       2 UNK         0.1400 
     63 CB         -2.1896  -11.6779  -44.6666 C.3       2 UNK        -0.1800 
     64 N          -2.9818  -13.8100  -45.6599 N.am      2 UNK        -0.5000 
     65 C          -3.0128  -13.6508  -46.9887 C.2       1 UNK         0.5000 
     66 O          -3.2672  -12.5871  -47.5543 O.2       1 UNK        -0.5000 
     67 C           0.8681  -21.2146  -48.7331 C.2       11 UNK         0.5000 
     68 O           0.7777  -21.6143  -49.8933 O.2       11 UNK        -0.5000 
     69 N          -0.1692  -20.7238  -48.0385 N.am      12 UNK        -0.5000 
     70 CA         -1.5319  -20.6421  -48.5567 C.3       12 UNK         0.1400 
     71 CB         -2.3014  -19.5466  -47.8129 C.3       12 UNK        -0.1800 
     72 C          -2.2814  -21.9782  -48.4638 C.2       12 UNK         0.5000 
     73 O          -3.0434  -22.2999  -49.3761 O.2       12 UNK        -0.5000 
     74 N          -2.0363  -22.7272  -47.3804 N.am      13 UNK        -0.5000 
     75 CA         -2.6287  -24.0228  -47.0417 C.3       13 UNK         0.1400 
     76 CB         -2.2751  -25.0811  -48.1108 C.3       13 UNK        -0.1800 
     77 C          -4.1457  -23.9414  -46.7599 C.2       13 UNK         0.5000 
     78 O          -4.7077  -22.8486  -46.6344 O.2       13 UNK        -0.5000 
     79 N          -4.7794  -25.1146  -46.6235 N.am      14 UNK        -0.5000 
     80 CA         -6.2085  -25.2814  -46.3570 C.3       14 UNK         0.1400 
     81 CB         -6.5262  -26.7784  -46.2238 C.3       14 UNK        -0.1800 
     82 C          -7.0754  -24.6382  -47.4533 C.2       14 UNK         0.5000 
     83 O          -6.8291  -24.8714  -48.6387 O.2       14 UNK        -0.5000 
     84 N          -8.0423  -23.8110  -47.0314 N.am      15 UNK        -0.5000 
     85 CA         -8.9765  -23.0398  -47.8648 C.3       15 UNK         0.1400 
     86 CB         -9.9594  -23.9899  -48.5811 C.3       15 UNK        -0.1800 
     87 C          -8.2953  -22.0575  -48.8474 C.2       15 UNK         0.5000 
     88 O          -8.9263  -21.6416  -49.8203 O.2       15 UNK        -0.5000 
     89 N          -7.0217  -21.7179  -48.5865 N.am      16 UNK        -0.5000 
     90 CA         -6.1211  -20.9320  -49.4358 C.3       16 UNK         0.1400 
     91 CB         -6.6059  -19.4711  -49.5491 C.3       16 UNK        -0.1800 
     92 C          -5.8496  -21.5901  -50.8103 C.2       16 UNK         0.5000 
     93 O          -5.5680  -20.8870  -51.7820 O.2       16 UNK        -0.5000 
     94 N          -5.9355  -22.9278  -50.8808 N.am      17 UNK        -0.5000 
     95 CA         -5.8084  -23.7043  -52.1152 C.3       17 UNK         0.1400 
     96 CB         -6.1759  -25.1687  -51.8371 C.3       17 UNK        -0.1800 
     97 C          -4.4203  -23.6135  -52.7733 C.2       17 UNK         0.5000 
     98 O          -4.3379  -23.5335  -53.9997 O.2       17 UNK        -0.5000 
     99 N          -3.3545  -23.5976  -51.9616 N.am      18 UNK        -0.5000 
    100 CA        -1.9828  -23.4570  -52.4497 C.3       18 UNK         0.1400 
    101 CB        -0.9878  -24.0401  -51.4373 C.3       18 UNK        -0.1800 
    102 C         -1.6491  -22.0006  -52.8170 C.2       18 UNK         0.5000 
    103 O         -0.8551  -21.7927  -53.7331 O.2       18 UNK        -0.5000 
    104 N         -2.3046  -21.0271  -52.1634 N.am      19 UNK        -0.5000 
    105 CA        -2.2563  -19.6103  -52.5400 C.3       19 UNK         0.1400 
    106 CB        -2.8678  -18.7196  -51.4454 C.3       19 UNK        -0.1800 
    107 C         -2.9319  -19.3478  -53.8976 C.2       19 UNK         0.5000 
    108 O         -2.4173  -18.5605  -54.6909 O.2       19 UNK        -0.5000 
    109 N         -4.0607  -20.0246  -54.1477 N.am      20 UNK        -0.5000 
    110 CA        -4.7827  -19.9797  -55.4177 C.3       20 UNK         0.1400 
    111 CB        -6.1585  -20.6421  -55.2477 C.3       20 UNK        -0.1800 
    112 C         -3.9945  -20.6296  -56.5713 C.2       20 UNK         0.5000 
    113 O         -3.9798  -20.0832  -57.6750 O.2       20 UNK        -0.5000 
    114 N         -3.3576  -21.7771  -56.2983 N.am      21 UNK        -0.5000 
    115 CA        -2.5591  -22.5275  -57.2670 C.3       21 UNK         0.1400 
    116 CB        -2.3641  -23.9666  -56.7622 C.3       21 UNK        -0.1800 
    117 C         -1.2054  -21.8578  -57.5704 C.2       21 UNK         0.5000 
    118 O         -0.9167  -21.5639  -58.7308 O.2       21 UNK        -0.5000 
    119 N         -0.3991  -21.6460  -56.5222 N.am      22 UNK        -0.5000 
    120 CA         0.9689  -21.0997  -56.5579 C.3       22 UNK         0.1400 
    121 C          2.0173  -21.9433  -57.3495 C.2       22 UNK         0.5000 
    122 N          1.7798  -23.2270  -57.5914 N.am      22 UNK        -0.7600 
    123 O          3.0740  -21.4448  -57.7277 O.2       22 UNK        -0.5000 
    124 C124        0.9957  -19.5781  -56.8956 C.3       23 UNK        -0.0398 
    125 S125        2.0529  -18.6413  -55.7358 S.3       23 UNK        -0.2404 
    126 C126        0.8679  -18.4926  -54.3630 C.3       23 UNK        -0.0205 
    127 H127       -4.9778  -18.5804  -46.6310 H         1 UNK         0.0600 
    128 H128       -5.3148  -17.5162  -45.2627 H         1 UNK         0.0600 
    129 H129       -3.6690  -18.0729  -45.5541 H         1 UNK         0.0600 
    130 H130       -2.3330  -16.6514  -46.6720 H         1 UNK         0.3000 
    131 H131       -3.2830  -14.8501  -48.7449 H         1 UNK         0.0600 
    132 H132       -0.5698  -14.9208  -47.3140 H         1 UNK         0.0800 
    133 H133       -0.9522  -13.9879  -48.7390 H         1 UNK         0.0800 
    134 H134        1.3039  -15.0508  -49.6065 H         1 UNK         0.0800 
    135 H135        0.1649  -14.8256  -50.9166 H         1 UNK         0.0800 
    136 H136       -0.0670  -16.5660  -52.6949 H         1 UNK         0.1150 
    137 H137        3.1060  -19.4295  -53.0689 H         1 UNK         0.1150 
    138 H138        2.8497  -16.9462  -49.5833 H         1 UNK         0.1150 
    139 H139        5.1125  -19.0009  -51.5113 H         1 UNK         0.0800 
    140 H140        4.8353  -18.2773  -49.9491 H         1 UNK         0.0800 
    141 H141        2.6763  -19.2071  -48.5231 H         1 UNK         0.0800 
    142 H142        3.9792  -20.0249  -47.7109 H         1 UNK         0.0800 
    143 H143        2.6825  -22.2438  -48.2975 H         1 UNK         0.0600 
    144 H144        2.2583  -20.4549  -46.0567 H         1 UNK         0.3000 
    145 H145        0.8657  -23.0806  -44.0136 H         1 UNK         0.0600 
    146 H146        2.7272  -22.3724  -42.5447 H         1 UNK         0.0600 
    147 H147        3.3457  -23.3317  -43.8804 H         1 UNK         0.0600 
    148 H148        3.5341  -21.5825  -43.8977 H         1 UNK         0.0600 
    149 H149        1.3834  -20.4279  -43.3022 H         1 UNK         0.3000 
    150 H150       -1.8646  -19.1013  -44.1698 H         1 UNK         0.0600 
    151 H151       -1.9690  -20.3039  -42.0034 H         1 UNK         0.0600 
    152 H152       -1.6517  -18.5947  -41.7493 H         1 UNK         0.0600 
    153 H153       -0.3456  -19.7643  -41.5910 H         1 UNK         0.0600 
    154 H154        0.8770  -18.3232  -43.2680 H         1 UNK         0.3000 
    155 H155        1.4427  -16.3964  -46.0474 H         1 UNK         0.0600 
    156 H156        0.6476  -14.9688  -43.4521 H         1 UNK         0.0600 
    157 H157        0.0581  -14.5831  -45.0624 H         1 UNK         0.0600 
    158 H158        1.7494  -14.3387  -44.6723 H         1 UNK         0.0600 
    159 H159        2.6440  -16.4395  -43.4149 H         1 UNK         0.3000 
    160 H160        4.5485  -19.3927  -43.8950 H         1 UNK         0.0600 
    161 H161        5.4604  -16.4691  -44.0214 H         1 UNK         0.0600 
    162 H162        5.8194  -17.7008  -45.2261 H         1 UNK         0.0600 
    163 H163        6.4659  -17.8562  -43.6008 H         1 UNK         0.0600 
    164 H164        4.6744  -17.4398  -41.8561 H         1 UNK         0.3000 
    165 H165        1.9716  -18.5742  -39.8319 H         1 UNK         0.0600 
    166 H166        3.8031  -18.9089  -38.2043 H         1 UNK         0.0600 
    167 H167        3.8365  -20.1884  -39.4063 H         1 UNK         0.0600 
    168 H168        5.0043  -18.8752  -39.4956 H         1 UNK         0.0600 
    169 H169        3.8909  -16.6273  -39.2434 H         1 UNK         0.3000 
    170 H170        2.9784  -14.4601  -38.9836 H         1 UNK         0.0600 
    171 H171        4.8383  -14.4964  -40.6666 H         1 UNK         0.0600 
    172 H172        3.7371  -13.9626  -41.9325 H         1 UNK         0.0600 
    173 H173        4.1345  -12.8887  -40.5929 H         1 UNK         0.0600 
    174 H174        1.0531  -13.9918  -41.1528 H         1 UNK         0.3000 
    175 H175       -1.0670  -12.2456  -39.0780 H         1 UNK         0.0600 
    176 H176        0.3128  -10.9248  -41.4806 H         1 UNK         0.0600 
    177 H177       -1.2883  -10.5205  -40.8599 H         1 UNK         0.0600 
    178 H178        0.1373  -10.2128  -39.8811 H         1 UNK         0.0600 
    179 H179       -1.0706  -12.9047  -41.8942 H         1 UNK         0.3000 
    180 H180       -1.3464  -15.9316  -42.0702 H         1 UNK         0.0600 
    181 H181       -3.7154  -16.6754  -42.3309 H         1 UNK         0.0600 
    182 H182       -4.2310  -15.4521  -41.1692 H         1 UNK         0.0600 
    183 H183       -3.1778  -16.7636  -40.6628 H         1 UNK         0.0600 
    184 H184       -1.7377  -14.6568  -43.8163 H         1 UNK         0.3000 
    185 H185       -4.2349  -12.3700  -44.8224 H         1 UNK         0.0600 
    186 H186       -2.3401  -10.9771  -43.8442 H         1 UNK         0.0600 
    187 H187       -1.1777  -12.0754  -44.5793 H         1 UNK         0.0600 
    188 H188       -2.2415  -11.0994  -45.5885 H         1 UNK         0.0600 
    189 H189       -2.8636  -14.7530  -45.3178 H         1 UNK         0.3000 
    190 H190       -0.0286  -20.4572  -47.0754 H         1 UNK         0.3000 
    191 H191       -1.4725  -20.3712  -49.6089 H         1 UNK         0.0600 
    192 H192       -3.2702  -19.3697  -48.2802 H         1 UNK         0.0600 
    193 H193       -1.7559  -18.6055  -47.8256 H         1 UNK         0.0600 
    194 H194       -2.4794  -19.8135  -46.7714 H         1 UNK         0.0600 
    195 H195       -1.4783  -22.3085  -46.6423 H         1 UNK         0.3000 
    196 H196       -2.1570  -24.3226  -46.1050 H         1 UNK         0.0600 
    197 H197       -2.8416  -24.9352  -49.0311 H         1 UNK         0.0600 
    198 H198       -1.2147  -25.0459  -48.3617 H         1 UNK         0.0600 
    199 H199       -2.4824  -26.0909  -47.7565 H         1 UNK         0.0600 
    200 H200       -4.2534  -25.9647  -46.7603 H         1 UNK         0.3000 
    201 H201       -6.4242  -24.7979  -45.4020 H         1 UNK         0.0600 
    202 H202       -6.2976  -27.3212  -47.1421 H         1 UNK         0.0600 
    203 H203       -7.5833  -26.9349  -46.0051 H         1 UNK         0.0600 
    204 H204       -5.9567  -27.2335  -45.4132 H         1 UNK         0.0600 
    205 H205       -8.1416  -23.6667  -46.0358 H         1 UNK         0.3000 
    206 H206       -9.5564  -22.4212  -47.1786 H         1 UNK         0.0600 
    207 H207      -10.4367  -24.6695  -47.8752 H         1 UNK         0.0600 
    208 H208      -10.7541  -23.4327  -49.0783 H         1 UNK         0.0600 
    209 H209       -9.4588  -24.5918  -49.3402 H         1 UNK         0.0600 
    210 H210       -6.5824  -22.1298  -47.7718 H         1 UNK         0.3000 
    211 H211       -5.1670  -20.9113  -48.9115 H         1 UNK         0.0600 
    212 H212       -5.8585  -18.8427  -50.0325 H         1 UNK         0.0600 
    213 H213       -6.7969  -19.0412  -48.5658 H         1 UNK         0.0600 
    214 H214       -7.5219  -19.3916  -50.1347 H         1 UNK         0.0600 
    215 H215       -6.1703  -23.4493  -50.0429 H         1 UNK         0.3000 
    216 H216       -6.5326  -23.3052  -52.8284 H         1 UNK         0.0600 
    217 H217       -5.5115  -25.6154  -51.0961 H         1 UNK         0.0600 
    218 H218       -6.1095  -25.7694  -52.7451 H         1 UNK         0.0600 
    219 H219       -7.1970  -25.2541  -51.4645 H         1 UNK         0.0600 
    220 H220       -3.4904  -23.5517  -50.9575 H         1 UNK         0.3000 
    221 H221       -1.8823  -24.0482  -53.3622 H         1 UNK         0.0600 
    222 H222       -1.1974  -25.0910  -51.2384 H         1 UNK         0.0600 
    223 H223       -1.0094  -23.5100  -50.4887 H         1 UNK         0.0600 
    224 H224        0.0326  -23.9767  -51.8171 H         1 UNK         0.0600 
    225 H225       -2.9504  -21.2946  -51.4323 H         1 UNK         0.3000 
    226 H226       -1.2095  -19.3247  -52.6324 H         1 UNK         0.0600 
    227 H227       -3.7801  -19.1435  -51.0325 H         1 UNK         0.0600 
    228 H228       -2.1672  -18.5622  -50.6287 H         1 UNK         0.0600 
    229 H229       -3.1111  -17.7278  -51.8291 H         1 UNK         0.0600 
    230 H230       -4.4692  -20.5834  -53.4048 H         1 UNK         0.3000 
    231 H231       -4.9441  -18.9307  -55.6748 H         1 UNK         0.0600 
    232 H232       -6.0708  -21.6943  -54.9770 H         1 UNK         0.0600 
    233 H233       -6.7344  -20.5878  -56.1723 H         1 UNK         0.0600 
    234 H234       -6.7409  -20.1461  -54.4709 H         1 UNK         0.0600 
    235 H235       -3.4733  -22.1908  -55.3802 H         1 UNK         0.3000 
    236 H236       -3.1197  -22.5801  -58.2029 H         1 UNK         0.0600 
    237 H237       -3.3227  -24.4690  -56.6307 H         1 UNK         0.0600 
    238 H238       -1.7839  -24.5556  -57.4735 H         1 UNK         0.0600 
    239 H239       -1.8417  -23.9952  -55.8059 H         1 UNK         0.0600 
    240 H240       -0.7302  -21.8762  -55.5883 H         1 UNK         0.3000 
    241 H241        1.2978  -21.2198  -55.5256 H         1 UNK         0.0600 
    242 H242        0.9268  -23.6599  -57.2769 H         1 UNK         0.3800 
    243 H243        2.4628  -23.7709  -58.0952 H         1 UNK         0.3800 
    244 H244       -0.0082  -19.1522  -56.8485 H         1 UNK         0.0800 
    245 H245        1.3325  -19.3983  -57.9178 H         1 UNK         0.0800 
    246 H246        0.0747  -17.8134  -54.6771 H         1 UNK         0.0800 
    247 H247        0.4033  -19.4629  -54.1950 H         1 UNK         0.0800 
@<TRIPOS>BOND
     1    1    2 1    
     2    1  127 1    
     3    1  128 1    
     4    1  129 1    
     5    2    3 2    
     6    2    4 am   BACKBONE|DICT|INTERRES
     7    4    5 1    
     8    4  130 1    
     9    5    6 1    
    10    5   65 1    
    11    5  131 1    
    12    6    7 1    
    13    6  132 1    
    14    6  133 1    
    15    7    8 1    
    16    8    9 1    
    17    8  134 1    
    18    8  135 1    
    19    9   10 ar   
    20    9   14 ar   
    21   10   11 ar   
    22   10  136 1    
    23   11   12 ar   
    24   11  126 1    
    25   12   13 ar   
    26   12  137 1    
    27   13   14 ar   
    28   13   15 1    
    29   14  138 1    
    30   15   16 1    
    31   15  139 1    
    32   15  140 1    
    33   16   17 1    
    34   17   18 1    
    35   17  141 1    
    36   17  142 1    
    37   18   19 1    
    38   18   67 1    
    39   18  143 1    
    40   19   20 am   BACKBONE|DICT|INTERRES
    41   19  144 1    
    42   20   21 2    
    43   20   22 1    
    44   22   23 1    
    45   22   24 1    
    46   22  145 1    
    47   23  146 1    
    48   23  147 1    
    49   23  148 1    
    50   24   25 am   BACKBONE|DICT|INTERRES
    51   24  149 1    
    52   25   26 2    
    53   25   27 1    
    54   27   28 1    
    55   27   29 1    
    56   27  150 1    
    57   28  151 1    
    58   28  152 1    
    59   28  153 1    
    60   29   30 am   BACKBONE|DICT|INTERRES
    61   29  154 1    
    62   30   31 2    
    63   30   32 1    
    64   32   33 1    
    65   32   34 1    
    66   32  155 1    
    67   33  156 1    
    68   33  157 1    
    69   33  158 1    
    70   34   35 am   BACKBONE|DICT|INTERRES
    71   34  159 1    
    72   35   36 2    
    73   35   37 1    
    74   37   38 1    
    75   37   39 1    
    76   37  160 1    
    77   38  161 1    
    78   38  162 1    
    79   38  163 1    
    80   39   40 am   BACKBONE|DICT|INTERRES
    81   39  164 1    
    82   40   41 2    
    83   40   42 1    
    84   42   43 1    
    85   42   44 1    
    86   42  165 1    
    87   43  166 1    
    88   43  167 1    
    89   43  168 1    
    90   44   45 am   BACKBONE|DICT|INTERRES
    91   44  169 1    
    92   45   46 2    
    93   45   47 1    
    94   47   48 1    
    95   47   49 1    
    96   47  170 1    
    97   48  171 1    
    98   48  172 1    
    99   48  173 1    
   100   49   50 am   BACKBONE|DICT|INTERRES
   101   49  174 1    
   102   50   51 2    
   103   50   52 1    
   104   52   53 1    
   105   52   54 1    
   106   52  175 1    
   107   53  176 1    
   108   53  177 1    
   109   53  178 1    
   110   54   55 am   BACKBONE|DICT|INTERRES
   111   54  179 1    
   112   55   56 2    
   113   55   57 1    
   114   57   58 1    
   115   57   59 1    
   116   57  180 1    
   117   58  181 1    
   118   58  182 1    
   119   58  183 1    
   120   59   60 am   BACKBONE|DICT|INTERRES
   121   59  184 1    
   122   60   61 2    
   123   60   62 1    
   124   62   63 1    
   125   62   64 1    
   126   62  185 1    
   127   63  186 1    
   128   63  187 1    
   129   63  188 1    
   130   64   65 am   BACKBONE|DICT|INTERRES
   131   64  189 1    
   132   65   66 2    
   133   67   68 2    
   134   67   69 am   BACKBONE|DICT|INTERRES
   135   69   70 1    
   136   69  190 1    
   137   70   71 1    
   138   70   72 1    
   139   70  191 1    
   140   71  192 1    
   141   71  193 1    
   142   71  194 1    
   143   72   73 2    
   144   72   74 am   BACKBONE|DICT|INTERRES
   145   74   75 1    
   146   74  195 1    
   147   75   76 1    
   148   75   77 1    
   149   75  196 1    
   150   76  197 1    
   151   76  198 1    
   152   76  199 1    
   153   77   78 2    
   154   77   79 am   BACKBONE|DICT|INTERRES
   155   79   80 1    
   156   79  200 1    
   157   80   81 1    
   158   80   82 1    
   159   80  201 1    
   160   81  202 1    
   161   81  203 1    
   162   81  204 1    
   163   82   83 2    
   164   82   84 am   BACKBONE|DICT|INTERRES
   165   84   85 1    
   166   84  205 1    
   167   85   86 1    
   168   85   87 1    
   169   85  206 1    
   170   86  207 1    
   171   86  208 1    
   172   86  209 1    
   173   87   88 2    
   174   87   89 am   BACKBONE|DICT|INTERRES
   175   89   90 1    
   176   89  210 1    
   177   90   91 1    
   178   90   92 1    
   179   90  211 1    
   180   91  212 1    
   181   91  213 1    
   182   91  214 1    
   183   92   93 2    
   184   92   94 am   BACKBONE|DICT|INTERRES
   185   94   95 1    
   186   94  215 1    
   187   95   96 1    
   188   95   97 1    
   189   95  216 1    
   190   96  217 1    
   191   96  218 1    
   192   96  219 1    
   193   97   98 2    
   194   97   99 am   BACKBONE|DICT|INTERRES
   195   99  100 1    
   196   99  220 1    
   197  100  101 1    
   198  100  102 1    
   199  100  221 1    
   200  101  222 1    
   201  101  223 1    
   202  101  224 1    
   203  102  103 2    
   204  102  104 am   BACKBONE|DICT|INTERRES
   205  104  105 1    
   206  104  225 1    
   207  105  106 1    
   208  105  107 1    
   209  105  226 1    
   210  106  227 1    
   211  106  228 1    
   212  106  229 1    
   213  107  108 2    
   214  107  109 am   BACKBONE|DICT|INTERRES
   215  109  110 1    
   216  109  230 1    
   217  110  111 1    
   218  110  112 1    
   219  110  231 1    
   220  111  232 1    
   221  111  233 1    
   222  111  234 1    
   223  112  113 2    
   224  112  114 am   BACKBONE|DICT|INTERRES
   225  114  115 1    
   226  114  235 1    
   227  115  116 1    
   228  115  117 1    
   229  115  236 1    
   230  116  237 1    
   231  116  238 1    
   232  116  239 1    
   233  117  118 2    
   234  117  119 am   BACKBONE|DICT|INTERRES
   235  119  120 1    
   236  119  240 1    
   237  120  121 1    
   238  120  124 1    
   239  120  241 1    
   240  121  122 am   BACKBONE|DICT|INTERRES
   241  121  123 2    
   242  122  242 1    
   243  122  243 1    
   244  124  125 1    
   245  124  244 1    
   246  124  245 1    
   247  125  126 1    
   248  126  246 1    
   249  126  247 1    
@<TRIPOS>SUBSTRUCTURE
     1 UNK         1 GROUP             0       ****    0 ROOT    
