@<TRIPOS>MOLECULE
3R540
247   249    1
SMALL
USER_CHARGES


@<TRIPOS>ATOM
      1 CA         -1.6195   -7.7570  -48.2970 C.3       0 UNK        -0.1800 
      2 C          -1.2921   -8.7791  -49.3762 C.2       0 UNK         0.5000 
      3 O          -0.4623   -8.5094  -50.2446 O.2       0 UNK        -0.5000 
      4 N          -1.9425   -9.9481  -49.3249 N.am      1 UNK        -0.5000 
      5 CA         -1.7475  -11.0767  -50.2447 C.3       1 UNK         0.1400 
      6 C6         -2.8869  -12.1347  -50.1494 C.3       23 UNK        -0.0398 
      7 S7         -3.6259  -12.3950  -48.4896 S.3       23 UNK        -0.2404 
      8 C8         -2.4930  -13.5462  -47.6475 C.3       23 UNK        -0.0205 
      9 C9         -2.5372  -14.9584  -48.2076 C.ar      23 UNK        -0.0193 
     10 C10        -1.7029  -15.3270  -49.2619 C.ar      23 UNK        -0.1150 
     11 C11        -1.6972  -16.6367  -49.7454 C.ar      23 UNK        -0.0193 
     12 C12        -2.5096  -17.5978  -49.1335 C.ar      23 UNK        -0.1150 
     13 C13        -3.3427  -17.2477  -48.0594 C.ar      23 UNK        -0.0193 
     14 C14        -3.3637  -15.9194  -47.6245 C.ar      23 UNK        -0.1150 
     15 C15        -4.1912  -18.2513  -47.2785 C.3       23 UNK        -0.0205 
     16 S16        -4.2355  -19.9574  -47.9246 S.3       23 UNK        -0.2404 
     17 C17        -4.5844  -20.8986  -46.3934 C.3       23 UNK        -0.0398 
     18 CA         -3.7589  -22.2046  -46.2999 C.3       11 UNK         0.1400 
     19 N          -2.3221  -21.9632  -46.4464 N.am      11 UNK        -0.5000 
     20 C          -1.5345  -22.7406  -47.1955 C.2       10 UNK         0.5000 
     21 O          -1.8433  -23.8769  -47.5543 O.2       10 UNK        -0.5000 
     22 CA         -0.2065  -22.1255  -47.6679 C.3       10 UNK         0.1400 
     23 CB         -0.4558  -20.8410  -48.4770 C.3       10 UNK        -0.1800 
     24 N           0.7042  -21.8326  -46.5693 N.am      10 UNK        -0.5000 
     25 C           1.2821  -22.7534  -45.7893 C.2       9 UNK         0.5000 
     26 O           1.1426  -23.9676  -45.9341 O.2       9 UNK        -0.5000 
     27 CA          2.1126  -22.2183  -44.6087 C.3       9 UNK         0.1400 
     28 CB          3.5002  -21.7569  -45.0775 C.3       9 UNK        -0.1800 
     29 N           1.4357  -21.1378  -43.8884 N.am      9 UNK        -0.5000 
     30 C           0.2270  -21.2543  -43.3185 C.2       8 UNK         0.5000 
     31 O          -0.4288  -22.2968  -43.3219 O.2       8 UNK        -0.5000 
     32 CA         -0.3723  -19.9907  -42.6786 C.3       8 UNK         0.1400 
     33 CB          0.2630  -19.7168  -41.3079 C.3       8 UNK        -0.1800 
     34 N          -0.2358  -18.8129  -43.5344 N.am      8 UNK        -0.5000 
     35 C          -0.8332  -18.6700  -44.7267 C.2       7 UNK         0.5000 
     36 O          -1.6090  -19.4964  -45.2068 O.2       7 UNK        -0.5000 
     37 CA         -0.4656  -17.4141  -45.5373 C.3       7 UNK         0.1400 
     38 CB         -1.1989  -16.1795  -44.9934 C.3       7 UNK        -0.1800 
     39 N           0.9735  -17.1565  -45.5452 N.am      7 UNK        -0.5000 
     40 C           1.9006  -17.9910  -46.0351 C.2       6 UNK         0.5000 
     41 O           1.6418  -19.0565  -46.5941 O.2       6 UNK        -0.5000 
     42 CA          3.3684  -17.5909  -45.8107 C.3       6 UNK         0.1400 
     43 CB          3.8326  -16.5734  -46.8633 C.3       6 UNK        -0.1800 
     44 N           3.5875  -17.0474  -44.4699 N.am      6 UNK        -0.5000 
     45 C           3.5320  -17.7695  -43.3418 C.2       5 UNK         0.5000 
     46 O           3.3165  -18.9803  -43.3143 O.2       5 UNK        -0.5000 
     47 CA          3.7095  -17.0012  -42.0198 C.3       5 UNK         0.1400 
     48 CB          5.1987  -16.7783  -41.7170 C.3       5 UNK        -0.1800 
     49 N           3.0160  -15.7129  -42.0236 N.am      5 UNK        -0.5000 
     50 C           1.6833  -15.5732  -42.0572 C.2       4 UNK         0.5000 
     51 O           0.8967  -16.5197  -42.0481 O.2       4 UNK        -0.5000 
     52 CA          1.1422  -14.1346  -42.1680 C.3       4 UNK         0.1400 
     53 CB          0.9928  -13.5059  -40.7747 C.3       4 UNK        -0.1800 
     54 N           1.9634  -13.2590  -43.0121 N.am      4 UNK        -0.5000 
     55 C           2.2135  -13.4739  -44.3102 C.2       3 UNK         0.5000 
     56 O           1.8205  -14.4697  -44.9228 O.2       3 UNK        -0.5000 
     57 CA          3.0949  -12.4330  -45.0277 C.3       3 UNK         0.1400 
     58 CB          4.5805  -12.7561  -44.8030 C.3       3 UNK        -0.1800 
     59 N           2.8326  -12.4120  -46.4674 N.am      3 UNK        -0.5000 
     60 C           1.6894  -11.9894  -47.0204 C.2       2 UNK         0.5000 
     61 O           0.7973  -11.4097  -46.3915 O.2       2 UNK        -0.5000 
     62 CA          1.5012  -12.2921  -48.5170 C.3       2 UNK         0.1400 
     63 CB          1.5387  -13.8190  -48.7603 C.3       2 UNK        -0.1800 
     64 N           0.2209  -11.7162  -48.9198 N.am      2 UNK        -0.5000 
     65 C          -0.3484  -11.7228  -50.1296 C.2       1 UNK         0.5000 
     66 O           0.1809  -12.1964  -51.1353 O.2       1 UNK        -0.5000 
     67 C          -4.1200  -22.9991  -45.0325 C.2       11 UNK         0.5000 
     68 O          -5.2430  -23.5008  -44.9644 O.2       11 UNK        -0.5000 
     69 N          -3.2014  -23.1195  -44.0630 N.am      12 UNK        -0.5000 
     70 CA         -3.4242  -23.8794  -42.8308 C.3       12 UNK         0.1400 
     71 CB         -3.1661  -22.9947  -41.5987 C.3       12 UNK        -0.1800 
     72 C          -2.5665  -25.1523  -42.8029 C.2       12 UNK         0.5000 
     73 O          -3.1122  -26.2319  -42.5734 O.2       12 UNK        -0.5000 
     74 N          -1.2515  -25.0177  -43.0310 N.am      13 UNK        -0.5000 
     75 CA         -0.3008  -26.1294  -42.9446 C.3       13 UNK         0.1400 
     76 CB          1.1280  -25.6023  -42.7484 C.3       13 UNK        -0.1800 
     77 C          -0.4001  -27.0745  -44.1542 C.2       13 UNK         0.5000 
     78 O          -0.6708  -28.2621  -43.9701 O.2       13 UNK        -0.5000 
     79 N          -0.2054  -26.5378  -45.3684 N.am      14 UNK        -0.5000 
     80 CA         -0.3560  -27.2903  -46.6191 C.3       14 UNK         0.1400 
     81 CB          0.4297  -26.5937  -47.7408 C.3       14 UNK        -0.1800 
     82 C          -1.8308  -27.4909  -47.0214 C.2       14 UNK         0.5000 
     83 O          -2.1235  -28.4050  -47.7933 O.2       14 UNK        -0.5000 
     84 N          -2.7219  -26.6447  -46.4827 N.am      15 UNK        -0.5000 
     85 CA         -4.1745  -26.6244  -46.6839 C.3       15 UNK         0.1400 
     86 CB         -4.8264  -27.8867  -46.0827 C.3       15 UNK        -0.1800 
     87 C          -4.5875  -26.3626  -48.1487 C.2       15 UNK         0.5000 
     88 O          -5.5894  -26.9067  -48.6181 O.2       15 UNK        -0.5000 
     89 N          -3.8051  -25.5314  -48.8471 N.am      16 UNK        -0.5000 
     90 CA         -4.0678  -25.0866  -50.2130 C.3       16 UNK         0.1400 
     91 CB         -2.7475  -24.5848  -50.8212 C.3       16 UNK        -0.1800 
     92 C          -5.1300  -23.9727  -50.2501 C.2       16 UNK         0.5000 
     93 O          -5.3863  -23.3195  -49.2366 O.2       16 UNK        -0.5000 
     94 N          -5.7001  -23.7405  -51.4373 N.am      17 UNK        -0.5000 
     95 CA         -6.4818  -22.5408  -51.7301 C.3       17 UNK         0.1400 
     96 CB         -7.3609  -22.7986  -52.9635 C.3       17 UNK        -0.1800 
     97 C          -5.5225  -21.3698  -51.9948 C.2       17 UNK         0.5000 
     98 O          -4.5047  -21.5700  -52.6622 O.2       17 UNK        -0.5000 
     99 N          -5.8687  -20.1668  -51.5194 N.am      18 UNK        -0.5000 
    100 CA        -5.0493  -18.9581  -51.6695 C.3       18 UNK         0.1400 
    101 CB        -5.7124  -17.7877  -50.9281 C.3       18 UNK        -0.1800 
    102 C         -4.7763  -18.5883  -53.1396 C.2       18 UNK         0.5000 
    103 O         -3.6540  -18.2200  -53.4756 O.2       18 UNK        -0.5000 
    104 N         -5.7925  -18.7664  -53.9952 N.am      19 UNK        -0.5000 
    105 CA        -5.7237  -18.5415  -55.4408 C.3       19 UNK         0.1400 
    106 CB        -7.1552  -18.5107  -55.9996 C.3       19 UNK        -0.1800 
    107 C         -4.8702  -19.5784  -56.2019 C.2       19 UNK         0.5000 
    108 O         -4.4910  -19.3164  -57.3442 O.2       19 UNK        -0.5000 
    109 N         -4.5972  -20.7340  -55.5805 N.am      20 UNK        -0.5000 
    110 CA        -3.6926  -21.7555  -56.1060 C.3       20 UNK         0.1400 
    111 CB        -4.2244  -23.1506  -55.7391 C.3       20 UNK        -0.1800 
    112 C         -2.2696  -21.5523  -55.5597 C.2       20 UNK         0.5000 
    113 O         -1.3032  -21.7067  -56.3073 O.2       20 UNK        -0.5000 
    114 N         -2.1687  -21.2139  -54.2672 N.am      21 UNK        -0.5000 
    115 CA        -0.9154  -21.0039  -53.5470 C.3       21 UNK         0.1400 
    116 CB        -1.2095  -20.9582  -52.0420 C.3       21 UNK        -0.1800 
    117 C         -0.1467  -19.7430  -53.9811 C.2       21 UNK         0.5000 
    118 O          1.0851  -19.7650  -53.9813 O.2       21 UNK        -0.5000 
    119 N         -0.8659  -18.6736  -54.3355 N.am      22 UNK        -0.5000 
    120 CA        -0.2982  -17.3853  -54.7492 C.3       22 UNK         0.1400 
    121 C         -1.2091  -16.6276  -55.7570 C.2       22 UNK         0.5000 
    122 N         -0.7775  -15.4742  -56.2516 N.am      22 UNK        -0.7600 
    123 O         -2.2913  -17.0768  -56.1254 O.2       22 UNK        -0.5000 
    124 C124        0.1571  -16.5278  -53.5338 C.3       23 UNK        -0.0398 
    125 S125       -1.1941  -16.0454  -52.4015 S.3       23 UNK        -0.2404 
    126 C126       -0.7830  -17.0019  -50.9060 C.3       23 UNK        -0.0205 
    127 H127       -2.3752   -8.1273  -47.6037 H         1 UNK         0.0600 
    128 H128       -1.9943   -6.8392  -48.7501 H         1 UNK         0.0600 
    129 H129       -0.7233   -7.5155  -47.7254 H         1 UNK         0.0600 
    130 H130       -2.6201  -10.1110  -48.5925 H         1 UNK         0.3000 
    131 H131       -1.7895  -10.6624  -51.2547 H         1 UNK         0.0600 
    132 H132       -2.5984  -13.0894  -50.5900 H         1 UNK         0.0800 
    133 H133       -3.7090  -11.7909  -50.7783 H         1 UNK         0.0800 
    134 H134       -1.4744  -13.1693  -47.6657 H         1 UNK         0.0800 
    135 H135       -2.7661  -13.5700  -46.5914 H         1 UNK         0.0800 
    136 H136       -1.0526  -14.5941  -49.7150 H         1 UNK         0.1150 
    137 H137       -2.4694  -18.6167  -49.4872 H         1 UNK         0.1150 
    138 H138       -3.9959  -15.6402  -46.7932 H         1 UNK         0.1150 
    139 H139       -3.8054  -18.2630  -46.2592 H         1 UNK         0.0800 
    140 H140       -5.2168  -17.8848  -47.2172 H         1 UNK         0.0800 
    141 H141       -5.6528  -21.1214  -46.3810 H         1 UNK         0.0800 
    142 H142       -4.3920  -20.2778  -45.5173 H         1 UNK         0.0800 
    143 H143       -4.0884  -22.8305  -47.1293 H         1 UNK         0.0600 
    144 H144       -1.9903  -21.0499  -46.1419 H         1 UNK         0.3000 
    145 H145        0.2751  -22.8511  -48.3265 H         1 UNK         0.0600 
    146 H146       -0.7917  -20.0192  -47.8435 H         1 UNK         0.0600 
    147 H147        0.4500  -20.5147  -48.9879 H         1 UNK         0.0600 
    148 H148       -1.2255  -20.9991  -49.2322 H         1 UNK         0.0600 
    149 H149        0.9000  -20.8512  -46.3923 H         1 UNK         0.3000 
    150 H150        2.2591  -23.0331  -43.9002 H         1 UNK         0.0600 
    151 H151        4.1229  -21.4601  -44.2336 H         1 UNK         0.0600 
    152 H152        3.4358  -20.9107  -45.7608 H         1 UNK         0.0600 
    153 H153        4.0222  -22.5603  -45.5987 H         1 UNK         0.0600 
    154 H154        1.9379  -20.2580  -43.8123 H         1 UNK         0.3000 
    155 H155       -1.4386  -20.1717  -42.5269 H         1 UNK         0.0600 
    156 H156        0.1633  -20.5818  -40.6510 H         1 UNK         0.0600 
    157 H157        1.3257  -19.4880  -41.3935 H         1 UNK         0.0600 
    158 H158       -0.2201  -18.8744  -40.8124 H         1 UNK         0.0600 
    159 H159        0.3513  -18.0616  -43.1853 H         1 UNK         0.3000 
    160 H160       -0.7802  -17.5764  -46.5701 H         1 UNK         0.0600 
    161 H161       -0.9891  -15.2990  -45.6007 H         1 UNK         0.0600 
    162 H162       -0.9061  -15.9540  -43.9689 H         1 UNK         0.0600 
    163 H163       -2.2780  -16.3336  -44.9953 H         1 UNK         0.0600 
    164 H164        1.2804  -16.2708  -45.1513 H         1 UNK         0.3000 
    165 H165        3.9794  -18.4894  -45.9184 H         1 UNK         0.0600 
    166 H166        4.8946  -16.3524  -46.7562 H         1 UNK         0.0600 
    167 H167        3.6797  -16.9583  -47.8723 H         1 UNK         0.0600 
    168 H168        3.2861  -15.6345  -46.7844 H         1 UNK         0.0600 
    169 H169        3.7012  -16.0476  -44.3998 H         1 UNK         0.3000 
    170 H170        3.2864  -17.6130  -41.2201 H         1 UNK         0.0600 
    171 H171        5.6748  -16.1478  -42.4690 H         1 UNK         0.0600 
    172 H172        5.3365  -16.3043  -40.7450 H         1 UNK         0.0600 
    173 H173        5.7378  -17.7264  -41.6943 H         1 UNK         0.0600 
    174 H174        3.5885  -14.8820  -42.0327 H         1 UNK         0.3000 
    175 H175        0.1508  -14.1921  -42.6215 H         1 UNK         0.0600 
    176 H176        0.5201  -12.5253  -40.8327 H         1 UNK         0.0600 
    177 H177        1.9577  -13.3859  -40.2804 H         1 UNK         0.0600 
    178 H178        0.3691  -14.1277  -40.1308 H         1 UNK         0.0600 
    179 H179        2.3315  -12.4277  -42.5724 H         1 UNK         0.3000 
    180 H180        2.8785  -11.4440  -44.6185 H         1 UNK         0.0600 
    181 H181        4.8445  -13.7378  -45.1989 H         1 UNK         0.0600 
    182 H182        4.8281  -12.7529  -43.7408 H         1 UNK         0.0600 
    183 H183        5.2213  -12.0175  -45.2851 H         1 UNK         0.0600 
    184 H184        3.5030  -12.8940  -47.0472 H         1 UNK         0.3000 
    185 H185        2.2969  -11.8023  -49.0808 H         1 UNK         0.0600 
    186 H186        0.8259  -14.3455  -48.1241 H         1 UNK         0.0600 
    187 H187        1.3252  -14.0818  -49.7953 H         1 UNK         0.0600 
    188 H188        2.5265  -14.2239  -48.5430 H         1 UNK         0.0600 
    189 H189       -0.2621  -11.2643  -48.1515 H         1 UNK         0.3000 
    190 H190       -2.2856  -22.7004  -44.1824 H         1 UNK         0.3000 
    191 H191       -4.4652  -24.2021  -42.7637 H         1 UNK         0.0600 
    192 H192       -3.7676  -22.0864  -41.6345 H         1 UNK         0.0600 
    193 H193       -3.4337  -23.5245  -40.6838 H         1 UNK         0.0600 
    194 H194       -2.1226  -22.7004  -41.5029 H         1 UNK         0.0600 
    195 H195       -0.8710  -24.0883  -43.1955 H         1 UNK         0.3000 
    196 H196       -0.5492  -26.7088  -42.0524 H         1 UNK         0.0600 
    197 H197        1.8073  -26.4184  -42.5002 H         1 UNK         0.0600 
    198 H198        1.1783  -24.8766  -41.9364 H         1 UNK         0.0600 
    199 H199        1.5130  -25.1303  -43.6485 H         1 UNK         0.0600 
    200 H200        0.0751  -25.5645  -45.4552 H         1 UNK         0.3000 
    201 H201        0.0792  -28.2825  -46.4820 H         1 UNK         0.0600 
    202 H202        1.4858  -26.5063  -47.4854 H         1 UNK         0.0600 
    203 H203        0.0523  -25.5918  -47.9398 H         1 UNK         0.0600 
    204 H204        0.3649  -27.1578  -48.6719 H         1 UNK         0.0600 
    205 H205       -2.3483  -25.9059  -45.9048 H         1 UNK         0.3000 
    206 H206       -4.5445  -25.7725  -46.1158 H         1 UNK         0.0600 
    207 H207       -4.5260  -28.0265  -45.0440 H         1 UNK         0.0600 
    208 H208       -5.9142  -27.8097  -46.0967 H         1 UNK         0.0600 
    209 H209       -4.5550  -28.7864  -46.6354 H         1 UNK         0.0600 
    210 H210       -3.0344  -25.0709  -48.3680 H         1 UNK         0.3000 
    211 H211       -4.4269  -25.9337  -50.8013 H         1 UNK         0.0600 
    212 H212       -2.3545  -23.7299  -50.2699 H         1 UNK         0.0600 
    213 H213       -2.8816  -24.2719  -51.8576 H         1 UNK         0.0600 
    214 H214       -1.9868  -25.3656  -50.8125 H         1 UNK         0.0600 
    215 H215       -5.4098  -24.2870  -52.2346 H         1 UNK         0.3000 
    216 H216       -7.1265  -22.3023  -50.8814 H         1 UNK         0.0600 
    217 H217       -7.9683  -21.9240  -53.1999 H         1 UNK         0.0600 
    218 H218       -8.0436  -23.6311  -52.7927 H         1 UNK         0.0600 
    219 H219       -6.7638  -23.0311  -53.8463 H         1 UNK         0.0600 
    220 H220       -6.7177  -20.0732  -50.9812 H         1 UNK         0.3000 
    221 H221       -4.0861  -19.1567  -51.1966 H         1 UNK         0.0600 
    222 H222       -6.6878  -17.5418  -51.3489 H         1 UNK         0.0600 
    223 H223       -5.8498  -18.0168  -49.8715 H         1 UNK         0.0600 
    224 H224       -5.0918  -16.8920  -50.9846 H         1 UNK         0.0600 
    225 H225       -6.6748  -19.0922  -53.6293 H         1 UNK         0.3000 
    226 H226       -5.2680  -17.5633  -55.6095 H         1 UNK         0.0600 
    227 H227       -7.7479  -17.7284  -55.5251 H         1 UNK         0.0600 
    228 H228       -7.1528  -18.3085  -57.0715 H         1 UNK         0.0600 
    229 H229       -7.6668  -19.4617  -55.8462 H         1 UNK         0.0600 
    230 H230       -4.9131  -20.8612  -54.6280 H         1 UNK         0.3000 
    231 H231       -3.6482  -21.6938  -57.1954 H         1 UNK         0.0600 
    232 H232       -4.2594  -23.3052  -54.6606 H         1 UNK         0.0600 
    233 H233       -3.5878  -23.9303  -56.1590 H         1 UNK         0.0600 
    234 H234       -5.2292  -23.3046  -56.1325 H         1 UNK         0.0600 
    235 H235       -3.0171  -21.1666  -53.7097 H         1 UNK         0.3000 
    236 H236       -0.2708  -21.8641  -53.7391 H         1 UNK         0.0600 
    237 H237       -1.6543  -21.8916  -51.6995 H         1 UNK         0.0600 
    238 H238       -0.2923  -20.8030  -51.4730 H         1 UNK         0.0600 
    239 H239       -1.8980  -20.1507  -51.7919 H         1 UNK         0.0600 
    240 H240       -1.8814  -18.6963  -54.2874 H         1 UNK         0.3000 
    241 H241        0.5950  -17.6125  -55.3344 H         1 UNK         0.0600 
    242 H242       -1.3593  -14.9828  -56.9122 H         1 UNK         0.3800 
    243 H243        0.1123  -15.0797  -55.9903 H         1 UNK         0.3800 
    244 H244        0.9196  -17.0697  -52.9734 H         1 UNK         0.0800 
    245 H245        0.6518  -15.6169  -53.8723 H         1 UNK         0.0800 
    246 H246        0.2494  -16.8018  -50.6158 H         1 UNK         0.0800 
    247 H247       -0.8468  -18.0661  -51.1338 H         1 UNK         0.0800 
@<TRIPOS>BOND
     1    1    2 1    
     2    1  127 1    
     3    1  128 1    
     4    1  129 1    
     5    2    3 2    
     6    2    4 am   BACKBONE|DICT|INTERRES
     7    4    5 1    
     8    4  130 1    
     9    5    6 1    
    10    5   65 1    
    11    5  131 1    
    12    6    7 1    
    13    6  132 1    
    14    6  133 1    
    15    7    8 1    
    16    8    9 1    
    17    8  134 1    
    18    8  135 1    
    19    9   10 ar   
    20    9   14 ar   
    21   10   11 ar   
    22   10  136 1    
    23   11   12 ar   
    24   11  126 1    
    25   12   13 ar   
    26   12  137 1    
    27   13   14 ar   
    28   13   15 1    
    29   14  138 1    
    30   15   16 1    
    31   15  139 1    
    32   15  140 1    
    33   16   17 1    
    34   17   18 1    
    35   17  141 1    
    36   17  142 1    
    37   18   19 1    
    38   18   67 1    
    39   18  143 1    
    40   19   20 am   BACKBONE|DICT|INTERRES
    41   19  144 1    
    42   20   21 2    
    43   20   22 1    
    44   22   23 1    
    45   22   24 1    
    46   22  145 1    
    47   23  146 1    
    48   23  147 1    
    49   23  148 1    
    50   24   25 am   BACKBONE|DICT|INTERRES
    51   24  149 1    
    52   25   26 2    
    53   25   27 1    
    54   27   28 1    
    55   27   29 1    
    56   27  150 1    
    57   28  151 1    
    58   28  152 1    
    59   28  153 1    
    60   29   30 am   BACKBONE|DICT|INTERRES
    61   29  154 1    
    62   30   31 2    
    63   30   32 1    
    64   32   33 1    
    65   32   34 1    
    66   32  155 1    
    67   33  156 1    
    68   33  157 1    
    69   33  158 1    
    70   34   35 am   BACKBONE|DICT|INTERRES
    71   34  159 1    
    72   35   36 2    
    73   35   37 1    
    74   37   38 1    
    75   37   39 1    
    76   37  160 1    
    77   38  161 1    
    78   38  162 1    
    79   38  163 1    
    80   39   40 am   BACKBONE|DICT|INTERRES
    81   39  164 1    
    82   40   41 2    
    83   40   42 1    
    84   42   43 1    
    85   42   44 1    
    86   42  165 1    
    87   43  166 1    
    88   43  167 1    
    89   43  168 1    
    90   44   45 am   BACKBONE|DICT|INTERRES
    91   44  169 1    
    92   45   46 2    
    93   45   47 1    
    94   47   48 1    
    95   47   49 1    
    96   47  170 1    
    97   48  171 1    
    98   48  172 1    
    99   48  173 1    
   100   49   50 am   BACKBONE|DICT|INTERRES
   101   49  174 1    
   102   50   51 2    
   103   50   52 1    
   104   52   53 1    
   105   52   54 1    
   106   52  175 1    
   107   53  176 1    
   108   53  177 1    
   109   53  178 1    
   110   54   55 am   BACKBONE|DICT|INTERRES
   111   54  179 1    
   112   55   56 2    
   113   55   57 1    
   114   57   58 1    
   115   57   59 1    
   116   57  180 1    
   117   58  181 1    
   118   58  182 1    
   119   58  183 1    
   120   59   60 am   BACKBONE|DICT|INTERRES
   121   59  184 1    
   122   60   61 2    
   123   60   62 1    
   124   62   63 1    
   125   62   64 1    
   126   62  185 1    
   127   63  186 1    
   128   63  187 1    
   129   63  188 1    
   130   64   65 am   BACKBONE|DICT|INTERRES
   131   64  189 1    
   132   65   66 2    
   133   67   68 2    
   134   67   69 am   BACKBONE|DICT|INTERRES
   135   69   70 1    
   136   69  190 1    
   137   70   71 1    
   138   70   72 1    
   139   70  191 1    
   140   71  192 1    
   141   71  193 1    
   142   71  194 1    
   143   72   73 2    
   144   72   74 am   BACKBONE|DICT|INTERRES
   145   74   75 1    
   146   74  195 1    
   147   75   76 1    
   148   75   77 1    
   149   75  196 1    
   150   76  197 1    
   151   76  198 1    
   152   76  199 1    
   153   77   78 2    
   154   77   79 am   BACKBONE|DICT|INTERRES
   155   79   80 1    
   156   79  200 1    
   157   80   81 1    
   158   80   82 1    
   159   80  201 1    
   160   81  202 1    
   161   81  203 1    
   162   81  204 1    
   163   82   83 2    
   164   82   84 am   BACKBONE|DICT|INTERRES
   165   84   85 1    
   166   84  205 1    
   167   85   86 1    
   168   85   87 1    
   169   85  206 1    
   170   86  207 1    
   171   86  208 1    
   172   86  209 1    
   173   87   88 2    
   174   87   89 am   BACKBONE|DICT|INTERRES
   175   89   90 1    
   176   89  210 1    
   177   90   91 1    
   178   90   92 1    
   179   90  211 1    
   180   91  212 1    
   181   91  213 1    
   182   91  214 1    
   183   92   93 2    
   184   92   94 am   BACKBONE|DICT|INTERRES
   185   94   95 1    
   186   94  215 1    
   187   95   96 1    
   188   95   97 1    
   189   95  216 1    
   190   96  217 1    
   191   96  218 1    
   192   96  219 1    
   193   97   98 2    
   194   97   99 am   BACKBONE|DICT|INTERRES
   195   99  100 1    
   196   99  220 1    
   197  100  101 1    
   198  100  102 1    
   199  100  221 1    
   200  101  222 1    
   201  101  223 1    
   202  101  224 1    
   203  102  103 2    
   204  102  104 am   BACKBONE|DICT|INTERRES
   205  104  105 1    
   206  104  225 1    
   207  105  106 1    
   208  105  107 1    
   209  105  226 1    
   210  106  227 1    
   211  106  228 1    
   212  106  229 1    
   213  107  108 2    
   214  107  109 am   BACKBONE|DICT|INTERRES
   215  109  110 1    
   216  109  230 1    
   217  110  111 1    
   218  110  112 1    
   219  110  231 1    
   220  111  232 1    
   221  111  233 1    
   222  111  234 1    
   223  112  113 2    
   224  112  114 am   BACKBONE|DICT|INTERRES
   225  114  115 1    
   226  114  235 1    
   227  115  116 1    
   228  115  117 1    
   229  115  236 1    
   230  116  237 1    
   231  116  238 1    
   232  116  239 1    
   233  117  118 2    
   234  117  119 am   BACKBONE|DICT|INTERRES
   235  119  120 1    
   236  119  240 1    
   237  120  121 1    
   238  120  124 1    
   239  120  241 1    
   240  121  122 am   BACKBONE|DICT|INTERRES
   241  121  123 2    
   242  122  242 1    
   243  122  243 1    
   244  124  125 1    
   245  124  244 1    
   246  124  245 1    
   247  125  126 1    
   248  126  246 1    
   249  126  247 1    
@<TRIPOS>SUBSTRUCTURE
     1 UNK         1 GROUP             0       ****    0 ROOT    
