@<TRIPOS>MOLECULE
3R540
247   249    1
SMALL
USER_CHARGES


@<TRIPOS>ATOM
      1 CA          5.9587  -14.5357  -47.9736 C.3       0 UNK        -0.1800 
      2 C           4.6860  -13.7997  -47.5834 C.2       0 UNK         0.5000 
      3 O           4.4364  -13.5906  -46.3957 O.2       0 UNK        -0.5000 
      4 N           3.8883  -13.3798  -48.5755 N.am      1 UNK        -0.5000 
      5 CA          2.5676  -12.7513  -48.4068 C.3       1 UNK         0.1400 
      6 C6          1.7083  -12.7881  -49.6962 C.3       23 UNK        -0.0398 
      7 S7          1.5266  -14.4639  -50.3936 S.3       23 UNK        -0.2404 
      8 C8          0.1072  -15.1129  -49.4432 C.3       23 UNK        -0.0205 
      9 C9         -0.2677  -16.5378  -49.8422 C.ar      23 UNK        -0.0193 
     10 C10        -1.6124  -16.8807  -50.0316 C.ar      23 UNK        -0.1150 
     11 C11        -1.9681  -18.1779  -50.4153 C.ar      23 UNK        -0.0193 
     12 C12        -0.9681  -19.1263  -50.6248 C.ar      23 UNK        -0.1150 
     13 C13         0.3744  -18.8113  -50.4178 C.ar      23 UNK        -0.0193 
     14 C14         0.7178  -17.5194  -50.0129 C.ar      23 UNK        -0.1150 
     15 C15         1.4459  -19.8660  -50.6544 C.3       23 UNK        -0.0205 
     16 S16         1.7834  -20.8534  -49.1628 S.3       23 UNK        -0.2404 
     17 C17         0.1864  -21.7036  -48.9313 C.3       23 UNK        -0.0398 
     18 CA          0.2599  -22.8259  -47.8757 C.3       11 UNK         0.1400 
     19 N           0.5185  -22.3085  -46.5285 N.am      11 UNK        -0.5000 
     20 C           0.8326  -23.0711  -45.4732 C.2       10 UNK         0.5000 
     21 O           0.9390  -24.2963  -45.5261 O.2       10 UNK        -0.5000 
     22 CA          1.0151  -22.3544  -44.1236 C.3       10 UNK         0.1400 
     23 CB          2.3690  -21.6316  -44.0611 C.3       10 UNK        -0.1800 
     24 N          -0.0661  -21.4120  -43.8345 N.am      10 UNK        -0.5000 
     25 C          -1.3488  -21.7626  -43.6647 C.2       9 UNK         0.5000 
     26 O          -1.7511  -22.9243  -43.7069 O.2       9 UNK        -0.5000 
     27 CA         -2.3660  -20.6269  -43.4576 C.3       9 UNK         0.1400 
     28 CB         -2.3412  -20.1312  -42.0044 C.3       9 UNK        -0.1800 
     29 N          -2.1647  -19.5057  -44.3767 N.am      9 UNK        -0.5000 
     30 C          -2.2358  -19.6068  -45.7130 C.2       8 UNK         0.5000 
     31 O          -2.5026  -20.6522  -46.3028 O.2       8 UNK        -0.5000 
     32 CA         -1.8923  -18.3510  -46.5312 C.3       8 UNK         0.1400 
     33 CB         -3.0697  -17.3644  -46.5432 C.3       8 UNK        -0.1800 
     34 N          -0.6829  -17.6820  -46.0539 N.am      8 UNK        -0.5000 
     35 C           0.5292  -18.2545  -46.0156 C.2       7 UNK         0.5000 
     36 O           0.7559  -19.4047  -46.3876 O.2       7 UNK        -0.5000 
     37 CA          1.6666  -17.4339  -45.3865 C.3       7 UNK         0.1400 
     38 CB          2.1495  -16.3228  -46.3280 C.3       7 UNK        -0.1800 
     39 N           1.2843  -16.8518  -44.1027 N.am      7 UNK        -0.5000 
     40 C           0.9466  -17.5557  -43.0140 C.2       6 UNK         0.5000 
     41 O           0.9613  -18.7852  -42.9553 O.2       6 UNK        -0.5000 
     42 CA          0.4707  -16.7441  -41.7990 C.3       6 UNK         0.1400 
     43 CB          1.6621  -16.1448  -41.0364 C.3       6 UNK        -0.1800 
     44 N          -0.4536  -15.6781  -42.1839 N.am      6 UNK        -0.5000 
     45 C          -1.6968  -15.8852  -42.6390 C.2       5 UNK         0.5000 
     46 O          -2.2011  -16.9990  -42.7770 O.2       5 UNK        -0.5000 
     47 CA         -2.5034  -14.6363  -43.0335 C.3       5 UNK         0.1400 
     48 CB         -3.1297  -13.9788  -41.7945 C.3       5 UNK        -0.1800 
     49 N          -1.7074  -13.6470  -43.7602 N.am      5 UNK        -0.5000 
     50 C          -1.1882  -13.8506  -44.9780 C.2       4 UNK         0.5000 
     51 O          -1.2795  -14.9070  -45.6007 O.2       4 UNK        -0.5000 
     52 CA         -0.4130  -12.6801  -45.5992 C.3       4 UNK         0.1400 
     53 CB         -1.3839  -11.5669  -46.0259 C.3       4 UNK        -0.1800 
     54 N           0.6462  -12.1098  -44.7596 N.am      4 UNK        -0.5000 
     55 C           1.5860  -12.7765  -44.0715 C.2       3 UNK         0.5000 
     56 O           1.5969  -13.9987  -43.9194 O.2       3 UNK        -0.5000 
     57 CA          2.7412  -11.9178  -43.5270 C.3       3 UNK         0.1400 
     58 CB          3.7502  -12.7323  -42.6979 C.3       3 UNK        -0.1800 
     59 N           3.4319  -11.3371  -44.6747 N.am      3 UNK        -0.5000 
     60 C           3.3775  -10.0528  -45.0562 C.2       2 UNK         0.5000 
     61 O           2.8602   -9.1600  -44.3847 O.2       2 UNK        -0.5000 
     62 CA          3.9411   -9.7233  -46.4566 C.3       2 UNK         0.1400 
     63 CB          5.4276   -9.3469  -46.3690 C.3       2 UNK        -0.1800 
     64 N           3.7820  -10.8438  -47.3871 N.am      2 UNK        -0.5000 
     65 C           2.6001  -11.3301  -47.7926 C.2       1 UNK         0.5000 
     66 O           1.5436  -10.7168  -47.6449 O.2       1 UNK        -0.5000 
     67 C          -1.0086  -23.7009  -47.9362 C.2       11 UNK         0.5000 
     68 O          -1.0202  -24.6851  -48.6785 O.2       11 UNK        -0.5000 
     69 N          -2.0452  -23.3451  -47.1650 N.am      12 UNK        -0.5000 
     70 CA         -3.2715  -24.1275  -47.0200 C.3       12 UNK         0.1400 
     71 CB         -4.3630  -23.2753  -46.3565 C.3       12 UNK        -0.1800 
     72 C          -3.0375  -25.4324  -46.2391 C.2       12 UNK         0.5000 
     73 O          -3.5201  -26.4801  -46.6672 O.2       12 UNK        -0.5000 
     74 N          -2.2681  -25.3654  -45.1418 N.am      13 UNK        -0.5000 
     75 CA         -1.8731  -26.5195  -44.3262 C.3       13 UNK         0.1400 
     76 CB         -1.1707  -26.0368  -43.0484 C.3       13 UNK        -0.1800 
     77 C          -0.9832  -27.5185  -45.0892 C.2       13 UNK         0.5000 
     78 O          -1.1274  -28.7275  -44.9055 O.2       13 UNK        -0.5000 
     79 N          -0.1143  -26.9967  -45.9654 N.am      14 UNK        -0.5000 
     80 CA          0.7026  -27.7682  -46.9044 C.3       14 UNK         0.1400 
     81 CB          1.8215  -26.8606  -47.4409 C.3       14 UNK        -0.1800 
     82 C          -0.1030  -28.3684  -48.0770 C.2       14 UNK         0.5000 
     83 O           0.4419  -29.1916  -48.8134 O.2       14 UNK        -0.5000 
     84 N          -1.3621  -27.9328  -48.2458 N.am      15 UNK        -0.5000 
     85 CA         -2.2935  -28.2654  -49.3296 C.3       15 UNK         0.1400 
     86 CB         -2.6689  -29.7616  -49.2991 C.3       15 UNK        -0.1800 
     87 C          -1.8035  -27.7900  -50.7140 C.2       15 UNK         0.5000 
     88 O          -2.1546  -28.3877  -51.7331 O.2       15 UNK        -0.5000 
     89 N          -1.0014  -26.7185  -50.7233 N.am      16 UNK        -0.5000 
     90 CA         -0.4547  -26.0936  -51.9216 C.3       16 UNK         0.1400 
     91 CB          0.9306  -25.5080  -51.5983 C.3       16 UNK        -0.1800 
     92 C          -1.4046  -25.0057  -52.4420 C.2       16 UNK         0.5000 
     93 O          -1.7476  -25.0170  -53.6252 O.2       16 UNK        -0.5000 
     94 N          -1.8140  -24.1014  -51.5362 N.am      17 UNK        -0.5000 
     95 CA         -2.6336  -22.9070  -51.7812 C.3       17 UNK         0.1400 
     96 CB         -4.0905  -23.3248  -52.0790 C.3       17 UNK        -0.1800 
     97 C          -2.0335  -21.9660  -52.8581 C.2       17 UNK         0.5000 
     98 O          -0.8290  -22.0159  -53.1175 O.2       17 UNK        -0.5000 
     99 N          -2.8715  -21.1010  -53.4426 N.am      18 UNK        -0.5000 
    100 CA        -2.5311  -20.2180  -54.5638 C.3       18 UNK         0.1400 
    101 CB        -1.7255  -18.9922  -54.0848 C.3       18 UNK        -0.1800 
    102 C         -3.7973  -19.8218  -55.3491 C.2       18 UNK         0.5000 
    103 O         -3.8367  -18.7432  -55.9440 O.2       18 UNK        -0.5000 
    104 N         -4.8200  -20.6928  -55.3189 N.am      19 UNK        -0.5000 
    105 CA        -6.1690  -20.5592  -55.8903 C.3       19 UNK         0.1400 
    106 CB        -6.1274  -20.4035  -57.4234 C.3       19 UNK        -0.1800 
    107 C         -7.0272  -19.4587  -55.2325 C.2       19 UNK         0.5000 
    108 O         -8.1241  -19.7512  -54.7549 O.2       19 UNK        -0.5000 
    109 N         -6.5136  -18.2263  -55.2068 N.am      20 UNK        -0.5000 
    110 CA        -7.1042  -17.0724  -54.5358 C.3       20 UNK         0.1400 
    111 CB        -6.8178  -15.8199  -55.3787 C.3       20 UNK        -0.1800 
    112 C         -6.5062  -16.9151  -53.1280 C.2       20 UNK         0.5000 
    113 O         -5.3770  -17.3485  -52.8922 O.2       20 UNK        -0.5000 
    114 N         -7.2727  -16.2763  -52.2306 N.am      21 UNK        -0.5000 
    115 CA        -6.9262  -15.8956  -50.8493 C.3       21 UNK         0.1400 
    116 CB        -5.7411  -14.9051  -50.8400 C.3       21 UNK        -0.1800 
    117 C         -6.6994  -17.0695  -49.8673 C.2       21 UNK         0.5000 
    118 O         -6.3143  -16.8303  -48.7221 O.2       21 UNK        -0.5000 
    119 N         -6.9526  -18.3019  -50.3152 N.am      22 UNK        -0.5000 
    120 CA        -6.8058  -19.5552  -49.5670 C.3       22 UNK         0.1400 
    121 C         -8.0869  -20.4138  -49.7336 C.2       22 UNK         0.5000 
    122 N         -8.4280  -21.2248  -48.7372 N.am      22 UNK        -0.7600 
    123 O         -8.7581  -20.3787  -50.7675 O.2       22 UNK        -0.5000 
    124 C124       -5.5568  -20.3456  -50.0412 C.3       23 UNK        -0.0398 
    125 S125       -3.9961  -19.7208  -49.3357 S.3       23 UNK        -0.2404 
    126 C126       -3.4224  -18.5690  -50.6228 C.3       23 UNK        -0.0205 
    127 H127        6.0585  -14.6278  -49.0554 H         1 UNK         0.0600 
    128 H128        5.9553  -15.5381  -47.5454 H         1 UNK         0.0600 
    129 H129        6.8312  -14.0042  -47.5939 H         1 UNK         0.0600 
    130 H130        4.1536  -13.5689  -49.5321 H         1 UNK         0.3000 
    131 H131        2.0450  -13.3604  -47.6678 H         1 UNK         0.0600 
    132 H132        2.1547  -12.1523  -50.4625 H         1 UNK         0.0800 
    133 H133        0.7103  -12.3849  -49.5136 H         1 UNK         0.0800 
    134 H134        0.3360  -15.0967  -48.3788 H         1 UNK         0.0800 
    135 H135       -0.7432  -14.4445  -49.5880 H         1 UNK         0.0800 
    136 H136       -2.3839  -16.1385  -49.8815 H         1 UNK         0.1150 
    137 H137       -1.2400  -20.1223  -50.9343 H         1 UNK         0.1150 
    138 H138        1.7574  -17.2735  -49.8501 H         1 UNK         0.1150 
    139 H139        1.1497  -20.5274  -51.4706 H         1 UNK         0.0800 
    140 H140        2.3716  -19.3860  -50.9746 H         1 UNK         0.0800 
    141 H141       -0.1161  -22.1040  -49.9007 H         1 UNK         0.0800 
    142 H142       -0.5676  -20.9704  -48.6387 H         1 UNK         0.0800 
    143 H143        1.0969  -23.4762  -48.1388 H         1 UNK         0.0600 
    144 H144        0.4844  -21.2970  -46.4175 H         1 UNK         0.3000 
    145 H145        1.0058  -23.1170  -43.3421 H         1 UNK         0.0600 
    146 H146        2.5385  -21.1990  -43.0750 H         1 UNK         0.0600 
    147 H147        3.1898  -22.3217  -44.2599 H         1 UNK         0.0600 
    148 H148        2.4321  -20.8261  -44.7931 H         1 UNK         0.0600 
    149 H149        0.1913  -20.4321  -43.7598 H         1 UNK         0.3000 
    150 H150       -3.3585  -21.0367  -43.6552 H         1 UNK         0.0600 
    151 H151       -3.1395  -19.4122  -41.8206 H         1 UNK         0.0600 
    152 H152       -1.3941  -19.6504  -41.7581 H         1 UNK         0.0600 
    153 H153       -2.4823  -20.9575  -41.3065 H         1 UNK         0.0600 
    154 H154       -1.9606  -18.6045  -43.9560 H         1 UNK         0.3000 
    155 H155       -1.7033  -18.6698  -47.5576 H         1 UNK         0.0600 
    156 H156       -3.9840  -17.8480  -46.8894 H         1 UNK         0.0600 
    157 H157       -3.2664  -16.9594  -45.5501 H         1 UNK         0.0600 
    158 H158       -2.8739  -16.5286  -47.2148 H         1 UNK         0.0600 
    159 H159       -0.7927  -16.7204  -45.7414 H         1 UNK         0.3000 
    160 H160        2.5027  -18.1138  -45.2104 H         1 UNK         0.0600 
    161 H161        3.0708  -15.8782  -45.9539 H         1 UNK         0.0600 
    162 H162        1.4123  -15.5257  -46.4148 H         1 UNK         0.0600 
    163 H163        2.3520  -16.7061  -47.3289 H         1 UNK         0.0600 
    164 H164        1.2660  -15.8355  -44.0509 H         1 UNK         0.3000 
    165 H165       -0.0553  -17.4250  -41.1263 H         1 UNK         0.0600 
    166 H166        1.3321  -15.6088  -40.1465 H         1 UNK         0.0600 
    167 H167        2.3474  -16.9278  -40.7094 H         1 UNK         0.0600 
    168 H168        2.2306  -15.4505  -41.6556 H         1 UNK         0.0600 
    169 H169       -0.0910  -14.7359  -42.1765 H         1 UNK         0.3000 
    170 H170       -3.3133  -14.9620  -43.6900 H         1 UNK         0.0600 
    171 H171       -2.3697  -13.5989  -41.1106 H         1 UNK         0.0600 
    172 H172       -3.7763  -13.1469  -42.0742 H         1 UNK         0.0600 
    173 H173       -3.7417  -14.6929  -41.2417 H         1 UNK         0.0600 
    174 H174       -1.5650  -12.7526  -43.3146 H         1 UNK         0.3000 
    175 H175        0.0678  -13.0632  -46.4995 H         1 UNK         0.0600 
    176 H176       -0.8747  -10.7872  -46.5913 H         1 UNK         0.0600 
    177 H177       -1.8610  -11.0948  -45.1663 H         1 UNK         0.0600 
    178 H178       -2.1750  -11.9615  -46.6651 H         1 UNK         0.0600 
    179 H179        0.7512  -11.1074  -44.8269 H         1 UNK         0.3000 
    180 H180        2.3139  -11.1434  -42.8870 H         1 UNK         0.0600 
    181 H181        4.1940  -13.5401  -43.2819 H         1 UNK         0.0600 
    182 H182        3.2696  -13.1780  -41.8266 H         1 UNK         0.0600 
    183 H183        4.5601  -12.0998  -42.3345 H         1 UNK         0.0600 
    184 H184        3.8469  -12.0145  -45.3090 H         1 UNK         0.3000 
    185 H185        3.3889   -8.8673  -46.8499 H         1 UNK         0.0600 
    186 H186        6.0315  -10.1746  -45.9944 H         1 UNK         0.0600 
    187 H187        5.8197   -9.0591  -47.3446 H         1 UNK         0.0600 
    188 H188        5.5763   -8.5008  -45.6967 H         1 UNK         0.0600 
    189 H189        4.5994  -11.4139  -47.5489 H         1 UNK         0.3000 
    190 H190       -2.0032  -22.4709  -46.6467 H         1 UNK         0.3000 
    191 H191       -3.6204  -24.3965  -48.0195 H         1 UNK         0.0600 
    192 H192       -4.5907  -22.3938  -46.9565 H         1 UNK         0.0600 
    193 H193       -5.2884  -23.8414  -46.2451 H         1 UNK         0.0600 
    194 H194       -4.0621  -22.9359  -45.3649 H         1 UNK         0.0600 
    195 H195       -1.9446  -24.4563  -44.8202 H         1 UNK         0.3000 
    196 H196       -2.7835  -27.0467  -44.0339 H         1 UNK         0.0600 
    197 H197       -0.8703  -26.8790  -42.4239 H         1 UNK         0.0600 
    198 H198       -1.8307  -25.4087  -42.4500 H         1 UNK         0.0600 
    199 H199       -0.2743  -25.4591  -43.2760 H         1 UNK         0.0600 
    200 H200        0.0035  -25.9880  -45.9867 H         1 UNK         0.3000 
    201 H201        1.1620  -28.5974  -46.3628 H         1 UNK         0.0600 
    202 H202        2.4355  -26.4692  -46.6297 H         1 UNK         0.0600 
    203 H203        1.4184  -26.0124  -47.9952 H         1 UNK         0.0600 
    204 H204        2.4835  -27.4072  -48.1137 H         1 UNK         0.0600 
    205 H205       -1.7206  -27.2655  -47.5742 H         1 UNK         0.3000 
    206 H206       -3.2028  -27.6979  -49.1278 H         1 UNK         0.0600 
    207 H207       -3.0084  -30.0616  -48.3076 H         1 UNK         0.0600 
    208 H208       -3.4796  -29.9754  -49.9965 H         1 UNK         0.0600 
    209 H209       -1.8273  -30.3980  -49.5734 H         1 UNK         0.0600 
    210 H210       -0.8279  -26.2417  -49.8439 H         1 UNK         0.3000 
    211 H211       -0.3285  -26.8433  -52.7058 H         1 UNK         0.0600 
    212 H212        0.8852  -24.7618  -50.8042 H         1 UNK         0.0600 
    213 H213        1.3639  -25.0268  -52.4760 H         1 UNK         0.0600 
    214 H214        1.6212  -26.2894  -51.2804 H         1 UNK         0.0600 
    215 H215       -1.4898  -24.2248  -50.5841 H         1 UNK         0.3000 
    216 H216       -2.6333  -22.3423  -50.8476 H         1 UNK         0.0600 
    217 H217       -4.7654  -22.4698  -52.0880 H         1 UNK         0.0600 
    218 H218       -4.4621  -24.0096  -51.3165 H         1 UNK         0.0600 
    219 H219       -4.1781  -23.8258  -53.0438 H         1 UNK         0.0600 
    220 H220       -3.8352  -21.0730  -53.1441 H         1 UNK         0.3000 
    221 H221       -1.9080  -20.7798  -55.2628 H         1 UNK         0.0600 
    222 H222       -2.3243  -18.3376  -53.4520 H         1 UNK         0.0600 
    223 H223       -0.8374  -19.2853  -53.5258 H         1 UNK         0.0600 
    224 H224       -1.3835  -18.3966  -54.9318 H         1 UNK         0.0600 
    225 H225       -4.6585  -21.5695  -54.8451 H         1 UNK         0.3000 
    226 H226       -6.6680  -21.5068  -55.6802 H         1 UNK         0.0600 
    227 H227       -5.5789  -21.2233  -57.8875 H         1 UNK         0.0600 
    228 H228       -7.1352  -20.4102  -57.8404 H         1 UNK         0.0600 
    229 H229       -5.6571  -19.4694  -57.7311 H         1 UNK         0.0600 
    230 H230       -5.5588  -18.1159  -55.5396 H         1 UNK         0.3000 
    231 H231       -8.1857  -17.1996  -54.4523 H         1 UNK         0.0600 
    232 H232       -5.7465  -15.6423  -55.4833 H         1 UNK         0.0600 
    233 H233       -7.2557  -14.9308  -54.9233 H         1 UNK         0.0600 
    234 H234       -7.2405  -15.9140  -56.3792 H         1 UNK         0.0600 
    235 H235       -8.1923  -15.9792  -52.5277 H         1 UNK         0.3000 
    236 H236       -7.7966  -15.3607  -50.4651 H         1 UNK         0.0600 
    237 H237       -4.8126  -15.3770  -51.1636 H         1 UNK         0.0600 
    238 H238       -5.9314  -14.0559  -51.4968 H         1 UNK         0.0600 
    239 H239       -5.5699  -14.5055  -49.8396 H         1 UNK         0.0600 
    240 H240       -7.3239  -18.4061  -51.2486 H         1 UNK         0.3000 
    241 H241       -6.7057  -19.3372  -48.5015 H         1 UNK         0.0600 
    242 H242       -9.2524  -21.7971  -48.8367 H         1 UNK         0.3800 
    243 H243       -7.8921  -21.2770  -47.8812 H         1 UNK         0.3800 
    244 H244       -5.6230  -21.3916  -49.7337 H         1 UNK         0.0800 
    245 H245       -5.4979  -20.3574  -51.1307 H         1 UNK         0.0800 
    246 H246       -4.0519  -17.6805  -50.6178 H         1 UNK         0.0800 
    247 H247       -3.5392  -19.0274  -51.6042 H         1 UNK         0.0800 
@<TRIPOS>BOND
     1    1    2 1    
     2    1  127 1    
     3    1  128 1    
     4    1  129 1    
     5    2    3 2    
     6    2    4 am   BACKBONE|DICT|INTERRES
     7    4    5 1    
     8    4  130 1    
     9    5    6 1    
    10    5   65 1    
    11    5  131 1    
    12    6    7 1    
    13    6  132 1    
    14    6  133 1    
    15    7    8 1    
    16    8    9 1    
    17    8  134 1    
    18    8  135 1    
    19    9   10 ar   
    20    9   14 ar   
    21   10   11 ar   
    22   10  136 1    
    23   11   12 ar   
    24   11  126 1    
    25   12   13 ar   
    26   12  137 1    
    27   13   14 ar   
    28   13   15 1    
    29   14  138 1    
    30   15   16 1    
    31   15  139 1    
    32   15  140 1    
    33   16   17 1    
    34   17   18 1    
    35   17  141 1    
    36   17  142 1    
    37   18   19 1    
    38   18   67 1    
    39   18  143 1    
    40   19   20 am   BACKBONE|DICT|INTERRES
    41   19  144 1    
    42   20   21 2    
    43   20   22 1    
    44   22   23 1    
    45   22   24 1    
    46   22  145 1    
    47   23  146 1    
    48   23  147 1    
    49   23  148 1    
    50   24   25 am   BACKBONE|DICT|INTERRES
    51   24  149 1    
    52   25   26 2    
    53   25   27 1    
    54   27   28 1    
    55   27   29 1    
    56   27  150 1    
    57   28  151 1    
    58   28  152 1    
    59   28  153 1    
    60   29   30 am   BACKBONE|DICT|INTERRES
    61   29  154 1    
    62   30   31 2    
    63   30   32 1    
    64   32   33 1    
    65   32   34 1    
    66   32  155 1    
    67   33  156 1    
    68   33  157 1    
    69   33  158 1    
    70   34   35 am   BACKBONE|DICT|INTERRES
    71   34  159 1    
    72   35   36 2    
    73   35   37 1    
    74   37   38 1    
    75   37   39 1    
    76   37  160 1    
    77   38  161 1    
    78   38  162 1    
    79   38  163 1    
    80   39   40 am   BACKBONE|DICT|INTERRES
    81   39  164 1    
    82   40   41 2    
    83   40   42 1    
    84   42   43 1    
    85   42   44 1    
    86   42  165 1    
    87   43  166 1    
    88   43  167 1    
    89   43  168 1    
    90   44   45 am   BACKBONE|DICT|INTERRES
    91   44  169 1    
    92   45   46 2    
    93   45   47 1    
    94   47   48 1    
    95   47   49 1    
    96   47  170 1    
    97   48  171 1    
    98   48  172 1    
    99   48  173 1    
   100   49   50 am   BACKBONE|DICT|INTERRES
   101   49  174 1    
   102   50   51 2    
   103   50   52 1    
   104   52   53 1    
   105   52   54 1    
   106   52  175 1    
   107   53  176 1    
   108   53  177 1    
   109   53  178 1    
   110   54   55 am   BACKBONE|DICT|INTERRES
   111   54  179 1    
   112   55   56 2    
   113   55   57 1    
   114   57   58 1    
   115   57   59 1    
   116   57  180 1    
   117   58  181 1    
   118   58  182 1    
   119   58  183 1    
   120   59   60 am   BACKBONE|DICT|INTERRES
   121   59  184 1    
   122   60   61 2    
   123   60   62 1    
   124   62   63 1    
   125   62   64 1    
   126   62  185 1    
   127   63  186 1    
   128   63  187 1    
   129   63  188 1    
   130   64   65 am   BACKBONE|DICT|INTERRES
   131   64  189 1    
   132   65   66 2    
   133   67   68 2    
   134   67   69 am   BACKBONE|DICT|INTERRES
   135   69   70 1    
   136   69  190 1    
   137   70   71 1    
   138   70   72 1    
   139   70  191 1    
   140   71  192 1    
   141   71  193 1    
   142   71  194 1    
   143   72   73 2    
   144   72   74 am   BACKBONE|DICT|INTERRES
   145   74   75 1    
   146   74  195 1    
   147   75   76 1    
   148   75   77 1    
   149   75  196 1    
   150   76  197 1    
   151   76  198 1    
   152   76  199 1    
   153   77   78 2    
   154   77   79 am   BACKBONE|DICT|INTERRES
   155   79   80 1    
   156   79  200 1    
   157   80   81 1    
   158   80   82 1    
   159   80  201 1    
   160   81  202 1    
   161   81  203 1    
   162   81  204 1    
   163   82   83 2    
   164   82   84 am   BACKBONE|DICT|INTERRES
   165   84   85 1    
   166   84  205 1    
   167   85   86 1    
   168   85   87 1    
   169   85  206 1    
   170   86  207 1    
   171   86  208 1    
   172   86  209 1    
   173   87   88 2    
   174   87   89 am   BACKBONE|DICT|INTERRES
   175   89   90 1    
   176   89  210 1    
   177   90   91 1    
   178   90   92 1    
   179   90  211 1    
   180   91  212 1    
   181   91  213 1    
   182   91  214 1    
   183   92   93 2    
   184   92   94 am   BACKBONE|DICT|INTERRES
   185   94   95 1    
   186   94  215 1    
   187   95   96 1    
   188   95   97 1    
   189   95  216 1    
   190   96  217 1    
   191   96  218 1    
   192   96  219 1    
   193   97   98 2    
   194   97   99 am   BACKBONE|DICT|INTERRES
   195   99  100 1    
   196   99  220 1    
   197  100  101 1    
   198  100  102 1    
   199  100  221 1    
   200  101  222 1    
   201  101  223 1    
   202  101  224 1    
   203  102  103 2    
   204  102  104 am   BACKBONE|DICT|INTERRES
   205  104  105 1    
   206  104  225 1    
   207  105  106 1    
   208  105  107 1    
   209  105  226 1    
   210  106  227 1    
   211  106  228 1    
   212  106  229 1    
   213  107  108 2    
   214  107  109 am   BACKBONE|DICT|INTERRES
   215  109  110 1    
   216  109  230 1    
   217  110  111 1    
   218  110  112 1    
   219  110  231 1    
   220  111  232 1    
   221  111  233 1    
   222  111  234 1    
   223  112  113 2    
   224  112  114 am   BACKBONE|DICT|INTERRES
   225  114  115 1    
   226  114  235 1    
   227  115  116 1    
   228  115  117 1    
   229  115  236 1    
   230  116  237 1    
   231  116  238 1    
   232  116  239 1    
   233  117  118 2    
   234  117  119 am   BACKBONE|DICT|INTERRES
   235  119  120 1    
   236  119  240 1    
   237  120  121 1    
   238  120  124 1    
   239  120  241 1    
   240  121  122 am   BACKBONE|DICT|INTERRES
   241  121  123 2    
   242  122  242 1    
   243  122  243 1    
   244  124  125 1    
   245  124  244 1    
   246  124  245 1    
   247  125  126 1    
   248  126  246 1    
   249  126  247 1    
@<TRIPOS>SUBSTRUCTURE
     1 UNK         1 GROUP             0       ****    0 ROOT    
