@<TRIPOS>MOLECULE
3R540
247   249    1
SMALL
USER_CHARGES


@<TRIPOS>ATOM
      1 CA          4.0331  -10.8513  -48.1167 C.3       0 UNK        -0.1800 
      2 C           2.9754  -11.8657  -48.5284 C.2       0 UNK         0.5000 
      3 O           3.3162  -12.9360  -49.0317 O.2       0 UNK        -0.5000 
      4 N           1.6976  -11.5340  -48.3159 N.am      1 UNK        -0.5000 
      5 CA          0.5460  -12.3842  -48.6311 C.3       1 UNK         0.1400 
      6 C6          0.0853  -12.2274  -50.1061 C.3       23 UNK        -0.0398 
      7 S7         -0.7426  -13.7220  -50.7451 S.3       23 UNK        -0.2404 
      8 C8          0.6746  -14.6285  -51.4346 C.3       23 UNK        -0.0205 
      9 C9          0.2653  -16.0314  -51.8498 C.ar      23 UNK        -0.0193 
     10 C10        -0.0865  -16.3069  -53.1745 C.ar      23 UNK        -0.1150 
     11 C11        -0.4767  -17.5957  -53.5519 C.ar      23 UNK        -0.0193 
     12 C12        -0.5119  -18.6118  -52.5923 C.ar      23 UNK        -0.1150 
     13 C13        -0.1697  -18.3447  -51.2644 C.ar      23 UNK        -0.0193 
     14 C14         0.2230  -17.0548  -50.8995 C.ar      23 UNK        -0.1150 
     15 C15        -0.2739  -19.4310  -50.2104 C.3       23 UNK        -0.0205 
     16 S16         1.3312  -20.2084  -49.8597 S.3       23 UNK        -0.2404 
     17 C17         1.2010  -20.5034  -48.0621 C.3       23 UNK        -0.0398 
     18 CA          0.8280  -21.9570  -47.6823 C.3       11 UNK         0.1400 
     19 N           1.2464  -22.2366  -46.3137 N.am      11 UNK        -0.5000 
     20 C           1.5079  -23.4396  -45.7928 C.2       10 UNK         0.5000 
     21 O           1.4254  -24.4933  -46.4266 O.2       10 UNK        -0.5000 
     22 CA          1.9663  -23.4351  -44.3169 C.3       10 UNK         0.1400 
     23 CB          2.5870  -24.7720  -43.8629 C.3       10 UNK        -0.1800 
     24 N           2.8585  -22.3057  -44.0222 N.am      10 UNK        -0.5000 
     25 C           4.0520  -22.0391  -44.5764 C.2       9 UNK         0.5000 
     26 O           4.6460  -22.8089  -45.3323 O.2       9 UNK        -0.5000 
     27 CA          4.6803  -20.6626  -44.2733 C.3       9 UNK         0.1400 
     28 CB          4.5722  -19.7493  -45.5049 C.3       9 UNK        -0.1800 
     29 N           4.0719  -19.9750  -43.1335 N.am      9 UNK        -0.5000 
     30 C           4.2978  -20.2767  -41.8484 C.2       8 UNK         0.5000 
     31 O           5.0872  -21.1461  -41.4775 O.2       8 UNK        -0.5000 
     32 CA          3.4795  -19.4941  -40.8035 C.3       8 UNK         0.1400 
     33 CB          4.1562  -18.1547  -40.4752 C.3       8 UNK        -0.1800 
     34 N           2.0965  -19.2541  -41.2240 N.am      8 UNK        -0.5000 
     35 C           1.1862  -20.2178  -41.4259 C.2       7 UNK         0.5000 
     36 O           1.4077  -21.4162  -41.2523 O.2       7 UNK        -0.5000 
     37 CA         -0.1896  -19.7793  -41.9545 C.3       7 UNK         0.1400 
     38 CB         -1.0709  -19.2469  -40.8152 C.3       7 UNK        -0.1800 
     39 N          -0.0973  -18.7816  -43.0214 N.am      7 UNK        -0.5000 
     40 C           0.4528  -19.0048  -44.2234 C.2       6 UNK         0.5000 
     41 O           0.9175  -20.0885  -44.5712 O.2       6 UNK        -0.5000 
     42 CA          0.5431  -17.8114  -45.1892 C.3       6 UNK         0.1400 
     43 CB         -0.7970  -17.5750  -45.9030 C.3       6 UNK        -0.1800 
     44 N           0.9788  -16.5861  -44.5231 N.am      6 UNK        -0.5000 
     45 C           2.1593  -16.4341  -43.9054 C.2       5 UNK         0.5000 
     46 O           3.0379  -17.2959  -43.8794 O.2       5 UNK        -0.5000 
     47 CA          2.3634  -15.1207  -43.1335 C.3       5 UNK         0.1400 
     48 CB          2.7383  -13.9715  -44.0827 C.3       5 UNK        -0.1800 
     49 N           1.1752  -14.7622  -42.3578 N.am      5 UNK        -0.5000 
     50 C           0.7373  -15.4440  -41.2891 C.2       4 UNK         0.5000 
     51 O           1.3127  -16.4265  -40.8218 O.2       4 UNK        -0.5000 
     52 CA         -0.5859  -14.9702  -40.6609 C.3       4 UNK         0.1400 
     53 CB         -0.3379  -13.8072  -39.6889 C.3       4 UNK        -0.1800 
     54 N          -1.5706  -14.5627  -41.6642 N.am      4 UNK        -0.5000 
     55 C          -2.1620  -15.4000  -42.5284 C.2       3 UNK         0.5000 
     56 O          -1.9632  -16.6134  -42.5501 O.2       3 UNK        -0.5000 
     57 CA         -3.0877  -14.7632  -43.5819 C.3       3 UNK         0.1400 
     58 CB         -4.5035  -14.5758  -43.0174 C.3       3 UNK        -0.1800 
     59 N          -2.5866  -13.4810  -44.0887 N.am      3 UNK        -0.5000 
     60 C          -1.4267  -13.3340  -44.7414 C.2       2 UNK         0.5000 
     61 O          -0.6475  -14.2644  -44.9620 O.2       2 UNK        -0.5000 
     62 CA         -1.0422  -11.9055  -45.1628 C.3       2 UNK         0.1400 
     63 CB         -0.3179  -11.1892  -44.0120 C.3       2 UNK        -0.1800 
     64 N          -0.1586  -11.9380  -46.3269 N.am      2 UNK        -0.5000 
     65 C          -0.5668  -12.1764  -47.5811 C.2       1 UNK         0.5000 
     66 O          -1.7546  -12.2237  -47.9049 O.2       1 UNK        -0.5000 
     67 C          -0.6827  -22.2252  -47.8361 C.2       11 UNK         0.5000 
     68 O          -1.4451  -22.0475  -46.8802 O.2       11 UNK        -0.5000 
     69 N          -1.0904  -22.6143  -49.0520 N.am      12 UNK        -0.5000 
     70 CA         -2.4475  -23.0225  -49.4310 C.3       12 UNK         0.1400 
     71 CB         -2.4749  -23.3178  -50.9369 C.3       12 UNK        -0.1800 
     72 C          -3.5617  -22.0276  -49.0551 C.2       12 UNK         0.5000 
     73 O          -4.6405  -22.4620  -48.6617 O.2       12 UNK        -0.5000 
     74 N          -3.2658  -20.7211  -49.1044 N.am      13 UNK        -0.5000 
     75 CA         -4.1832  -19.6381  -48.7333 C.3       13 UNK         0.1400 
     76 CB         -3.5326  -18.2859  -49.0647 C.3       13 UNK        -0.1800 
     77 C          -4.6314  -19.6698  -47.2566 C.2       13 UNK         0.5000 
     78 O          -5.6891  -19.1267  -46.9399 O.2       13 UNK        -0.5000 
     79 N          -3.8380  -20.3113  -46.3890 N.am      14 UNK        -0.5000 
     80 CA         -4.1894  -20.5863  -44.9990 C.3       14 UNK         0.1400 
     81 CB         -3.0171  -20.1887  -44.0932 C.3       14 UNK        -0.1800 
     82 C          -4.5357  -22.0714  -44.8098 C.2       14 UNK         0.5000 
     83 O          -5.5257  -22.3807  -44.1472 O.2       14 UNK        -0.5000 
     84 N          -3.7176  -22.9635  -45.3869 N.am      15 UNK        -0.5000 
     85 CA         -3.7994  -24.4122  -45.1896 C.3       15 UNK         0.1400 
     86 CB         -2.4975  -25.0576  -45.6898 C.3       15 UNK        -0.1800 
     87 C          -5.0239  -25.0813  -45.8445 C.2       15 UNK         0.5000 
     88 O          -5.5144  -26.0783  -45.3128 O.2       15 UNK        -0.5000 
     89 N          -5.4877  -24.5406  -46.9775 N.am      16 UNK        -0.5000 
     90 CA         -6.5926  -25.0726  -47.7797 C.3       16 UNK         0.1400 
     91 CB         -6.0064  -25.7150  -49.0501 C.3       16 UNK        -0.1800 
     92 C          -7.6308  -23.9899  -48.1349 C.2       16 UNK         0.5000 
     93 O          -8.5385  -24.2644  -48.9216 O.2       16 UNK        -0.5000 
     94 N          -7.4731  -22.7792  -47.5789 N.am      17 UNK        -0.5000 
     95 CA         -8.2351  -21.5420  -47.8012 C.3       17 UNK         0.1400 
     96 CB         -9.7192  -21.7132  -47.4258 C.3       17 UNK        -0.1800 
     97 C          -8.0796  -20.9374  -49.2132 C.2       17 UNK         0.5000 
     98 O          -7.8812  -19.7283  -49.3339 O.2       17 UNK        -0.5000 
     99 N          -8.1669  -21.7692  -50.2561 N.am      18 UNK        -0.5000 
    100 CA        -7.9199  -21.3980  -51.6456 C.3       18 UNK         0.1400 
    101 CB        -8.5786  -22.4351  -52.5685 C.3       18 UNK        -0.1800 
    102 C         -6.4073  -21.3139  -51.9061 C.2       18 UNK         0.5000 
    103 O         -5.7034  -22.3005  -51.6909 O.2       18 UNK        -0.5000 
    104 N         -5.9386  -20.1493  -52.3741 N.am      19 UNK        -0.5000 
    105 CA        -4.5278  -19.8770  -52.6709 C.3       19 UNK         0.1400 
    106 CB        -4.3571  -18.3743  -52.9388 C.3       19 UNK        -0.1800 
    107 C         -3.9675  -20.7075  -53.8429 C.2       19 UNK         0.5000 
    108 O         -2.7819  -21.0388  -53.8325 O.2       19 UNK        -0.5000 
    109 N         -4.8407  -21.0425  -54.8053 N.am      20 UNK        -0.5000 
    110 CA        -4.5895  -21.8717  -55.9887 C.3       20 UNK         0.1400 
    111 CB        -4.2489  -23.3173  -55.5606 C.3       20 UNK        -0.1800 
    112 C         -3.5467  -21.2709  -56.9596 C.2       20 UNK         0.5000 
    113 O         -3.2068  -20.0882  -56.8673 O.2       20 UNK        -0.5000 
    114 N         -3.0844  -22.0925  -57.9097 N.am      21 UNK        -0.5000 
    115 CA        -2.0695  -21.7500  -58.9030 C.3       21 UNK         0.1400 
    116 CB        -2.2744  -22.6355  -60.1454 C.3       21 UNK        -0.1800 
    117 C         -0.6617  -21.9010  -58.2969 C.2       21 UNK         0.5000 
    118 O          0.0123  -22.9050  -58.5354 O.2       21 UNK        -0.5000 
    119 N         -0.2604  -20.9121  -57.4915 N.am      22 UNK        -0.5000 
    120 CA         1.0493  -20.8442  -56.8207 C.3       22 UNK         0.1400 
    121 C          2.2708  -20.5756  -57.7523 C.2       22 UNK         0.5000 
    122 N          2.0827  -20.1926  -59.0097 N.am      22 UNK        -0.7600 
    123 O          3.4126  -20.7321  -57.3279 O.2       22 UNK        -0.5000 
    124 C124        1.0213  -19.8732  -55.6122 C.3       23 UNK        -0.0398 
    125 S125        0.5561  -18.1604  -56.0577 S.3       23 UNK        -0.2404 
    126 C126       -0.8881  -17.8776  -54.9893 C.3       23 UNK        -0.0205 
    127 H127        3.5887   -9.9500  -47.6937 H         1 UNK         0.0600 
    128 H128        4.6316  -10.5620  -48.9805 H         1 UNK         0.0600 
    129 H129        4.6978  -11.2853  -47.3697 H         1 UNK         0.0600 
    130 H130        1.4733  -10.6355  -47.9090 H         1 UNK         0.3000 
    131 H131        0.8601  -13.4204  -48.4856 H         1 UNK         0.0600 
    132 H132       -0.5804  -11.3706  -50.2214 H         1 UNK         0.0800 
    133 H133        0.9400  -12.0192  -50.7514 H         1 UNK         0.0800 
    134 H134        1.4733  -14.6823  -50.6927 H         1 UNK         0.0800 
    135 H135        1.0793  -14.0806  -52.2870 H         1 UNK         0.0800 
    136 H136       -0.0639  -15.5168  -53.9121 H         1 UNK         0.1150 
    137 H137       -0.8241  -19.6069  -52.8744 H         1 UNK         0.1150 
    138 H138        0.4809  -16.8427  -49.8712 H         1 UNK         0.1150 
    139 H139       -0.6905  -18.9952  -49.3032 H         1 UNK         0.0800 
    140 H140       -0.9685  -20.2007  -50.5450 H         1 UNK         0.0800 
    141 H141        0.5293  -19.7851  -47.5924 H         1 UNK         0.0800 
    142 H142        2.1884  -20.2709  -47.6608 H         1 UNK         0.0800 
    143 H143        1.3713  -22.6400  -48.3391 H         1 UNK         0.0600 
    144 H144        1.2451  -21.4399  -45.6786 H         1 UNK         0.3000 
    145 H145        1.0666  -23.2711  -43.7218 H         1 UNK         0.0600 
    146 H146        2.8933  -24.7279  -42.8177 H         1 UNK         0.0600 
    147 H147        1.8675  -25.5861  -43.9561 H         1 UNK         0.0600 
    148 H148        3.4602  -25.0394  -44.4583 H         1 UNK         0.0600 
    149 H149        2.4561  -21.5869  -43.4349 H         1 UNK         0.3000 
    150 H150        5.7388  -20.8250  -44.0603 H         1 UNK         0.0600 
    151 H151        5.0176  -20.2158  -46.3845 H         1 UNK         0.0600 
    152 H152        5.0904  -18.8045  -45.3404 H         1 UNK         0.0600 
    153 H153        3.5327  -19.5213  -45.7422 H         1 UNK         0.0600 
    154 H154        3.4560  -19.1972  -43.3503 H         1 UNK         0.3000 
    155 H155        3.4511  -20.0923  -39.8905 H         1 UNK         0.0600 
    156 H156        5.1846  -18.3061  -40.1453 H         1 UNK         0.0600 
    157 H157        3.6309  -17.6344  -39.6742 H         1 UNK         0.0600 
    158 H158        4.1822  -17.4936  -41.3419 H         1 UNK         0.0600 
    159 H159        1.8208  -18.2844  -41.3465 H         1 UNK         0.3000 
    160 H160       -0.6744  -20.6656  -42.3678 H         1 UNK         0.0600 
    161 H161       -2.0778  -19.0234  -41.1679 H         1 UNK         0.0600 
    162 H162       -0.6599  -18.3362  -40.3795 H         1 UNK         0.0600 
    163 H163       -1.1629  -19.9824  -40.0152 H         1 UNK         0.0600 
    164 H164       -0.5198  -17.8771  -42.8335 H         1 UNK         0.3000 
    165 H165        1.2913  -18.0570  -45.9451 H         1 UNK         0.0600 
    166 H166       -0.6990  -16.8199  -46.6833 H         1 UNK         0.0600 
    167 H167       -1.1606  -18.4889  -46.3740 H         1 UNK         0.0600 
    168 H168       -1.5674  -17.2376  -45.2103 H         1 UNK         0.0600 
    169 H169        0.3286  -15.8038  -44.5338 H         1 UNK         0.3000 
    170 H170        3.1916  -15.2676  -42.4368 H         1 UNK         0.0600 
    171 H171        2.9188  -13.0480  -43.5325 H         1 UNK         0.0600 
    172 H172        3.6513  -14.2055  -44.6317 H         1 UNK         0.0600 
    173 H173        1.9582  -13.7781  -44.8186 H         1 UNK         0.0600 
    174 H174        0.6135  -14.0027  -42.7102 H         1 UNK         0.3000 
    175 H175       -1.0034  -15.8052  -40.0944 H         1 UNK         0.0600 
    176 H176        0.3819  -14.0894  -38.9193 H         1 UNK         0.0600 
    177 H177        0.0563  -12.9286  -40.2011 H         1 UNK         0.0600 
    178 H178       -1.2572  -13.5156  -39.1806 H         1 UNK         0.0600 
    179 H179       -1.7927  -13.5798  -41.7162 H         1 UNK         0.3000 
    180 H180       -3.1481  -15.4535  -44.4259 H         1 UNK         0.0600 
    181 H181       -4.9048  -15.5214  -42.6500 H         1 UNK         0.0600 
    182 H182       -4.5174  -13.8684  -42.1874 H         1 UNK         0.0600 
    183 H183       -5.1880  -14.2100  -43.7829 H         1 UNK         0.0600 
    184 H184       -3.1719  -12.6729  -43.9325 H         1 UNK         0.3000 
    185 H185       -1.9486  -11.3497  -45.4122 H         1 UNK         0.0600 
    186 H186       -0.9531  -11.1237  -43.1277 H         1 UNK         0.0600 
    187 H187        0.5963  -11.7082  -43.7220 H         1 UNK         0.0600 
    188 H188       -0.0487  -10.1704  -44.2913 H         1 UNK         0.0600 
    189 H189        0.8321  -11.9581  -46.1365 H         1 UNK         0.3000 
    190 H190       -0.3914  -22.7156  -49.7742 H         1 UNK         0.3000 
    191 H191       -2.6609  -23.9544  -48.9052 H         1 UNK         0.0600 
    192 H192       -1.7533  -24.0900  -51.2036 H         1 UNK         0.0600 
    193 H193       -2.2488  -22.4282  -51.5253 H         1 UNK         0.0600 
    194 H194       -3.4569  -23.6764  -51.2473 H         1 UNK         0.0600 
    195 H195       -2.3422  -20.4549  -49.4019 H         1 UNK         0.3000 
    196 H196       -5.0783  -19.7458  -49.3489 H         1 UNK         0.0600 
    197 H197       -4.2443  -17.4714  -48.9244 H         1 UNK         0.0600 
    198 H198       -3.1955  -18.2439  -50.1002 H         1 UNK         0.0600 
    199 H199       -2.6773  -18.0806  -48.4210 H         1 UNK         0.0600 
    200 H200       -2.9934  -20.7531  -46.7344 H         1 UNK         0.3000 
    201 H201       -5.0595  -20.0017  -44.6929 H         1 UNK         0.0600 
    202 H202       -3.2260  -20.4323  -43.0509 H         1 UNK         0.0600 
    203 H203       -2.0987  -20.7040  -44.3768 H         1 UNK         0.0600 
    204 H204       -2.8312  -19.1161  -44.1425 H         1 UNK         0.0600 
    205 H205       -2.9109  -22.6285  -45.9072 H         1 UNK         0.3000 
    206 H206       -3.8689  -24.5952  -44.1152 H         1 UNK         0.0600 
    207 H207       -1.6288  -24.6459  -45.1754 H         1 UNK         0.0600 
    208 H208       -2.5003  -26.1337  -45.5119 H         1 UNK         0.0600 
    209 H209       -2.3549  -24.9027  -46.7588 H         1 UNK         0.0600 
    210 H210       -5.0219  -23.7284  -47.3764 H         1 UNK         0.3000 
    211 H211       -7.1330  -25.8405  -47.2230 H         1 UNK         0.0600 
    212 H212       -6.7866  -26.1783  -49.6551 H         1 UNK         0.0600 
    213 H213       -5.2852  -26.4936  -48.8016 H         1 UNK         0.0600 
    214 H214       -5.5014  -24.9764  -49.6745 H         1 UNK         0.0600 
    215 H215       -6.6726  -22.6734  -46.9733 H         1 UNK         0.3000 
    216 H216       -7.8117  -20.8162  -47.1058 H         1 UNK         0.0600 
    217 H217      -10.2444  -20.7590  -47.4820 H         1 UNK         0.0600 
    218 H218       -9.8276  -22.0843  -46.4066 H         1 UNK         0.0600 
    219 H219      -10.2344  -22.4053  -48.0921 H         1 UNK         0.0600 
    220 H220       -8.3058  -22.7556  -50.0576 H         1 UNK         0.3000 
    221 H221       -8.3787  -20.4266  -51.8424 H         1 UNK         0.0600 
    222 H222       -8.1798  -23.4364  -52.3994 H         1 UNK         0.0600 
    223 H223       -9.6566  -22.4740  -52.4108 H         1 UNK         0.0600 
    224 H224       -8.4110  -22.1871  -53.6173 H         1 UNK         0.0600 
    225 H225       -6.5827  -19.3844  -52.5160 H         1 UNK         0.3000 
    226 H226       -3.9436  -20.1335  -51.7859 H         1 UNK         0.0600 
    227 H227       -3.3110  -18.1241  -53.1113 H         1 UNK         0.0600 
    228 H228       -4.9183  -18.0555  -53.8179 H         1 UNK         0.0600 
    229 H229       -4.6946  -17.7792  -52.0901 H         1 UNK         0.0600 
    230 H230       -5.7802  -20.6838  -54.7201 H         1 UNK         0.3000 
    231 H231       -5.5323  -21.9009  -56.5364 H         1 UNK         0.0600 
    232 H232       -4.9555  -23.6821  -54.8145 H         1 UNK         0.0600 
    233 H233       -3.2490  -23.3872  -55.1305 H         1 UNK         0.0600 
    234 H234       -4.2949  -24.0074  -56.4032 H         1 UNK         0.0600 
    235 H235       -3.3949  -23.0531  -57.9092 H         1 UNK         0.3000 
    236 H236       -2.1958  -20.7103  -59.2132 H         1 UNK         0.0600 
    237 H237       -3.2533  -22.4633  -60.5932 H         1 UNK         0.0600 
    238 H238       -1.5261  -22.4160  -60.9080 H         1 UNK         0.0600 
    239 H239       -2.1987  -23.6970  -59.9060 H         1 UNK         0.0600 
    240 H240       -0.8935  -20.1435  -57.3111 H         1 UNK         0.3000 
    241 H241        1.2321  -21.8380  -56.4072 H         1 UNK         0.0600 
    242 H242        2.8805  -20.0279  -59.6035 H         1 UNK         0.3800 
    243 H243        1.1527  -20.0508  -59.3687 H         1 UNK         0.3800 
    244 H244        0.3207  -20.2590  -54.8716 H         1 UNK         0.0800 
    245 H245        1.9891  -19.8499  -55.1084 H         1 UNK         0.0800 
    246 H246       -1.5626  -18.7340  -55.0404 H         1 UNK         0.0800 
    247 H247       -1.4516  -17.0281  -55.3778 H         1 UNK         0.0800 
@<TRIPOS>BOND
     1    1    2 1    
     2    1  127 1    
     3    1  128 1    
     4    1  129 1    
     5    2    3 2    
     6    2    4 am   BACKBONE|DICT|INTERRES
     7    4    5 1    
     8    4  130 1    
     9    5    6 1    
    10    5   65 1    
    11    5  131 1    
    12    6    7 1    
    13    6  132 1    
    14    6  133 1    
    15    7    8 1    
    16    8    9 1    
    17    8  134 1    
    18    8  135 1    
    19    9   10 ar   
    20    9   14 ar   
    21   10   11 ar   
    22   10  136 1    
    23   11   12 ar   
    24   11  126 1    
    25   12   13 ar   
    26   12  137 1    
    27   13   14 ar   
    28   13   15 1    
    29   14  138 1    
    30   15   16 1    
    31   15  139 1    
    32   15  140 1    
    33   16   17 1    
    34   17   18 1    
    35   17  141 1    
    36   17  142 1    
    37   18   19 1    
    38   18   67 1    
    39   18  143 1    
    40   19   20 am   BACKBONE|DICT|INTERRES
    41   19  144 1    
    42   20   21 2    
    43   20   22 1    
    44   22   23 1    
    45   22   24 1    
    46   22  145 1    
    47   23  146 1    
    48   23  147 1    
    49   23  148 1    
    50   24   25 am   BACKBONE|DICT|INTERRES
    51   24  149 1    
    52   25   26 2    
    53   25   27 1    
    54   27   28 1    
    55   27   29 1    
    56   27  150 1    
    57   28  151 1    
    58   28  152 1    
    59   28  153 1    
    60   29   30 am   BACKBONE|DICT|INTERRES
    61   29  154 1    
    62   30   31 2    
    63   30   32 1    
    64   32   33 1    
    65   32   34 1    
    66   32  155 1    
    67   33  156 1    
    68   33  157 1    
    69   33  158 1    
    70   34   35 am   BACKBONE|DICT|INTERRES
    71   34  159 1    
    72   35   36 2    
    73   35   37 1    
    74   37   38 1    
    75   37   39 1    
    76   37  160 1    
    77   38  161 1    
    78   38  162 1    
    79   38  163 1    
    80   39   40 am   BACKBONE|DICT|INTERRES
    81   39  164 1    
    82   40   41 2    
    83   40   42 1    
    84   42   43 1    
    85   42   44 1    
    86   42  165 1    
    87   43  166 1    
    88   43  167 1    
    89   43  168 1    
    90   44   45 am   BACKBONE|DICT|INTERRES
    91   44  169 1    
    92   45   46 2    
    93   45   47 1    
    94   47   48 1    
    95   47   49 1    
    96   47  170 1    
    97   48  171 1    
    98   48  172 1    
    99   48  173 1    
   100   49   50 am   BACKBONE|DICT|INTERRES
   101   49  174 1    
   102   50   51 2    
   103   50   52 1    
   104   52   53 1    
   105   52   54 1    
   106   52  175 1    
   107   53  176 1    
   108   53  177 1    
   109   53  178 1    
   110   54   55 am   BACKBONE|DICT|INTERRES
   111   54  179 1    
   112   55   56 2    
   113   55   57 1    
   114   57   58 1    
   115   57   59 1    
   116   57  180 1    
   117   58  181 1    
   118   58  182 1    
   119   58  183 1    
   120   59   60 am   BACKBONE|DICT|INTERRES
   121   59  184 1    
   122   60   61 2    
   123   60   62 1    
   124   62   63 1    
   125   62   64 1    
   126   62  185 1    
   127   63  186 1    
   128   63  187 1    
   129   63  188 1    
   130   64   65 am   BACKBONE|DICT|INTERRES
   131   64  189 1    
   132   65   66 2    
   133   67   68 2    
   134   67   69 am   BACKBONE|DICT|INTERRES
   135   69   70 1    
   136   69  190 1    
   137   70   71 1    
   138   70   72 1    
   139   70  191 1    
   140   71  192 1    
   141   71  193 1    
   142   71  194 1    
   143   72   73 2    
   144   72   74 am   BACKBONE|DICT|INTERRES
   145   74   75 1    
   146   74  195 1    
   147   75   76 1    
   148   75   77 1    
   149   75  196 1    
   150   76  197 1    
   151   76  198 1    
   152   76  199 1    
   153   77   78 2    
   154   77   79 am   BACKBONE|DICT|INTERRES
   155   79   80 1    
   156   79  200 1    
   157   80   81 1    
   158   80   82 1    
   159   80  201 1    
   160   81  202 1    
   161   81  203 1    
   162   81  204 1    
   163   82   83 2    
   164   82   84 am   BACKBONE|DICT|INTERRES
   165   84   85 1    
   166   84  205 1    
   167   85   86 1    
   168   85   87 1    
   169   85  206 1    
   170   86  207 1    
   171   86  208 1    
   172   86  209 1    
   173   87   88 2    
   174   87   89 am   BACKBONE|DICT|INTERRES
   175   89   90 1    
   176   89  210 1    
   177   90   91 1    
   178   90   92 1    
   179   90  211 1    
   180   91  212 1    
   181   91  213 1    
   182   91  214 1    
   183   92   93 2    
   184   92   94 am   BACKBONE|DICT|INTERRES
   185   94   95 1    
   186   94  215 1    
   187   95   96 1    
   188   95   97 1    
   189   95  216 1    
   190   96  217 1    
   191   96  218 1    
   192   96  219 1    
   193   97   98 2    
   194   97   99 am   BACKBONE|DICT|INTERRES
   195   99  100 1    
   196   99  220 1    
   197  100  101 1    
   198  100  102 1    
   199  100  221 1    
   200  101  222 1    
   201  101  223 1    
   202  101  224 1    
   203  102  103 2    
   204  102  104 am   BACKBONE|DICT|INTERRES
   205  104  105 1    
   206  104  225 1    
   207  105  106 1    
   208  105  107 1    
   209  105  226 1    
   210  106  227 1    
   211  106  228 1    
   212  106  229 1    
   213  107  108 2    
   214  107  109 am   BACKBONE|DICT|INTERRES
   215  109  110 1    
   216  109  230 1    
   217  110  111 1    
   218  110  112 1    
   219  110  231 1    
   220  111  232 1    
   221  111  233 1    
   222  111  234 1    
   223  112  113 2    
   224  112  114 am   BACKBONE|DICT|INTERRES
   225  114  115 1    
   226  114  235 1    
   227  115  116 1    
   228  115  117 1    
   229  115  236 1    
   230  116  237 1    
   231  116  238 1    
   232  116  239 1    
   233  117  118 2    
   234  117  119 am   BACKBONE|DICT|INTERRES
   235  119  120 1    
   236  119  240 1    
   237  120  121 1    
   238  120  124 1    
   239  120  241 1    
   240  121  122 am   BACKBONE|DICT|INTERRES
   241  121  123 2    
   242  122  242 1    
   243  122  243 1    
   244  124  125 1    
   245  124  244 1    
   246  124  245 1    
   247  125  126 1    
   248  126  246 1    
   249  126  247 1    
@<TRIPOS>SUBSTRUCTURE
     1 UNK         1 GROUP             0       ****    0 ROOT    
