@<TRIPOS>MOLECULE
3R540
247   249    1
SMALL
USER_CHARGES


@<TRIPOS>ATOM
      1 CA         -2.5232   -8.0627  -51.4861 C.3       0 UNK        -0.1800 
      2 C          -1.3408   -8.9100  -51.0370 C.2       0 UNK         0.5000 
      3 O          -0.2012   -8.4453  -51.0818 O.2       0 UNK        -0.5000 
      4 N          -1.6059  -10.1514  -50.6145 N.am      1 UNK        -0.5000 
      5 CA         -0.6178  -11.0870  -50.0701 C.3       1 UNK         0.1400 
      6 C6         -1.1417  -12.5463  -50.0632 C.3       23 UNK        -0.0398 
      7 S7         -2.7722  -12.7692  -49.2626 S.3       23 UNK        -0.2404 
      8 C8         -3.4268  -14.2038  -50.1739 C.3       23 UNK        -0.0205 
      9 C9         -2.6027  -15.4540  -49.9103 C.ar      23 UNK        -0.0193 
     10 C10        -1.6892  -15.9152  -50.8622 C.ar      23 UNK        -0.1150 
     11 C11        -0.9053  -17.0438  -50.6050 C.ar      23 UNK        -0.0193 
     12 C12        -1.0553  -17.7246  -49.3933 C.ar      23 UNK        -0.1150 
     13 C13        -1.9679  -17.2723  -48.4355 C.ar      23 UNK        -0.0193 
     14 C14        -2.7387  -16.1378  -48.7000 C.ar      23 UNK        -0.1150 
     15 C15        -2.0779  -17.9682  -47.0910 C.3       23 UNK        -0.0205 
     16 S16        -3.6873  -18.7782  -46.8503 S.3       23 UNK        -0.2404 
     17 C17        -3.3455  -19.6601  -45.2903 C.3       23 UNK        -0.0398 
     18 CA         -2.6166  -21.0033  -45.5585 C.3       11 UNK         0.1400 
     19 N          -1.4206  -21.1867  -44.7317 N.am      11 UNK        -0.5000 
     20 C          -0.4560  -22.0763  -45.0119 C.2       10 UNK         0.5000 
     21 O          -0.4818  -22.8090  -46.0014 O.2       10 UNK        -0.5000 
     22 CA          0.6927  -22.2240  -43.9964 C.3       10 UNK         0.1400 
     23 CB          1.9208  -21.4235  -44.4479 C.3       10 UNK        -0.1800 
     24 N           0.3389  -21.8396  -42.6270 N.am      10 UNK        -0.5000 
     25 C          -0.6187  -22.4187  -41.8873 C.2       9 UNK         0.5000 
     26 O          -1.3490  -23.3123  -42.3188 O.2       9 UNK        -0.5000 
     27 CA         -0.8221  -21.8880  -40.4520 C.3       9 UNK         0.1400 
     28 CB         -1.4268  -22.9459  -39.5054 C.3       9 UNK        -0.1800 
     29 N           0.3817  -21.2836  -39.8708 N.am      9 UNK        -0.5000 
     30 C           1.5544  -21.8789  -39.5990 C.2       8 UNK         0.5000 
     31 O           1.7682  -23.0812  -39.7613 O.2       8 UNK        -0.5000 
     32 CA          2.6747  -20.9601  -39.0571 C.3       8 UNK         0.1400 
     33 CB          4.0896  -21.5043  -39.3472 C.3       8 UNK        -0.1800 
     34 N           2.5463  -19.5638  -39.5019 N.am      8 UNK        -0.5000 
     35 C           2.5838  -19.1171  -40.7660 C.2       7 UNK         0.5000 
     36 O           2.8100  -19.8310  -41.7444 O.2       7 UNK        -0.5000 
     37 CA          2.2971  -17.6152  -40.9561 C.3       7 UNK         0.1400 
     38 CB          3.6079  -16.8145  -40.9553 C.3       7 UNK        -0.1800 
     39 N           1.5560  -17.3007  -42.1793 N.am      7 UNK        -0.5000 
     40 C           0.4054  -17.8530  -42.5914 C.2       6 UNK         0.5000 
     41 O          -0.1891  -18.7510  -41.9919 O.2       6 UNK        -0.5000 
     42 CA         -0.2085  -17.2937  -43.8853 C.3       6 UNK         0.1400 
     43 CB         -1.3065  -16.2728  -43.5450 C.3       6 UNK        -0.1800 
     44 N           0.7805  -16.6528  -44.7525 N.am      6 UNK        -0.5000 
     45 C           1.4010  -17.2530  -45.7787 C.2       5 UNK         0.5000 
     46 O           1.1981  -18.4201  -46.1103 O.2       5 UNK        -0.5000 
     47 CA          2.4127  -16.4127  -46.5826 C.3       5 UNK         0.1400 
     48 CB          1.7547  -15.8511  -47.8528 C.3       5 UNK        -0.1800 
     49 N           2.9758  -15.3098  -45.8025 N.am      5 UNK        -0.5000 
     50 C           3.9203  -15.4640  -44.8614 C.2       4 UNK         0.5000 
     51 O           4.4605  -16.5415  -44.6130 O.2       4 UNK        -0.5000 
     52 CA          4.3167  -14.2215  -44.0363 C.3       4 UNK         0.1400 
     53 CB          5.5963  -13.5886  -44.6036 C.3       4 UNK        -0.1800 
     54 N           3.2755  -13.1949  -43.9646 N.am      4 UNK        -0.5000 
     55 C           2.0458  -13.3613  -43.4578 C.2       3 UNK         0.5000 
     56 O           1.6615  -14.4084  -42.9381 O.2       3 UNK        -0.5000 
     57 CA          1.0610  -12.1866  -43.6221 C.3       3 UNK         0.1400 
     58 CB          1.0214  -11.3377  -42.3433 C.3       3 UNK        -0.1800 
     59 N           1.3603  -11.3203  -44.7696 N.am      3 UNK        -0.5000 
     60 C           1.3690  -11.7188  -46.0492 C.2       2 UNK         0.5000 
     61 O           1.1435  -12.8779  -46.4055 O.2       2 UNK        -0.5000 
     62 CA          1.7808  -10.6648  -47.0905 C.3       2 UNK         0.1400 
     63 CB          3.3072  -10.6729  -47.2716 C.3       2 UNK        -0.1800 
     64 N           1.1525  -10.9250  -48.3844 N.am      2 UNK        -0.5000 
     65 C          -0.1236  -10.6442  -48.6747 C.2       1 UNK         0.5000 
     66 O          -0.8903  -10.0687  -47.8967 O.2       1 UNK        -0.5000 
     67 C          -3.5815  -22.2075  -45.5134 C.2       11 UNK         0.5000 
     68 O          -4.3502  -22.3856  -46.4578 O.2       11 UNK        -0.5000 
     69 N          -3.5122  -23.0351  -44.4582 N.am      12 UNK        -0.5000 
     70 CA         -4.2630  -24.2890  -44.3686 C.3       12 UNK         0.1400 
     71 CB         -4.2808  -24.7893  -42.9164 C.3       12 UNK        -0.1800 
     72 C          -3.6863  -25.3596  -45.3122 C.2       12 UNK         0.5000 
     73 O          -4.4525  -26.0861  -45.9441 O.2       12 UNK        -0.5000 
     74 N          -2.3506  -25.4029  -45.4290 N.am      13 UNK        -0.5000 
     75 CA         -1.6259  -26.2732  -46.3577 C.3       13 UNK         0.1400 
     76 CB         -0.1429  -26.3290  -45.9600 C.3       13 UNK        -0.1800 
     77 C          -1.7894  -25.8219  -47.8211 C.2       13 UNK         0.5000 
     78 O          -1.9289  -26.6654  -48.7069 O.2       13 UNK        -0.5000 
     79 N          -1.8127  -24.4993  -48.0408 N.am      14 UNK        -0.5000 
     80 CA         -2.0807  -23.8686  -49.3365 C.3       14 UNK         0.1400 
     81 CB         -1.6183  -22.4044  -49.2792 C.3       14 UNK        -0.1800 
     82 C          -3.5620  -23.9360  -49.7633 C.2       14 UNK         0.5000 
     83 O          -3.8627  -23.6239  -50.9170 O.2       14 UNK        -0.5000 
     84 N          -4.4483  -24.3093  -48.8274 N.am      15 UNK        -0.5000 
     85 CA         -5.9066  -24.4027  -48.9359 C.3       15 UNK         0.1400 
     86 CB         -6.3117  -25.5381  -49.8951 C.3       15 UNK        -0.1800 
     87 C          -6.5422  -23.0504  -49.3069 C.2       15 UNK         0.5000 
     88 O          -7.2638  -22.9541  -50.2995 O.2       15 UNK        -0.5000 
     89 N          -6.2081  -22.0124  -48.5270 N.am      16 UNK        -0.5000 
     90 CA         -6.5841  -20.6079  -48.7333 C.3       16 UNK         0.1400 
     91 CB         -8.1009  -20.4076  -48.5333 C.3       16 UNK        -0.1800 
     92 C          -6.0695  -20.0632  -50.0839 C.2       16 UNK         0.5000 
     93 O          -6.7818  -19.3322  -50.7731 O.2       16 UNK        -0.5000 
     94 N          -4.8468  -20.4858  -50.4393 N.am      17 UNK        -0.5000 
     95 CA         -4.1085  -20.2384  -51.6827 C.3       17 UNK         0.1400 
     96 CB         -3.9899  -18.7294  -51.9800 C.3       17 UNK        -0.1800 
     97 C          -4.6270  -21.0166  -52.9102 C.2       17 UNK         0.5000 
     98 O          -3.9909  -20.9400  -53.9620 O.2       17 UNK        -0.5000 
     99 N          -5.7386  -21.7570  -52.7864 N.am      18 UNK        -0.5000 
    100 CA        -6.3988  -22.4328  -53.9045 C.3       18 UNK         0.1400 
    101 CB        -7.8439  -22.7825  -53.5200 C.3       18 UNK        -0.1800 
    102 C         -5.6572  -23.6869  -54.3983 C.2       18 UNK         0.5000 
    103 O         -5.6623  -23.9443  -55.6027 O.2       18 UNK        -0.5000 
    104 N         -5.0349  -24.4427  -53.4822 N.am      19 UNK        -0.5000 
    105 CA        -4.2586  -25.6399  -53.8201 C.3       19 UNK         0.1400 
    106 CB        -4.2504  -26.6258  -52.6420 C.3       19 UNK        -0.1800 
    107 C         -2.8251  -25.2813  -54.2378 C.2       19 UNK         0.5000 
    108 O         -2.2615  -25.9475  -55.1068 O.2       19 UNK        -0.5000 
    109 N         -2.2686  -24.2267  -53.6261 N.am      20 UNK        -0.5000 
    110 CA        -0.9566  -23.6790  -53.9709 C.3       20 UNK         0.1400 
    111 CB        -0.4921  -22.7402  -52.8493 C.3       20 UNK        -0.1800 
    112 C         -0.9533  -22.9390  -55.3215 C.2       20 UNK         0.5000 
    113 O          0.0734  -22.9336  -56.0012 O.2       20 UNK        -0.5000 
    114 N         -2.0919  -22.3152  -55.6650 N.am      21 UNK        -0.5000 
    115 CA        -2.3195  -21.4414  -56.8224 C.3       21 UNK         0.1400 
    116 CB        -2.2116  -22.2313  -58.1431 C.3       21 UNK        -0.1800 
    117 C         -1.4304  -20.1783  -56.7915 C.2       21 UNK         0.5000 
    118 O         -1.0399  -19.6653  -57.8418 O.2       21 UNK        -0.5000 
    119 N         -1.1128  -19.7152  -55.5763 N.am      22 UNK        -0.5000 
    120 CA        -0.1901  -18.6058  -55.2979 C.3       22 UNK         0.1400 
    121 C         -0.8453  -17.1928  -55.3088 C.2       22 UNK         0.5000 
    122 N         -2.1568  -17.0686  -55.4739 N.am      22 UNK        -0.7600 
    123 O         -0.1475  -16.1903  -55.1832 O.2       22 UNK        -0.5000 
    124 C124        0.6292  -18.8803  -54.0094 C.3       23 UNK        -0.0398 
    125 S125       -0.3907  -19.0026  -52.4969 S.3       23 UNK        -0.2404 
    126 C126        0.1305  -17.4973  -51.6204 C.3       23 UNK        -0.0205 
    127 H127       -2.3960   -7.7613  -52.5258 H         1 UNK         0.0600 
    128 H128       -3.4655   -8.6049  -51.4021 H         1 UNK         0.0600 
    129 H129       -2.5933   -7.1629  -50.8749 H         1 UNK         0.0600 
    130 H130       -2.5642  -10.4667  -50.5619 H         1 UNK         0.3000 
    131 H131        0.2459  -11.0620  -50.7386 H         1 UNK         0.0600 
    132 H132       -1.2178  -12.8890  -51.0958 H         1 UNK         0.0800 
    133 H133       -0.4245  -13.2170  -49.5854 H         1 UNK         0.0800 
    134 H134       -3.4618  -13.9777  -51.2408 H         1 UNK         0.0800 
    135 H135       -4.4583  -14.3794  -49.8653 H         1 UNK         0.0800 
    136 H136       -1.5753  -15.3853  -51.7975 H         1 UNK         0.1150 
    137 H137       -0.4433  -18.5923  -49.1898 H         1 UNK         0.1150 
    138 H138       -3.4338  -15.7767  -47.9550 H         1 UNK         0.1150 
    139 H139       -1.2854  -18.7097  -46.9840 H         1 UNK         0.0800 
    140 H140       -1.9248  -17.2305  -46.3055 H         1 UNK         0.0800 
    141 H141       -2.7578  -19.0065  -44.6472 H         1 UNK         0.0800 
    142 H142       -4.2885  -19.8020  -44.7585 H         1 UNK         0.0800 
    143 H143       -2.2399  -20.9803  -46.5810 H         1 UNK         0.0600 
    144 H144       -1.3432  -20.6402  -43.8862 H         1 UNK         0.3000 
    145 H145        0.9660  -23.2810  -43.9799 H         1 UNK         0.0600 
    146 H146        2.7927  -21.6678  -43.8410 H         1 UNK         0.0600 
    147 H147        2.1766  -21.6395  -45.4861 H         1 UNK         0.0600 
    148 H148        1.7494  -20.3501  -44.3661 H         1 UNK         0.0600 
    149 H149        0.8865  -21.0948  -42.2124 H         1 UNK         0.3000 
    150 H150       -1.5474  -21.0780  -40.5400 H         1 UNK         0.0600 
    151 H151       -2.4029  -23.2775  -39.8616 H         1 UNK         0.0600 
    152 H152       -1.5693  -22.5431  -38.5027 H         1 UNK         0.0600 
    153 H153       -0.7930  -23.8294  -39.4262 H         1 UNK         0.0600 
    154 H154        0.3288  -20.2842  -39.7305 H         1 UNK         0.3000 
    155 H155        2.5478  -20.9451  -37.9737 H         1 UNK         0.0600 
    156 H156        4.8571  -20.8352  -38.9583 H         1 UNK         0.0600 
    157 H157        4.2653  -21.6320  -40.4157 H         1 UNK         0.0600 
    158 H158        4.2392  -22.4759  -38.8750 H         1 UNK         0.0600 
    159 H159        2.3616  -18.8963  -38.7653 H         1 UNK         0.3000 
    160 H160        1.6834  -17.2740  -40.1203 H         1 UNK         0.0600 
    161 H161        4.2407  -17.0840  -41.8020 H         1 UNK         0.0600 
    162 H162        4.1809  -16.9977  -40.0455 H         1 UNK         0.0600 
    163 H163        3.4156  -15.7426  -41.0067 H         1 UNK         0.0600 
    164 H164        1.9159  -16.5268  -42.7215 H         1 UNK         0.3000 
    165 H165       -0.6654  -18.1315  -44.4118 H         1 UNK         0.0600 
    166 H166       -0.9157  -15.4443  -42.9530 H         1 UNK         0.0600 
    167 H167       -1.7572  -15.8514  -44.4430 H         1 UNK         0.0600 
    168 H168       -2.1060  -16.7387  -42.9675 H         1 UNK         0.0600 
    169 H169        1.0315  -15.7007  -44.5183 H         1 UNK         0.3000 
    170 H170        3.2265  -17.0734  -46.8891 H         1 UNK         0.0600 
    171 H171        1.4527  -16.6594  -48.5187 H         1 UNK         0.0600 
    172 H172        0.8623  -15.2669  -47.6241 H         1 UNK         0.0600 
    173 H173        2.4413  -15.2131  -48.4092 H         1 UNK         0.0600 
    174 H174        2.5567  -14.3977  -45.9462 H         1 UNK         0.3000 
    175 H175        4.5215  -14.5573  -43.0179 H         1 UNK         0.0600 
    176 H176        5.4417  -13.2060  -45.6134 H         1 UNK         0.0600 
    177 H177        5.9392  -12.7630  -43.9796 H         1 UNK         0.0600 
    178 H178        6.4066  -14.3175  -44.6488 H         1 UNK         0.0600 
    179 H179        3.4987  -12.3002  -44.3739 H         1 UNK         0.3000 
    180 H180        0.0693  -12.6159  -43.7798 H         1 UNK         0.0600 
    181 H181        0.7769  -11.9510  -41.4748 H         1 UNK         0.0600 
    182 H182        1.9819  -10.8593  -42.1474 H         1 UNK         0.0600 
    183 H183        0.2636  -10.5569  -42.4108 H         1 UNK         0.0600 
    184 H184        1.5730  -10.3560  -44.5568 H         1 UNK         0.3000 
    185 H185        1.4747   -9.6771  -46.7388 H         1 UNK         0.0600 
    186 H186        3.8155  -10.4438  -46.3342 H         1 UNK         0.0600 
    187 H187        3.6687  -11.6446  -47.6114 H         1 UNK         0.0600 
    188 H188        3.6218   -9.9248  -47.9997 H         1 UNK         0.0600 
    189 H189        1.7128  -11.4287  -49.0561 H         1 UNK         0.3000 
    190 H190       -2.8313  -22.8633  -43.7267 H         1 UNK         0.3000 
    191 H191       -5.2953  -24.0954  -44.6688 H         1 UNK         0.0600 
    192 H192       -4.9208  -25.6668  -42.8179 H         1 UNK         0.0600 
    193 H193       -4.6665  -24.0271  -42.2394 H         1 UNK         0.0600 
    194 H194       -3.2864  -25.0732  -42.5714 H         1 UNK         0.0600 
    195 H195       -1.7968  -24.7526  -44.8901 H         1 UNK         0.3000 
    196 H196       -2.0367  -27.2815  -46.2719 H         1 UNK         0.0600 
    197 H197        0.4087  -27.0070  -46.6125 H         1 UNK         0.0600 
    198 H198       -0.0219  -26.6912  -44.9389 H         1 UNK         0.0600 
    199 H199        0.3343  -25.3512  -46.0275 H         1 UNK         0.0600 
    200 H200       -1.5956  -23.8788  -47.2670 H         1 UNK         0.3000 
    201 H201       -1.4948  -24.3885  -50.0965 H         1 UNK         0.0600 
    202 H202       -0.5988  -22.3200  -48.9022 H         1 UNK         0.0600 
    203 H203       -2.2663  -21.8049  -48.6421 H         1 UNK         0.0600 
    204 H204       -1.6335  -21.9496  -50.2681 H         1 UNK         0.0600 
    205 H205       -4.0800  -24.5066  -47.9076 H         1 UNK         0.3000 
    206 H206       -6.2732  -24.6607  -47.9413 H         1 UNK         0.0600 
    207 H207       -5.8020  -26.4692  -49.6476 H         1 UNK         0.0600 
    208 H208       -7.3843  -25.7267  -49.8405 H         1 UNK         0.0600 
    209 H209       -6.0811  -25.2890  -50.9294 H         1 UNK         0.0600 
    210 H210       -5.5725  -22.1860  -47.7481 H         1 UNK         0.3000 
    211 H211       -6.0762  -20.0374  -47.9564 H         1 UNK         0.0600 
    212 H212       -8.6834  -20.8999  -49.3125 H         1 UNK         0.0600 
    213 H213       -8.3594  -19.3484  -48.5532 H         1 UNK         0.0600 
    214 H214       -8.4263  -20.8023  -47.5709 H         1 UNK         0.0600 
    215 H215       -4.3922  -21.1224  -49.8016 H         1 UNK         0.3000 
    216 H216       -3.0997  -20.6087  -51.5032 H         1 UNK         0.0600 
    217 H217       -4.9452  -18.2890  -52.2640 H         1 UNK         0.0600 
    218 H218       -3.3001  -18.5445  -52.8035 H         1 UNK         0.0600 
    219 H219       -3.6137  -18.1871  -51.1132 H         1 UNK         0.0600 
    220 H220       -6.1890  -21.8288  -51.8821 H         1 UNK         0.3000 
    221 H221       -6.4421  -21.7280  -54.7379 H         1 UNK         0.0600 
    222 H222       -7.8815  -23.5582  -52.7549 H         1 UNK         0.0600 
    223 H223       -8.3778  -21.9101  -53.1426 H         1 UNK         0.0600 
    224 H224       -8.3953  -23.1542  -54.3844 H         1 UNK         0.0600 
    225 H225       -5.0074  -24.1321  -52.5163 H         1 UNK         0.3000 
    226 H226       -4.7303  -26.1472  -54.6646 H         1 UNK         0.0600 
    227 H227       -5.2598  -26.9575  -52.4002 H         1 UNK         0.0600 
    228 H228       -3.6715  -27.5172  -52.8866 H         1 UNK         0.0600 
    229 H229       -3.8100  -26.1906  -51.7454 H         1 UNK         0.0600 
    230 H230       -2.7957  -23.7587  -52.9000 H         1 UNK         0.3000 
    231 H231       -0.2431  -24.5027  -54.0428 H         1 UNK         0.0600 
    232 H232       -1.2152  -21.9446  -52.6691 H         1 UNK         0.0600 
    233 H233       -0.3449  -23.2852  -51.9180 H         1 UNK         0.0600 
    234 H234        0.4595  -22.2685  -53.0985 H         1 UNK         0.0600 
    235 H235       -2.8553  -22.3265  -54.9983 H         1 UNK         0.3000 
    236 H236       -3.3479  -21.0881  -56.7355 H         1 UNK         0.0600 
    237 H237       -2.8485  -23.1159  -58.1247 H         1 UNK         0.0600 
    238 H238       -2.5290  -21.6215  -58.9897 H         1 UNK         0.0600 
    239 H239       -1.1900  -22.5567  -58.3406 H         1 UNK         0.0600 
    240 H240       -1.5128  -20.1700  -54.7679 H         1 UNK         0.3000 
    241 H241        0.5358  -18.5765  -56.1127 H         1 UNK         0.0600 
    242 H242       -2.7364  -17.8851  -55.5809 H         1 UNK         0.3800 
    243 H243       -2.5712  -16.1504  -55.4885 H         1 UNK         0.3800 
    244 H244        1.4041  -18.1226  -53.8823 H         1 UNK         0.0800 
    245 H245        1.1679  -19.8224  -54.1199 H         1 UNK         0.0800 
    246 H246        0.3135  -16.6979  -52.3402 H         1 UNK         0.0800 
    247 H247        1.0814  -17.6832  -51.1193 H         1 UNK         0.0800 
@<TRIPOS>BOND
     1    1    2 1    
     2    1  127 1    
     3    1  128 1    
     4    1  129 1    
     5    2    3 2    
     6    2    4 am   BACKBONE|DICT|INTERRES
     7    4    5 1    
     8    4  130 1    
     9    5    6 1    
    10    5   65 1    
    11    5  131 1    
    12    6    7 1    
    13    6  132 1    
    14    6  133 1    
    15    7    8 1    
    16    8    9 1    
    17    8  134 1    
    18    8  135 1    
    19    9   10 ar   
    20    9   14 ar   
    21   10   11 ar   
    22   10  136 1    
    23   11   12 ar   
    24   11  126 1    
    25   12   13 ar   
    26   12  137 1    
    27   13   14 ar   
    28   13   15 1    
    29   14  138 1    
    30   15   16 1    
    31   15  139 1    
    32   15  140 1    
    33   16   17 1    
    34   17   18 1    
    35   17  141 1    
    36   17  142 1    
    37   18   19 1    
    38   18   67 1    
    39   18  143 1    
    40   19   20 am   BACKBONE|DICT|INTERRES
    41   19  144 1    
    42   20   21 2    
    43   20   22 1    
    44   22   23 1    
    45   22   24 1    
    46   22  145 1    
    47   23  146 1    
    48   23  147 1    
    49   23  148 1    
    50   24   25 am   BACKBONE|DICT|INTERRES
    51   24  149 1    
    52   25   26 2    
    53   25   27 1    
    54   27   28 1    
    55   27   29 1    
    56   27  150 1    
    57   28  151 1    
    58   28  152 1    
    59   28  153 1    
    60   29   30 am   BACKBONE|DICT|INTERRES
    61   29  154 1    
    62   30   31 2    
    63   30   32 1    
    64   32   33 1    
    65   32   34 1    
    66   32  155 1    
    67   33  156 1    
    68   33  157 1    
    69   33  158 1    
    70   34   35 am   BACKBONE|DICT|INTERRES
    71   34  159 1    
    72   35   36 2    
    73   35   37 1    
    74   37   38 1    
    75   37   39 1    
    76   37  160 1    
    77   38  161 1    
    78   38  162 1    
    79   38  163 1    
    80   39   40 am   BACKBONE|DICT|INTERRES
    81   39  164 1    
    82   40   41 2    
    83   40   42 1    
    84   42   43 1    
    85   42   44 1    
    86   42  165 1    
    87   43  166 1    
    88   43  167 1    
    89   43  168 1    
    90   44   45 am   BACKBONE|DICT|INTERRES
    91   44  169 1    
    92   45   46 2    
    93   45   47 1    
    94   47   48 1    
    95   47   49 1    
    96   47  170 1    
    97   48  171 1    
    98   48  172 1    
    99   48  173 1    
   100   49   50 am   BACKBONE|DICT|INTERRES
   101   49  174 1    
   102   50   51 2    
   103   50   52 1    
   104   52   53 1    
   105   52   54 1    
   106   52  175 1    
   107   53  176 1    
   108   53  177 1    
   109   53  178 1    
   110   54   55 am   BACKBONE|DICT|INTERRES
   111   54  179 1    
   112   55   56 2    
   113   55   57 1    
   114   57   58 1    
   115   57   59 1    
   116   57  180 1    
   117   58  181 1    
   118   58  182 1    
   119   58  183 1    
   120   59   60 am   BACKBONE|DICT|INTERRES
   121   59  184 1    
   122   60   61 2    
   123   60   62 1    
   124   62   63 1    
   125   62   64 1    
   126   62  185 1    
   127   63  186 1    
   128   63  187 1    
   129   63  188 1    
   130   64   65 am   BACKBONE|DICT|INTERRES
   131   64  189 1    
   132   65   66 2    
   133   67   68 2    
   134   67   69 am   BACKBONE|DICT|INTERRES
   135   69   70 1    
   136   69  190 1    
   137   70   71 1    
   138   70   72 1    
   139   70  191 1    
   140   71  192 1    
   141   71  193 1    
   142   71  194 1    
   143   72   73 2    
   144   72   74 am   BACKBONE|DICT|INTERRES
   145   74   75 1    
   146   74  195 1    
   147   75   76 1    
   148   75   77 1    
   149   75  196 1    
   150   76  197 1    
   151   76  198 1    
   152   76  199 1    
   153   77   78 2    
   154   77   79 am   BACKBONE|DICT|INTERRES
   155   79   80 1    
   156   79  200 1    
   157   80   81 1    
   158   80   82 1    
   159   80  201 1    
   160   81  202 1    
   161   81  203 1    
   162   81  204 1    
   163   82   83 2    
   164   82   84 am   BACKBONE|DICT|INTERRES
   165   84   85 1    
   166   84  205 1    
   167   85   86 1    
   168   85   87 1    
   169   85  206 1    
   170   86  207 1    
   171   86  208 1    
   172   86  209 1    
   173   87   88 2    
   174   87   89 am   BACKBONE|DICT|INTERRES
   175   89   90 1    
   176   89  210 1    
   177   90   91 1    
   178   90   92 1    
   179   90  211 1    
   180   91  212 1    
   181   91  213 1    
   182   91  214 1    
   183   92   93 2    
   184   92   94 am   BACKBONE|DICT|INTERRES
   185   94   95 1    
   186   94  215 1    
   187   95   96 1    
   188   95   97 1    
   189   95  216 1    
   190   96  217 1    
   191   96  218 1    
   192   96  219 1    
   193   97   98 2    
   194   97   99 am   BACKBONE|DICT|INTERRES
   195   99  100 1    
   196   99  220 1    
   197  100  101 1    
   198  100  102 1    
   199  100  221 1    
   200  101  222 1    
   201  101  223 1    
   202  101  224 1    
   203  102  103 2    
   204  102  104 am   BACKBONE|DICT|INTERRES
   205  104  105 1    
   206  104  225 1    
   207  105  106 1    
   208  105  107 1    
   209  105  226 1    
   210  106  227 1    
   211  106  228 1    
   212  106  229 1    
   213  107  108 2    
   214  107  109 am   BACKBONE|DICT|INTERRES
   215  109  110 1    
   216  109  230 1    
   217  110  111 1    
   218  110  112 1    
   219  110  231 1    
   220  111  232 1    
   221  111  233 1    
   222  111  234 1    
   223  112  113 2    
   224  112  114 am   BACKBONE|DICT|INTERRES
   225  114  115 1    
   226  114  235 1    
   227  115  116 1    
   228  115  117 1    
   229  115  236 1    
   230  116  237 1    
   231  116  238 1    
   232  116  239 1    
   233  117  118 2    
   234  117  119 am   BACKBONE|DICT|INTERRES
   235  119  120 1    
   236  119  240 1    
   237  120  121 1    
   238  120  124 1    
   239  120  241 1    
   240  121  122 am   BACKBONE|DICT|INTERRES
   241  121  123 2    
   242  122  242 1    
   243  122  243 1    
   244  124  125 1    
   245  124  244 1    
   246  124  245 1    
   247  125  126 1    
   248  126  246 1    
   249  126  247 1    
@<TRIPOS>SUBSTRUCTURE
     1 UNK         1 GROUP             0       ****    0 ROOT    
