@<TRIPOS>MOLECULE
3R540
247   249    1
SMALL
USER_CHARGES


@<TRIPOS>ATOM
      1 CA         -6.6182   -9.2014  -49.0551 C.3       0 UNK        -0.1800 
      2 C          -5.5185  -10.2417  -48.8941 C.2       0 UNK         0.5000 
      3 O          -4.9604  -10.7021  -49.8905 O.2       0 UNK        -0.5000 
      4 N          -5.2134  -10.6183  -47.6467 N.am      1 UNK        -0.5000 
      5 CA         -4.1579  -11.5707  -47.2878 C.3       1 UNK         0.1400 
      6 C6         -4.2529  -11.9987  -45.8031 C.3       23 UNK        -0.0398 
      7 S7         -5.7905  -12.9131  -45.4306 S.3       23 UNK        -0.2404 
      8 C8         -5.1519  -14.4412  -44.6642 C.3       23 UNK        -0.0205 
      9 C9         -4.9468  -15.5826  -45.6554 C.ar      23 UNK        -0.0193 
     10 C10        -4.1224  -15.4304  -46.7756 C.ar      23 UNK        -0.1150 
     11 C11        -3.9007  -16.4975  -47.6507 C.ar      23 UNK        -0.0193 
     12 C12        -4.5132  -17.7265  -47.3991 C.ar      23 UNK        -0.1150 
     13 C13        -5.3012  -17.9111  -46.2592 C.ar      23 UNK        -0.0193 
     14 C14        -5.5333  -16.8279  -45.4066 C.ar      23 UNK        -0.1150 
     15 C15        -5.8728  -19.2842  -45.9305 C.3       23 UNK        -0.0205 
     16 S16        -5.1093  -19.9943  -44.4293 S.3       23 UNK        -0.2404 
     17 C17        -5.7230  -21.7170  -44.4985 C.3       23 UNK        -0.0398 
     18 CA         -4.6172  -22.8116  -44.5297 C.3       11 UNK         0.1400 
     19 N          -3.4681  -22.4655  -45.3742 N.am      11 UNK        -0.5000 
     20 C          -3.4661  -22.6360  -46.7021 C.2       10 UNK         0.5000 
     21 O          -4.3661  -23.2161  -47.3096 O.2       10 UNK        -0.5000 
     22 CA         -2.2949  -22.0489  -47.5113 C.3       10 UNK         0.1400 
     23 CB         -2.7212  -20.7077  -48.1132 C.3       10 UNK        -0.1800 
     24 N          -1.0484  -21.8415  -46.7766 N.am      10 UNK        -0.5000 
     25 C          -0.3452  -22.7926  -46.1531 C.2       9 UNK         0.5000 
     26 O          -0.6958  -23.9695  -46.0897 O.2       9 UNK        -0.5000 
     27 CA          0.9424  -22.3511  -45.4352 C.3       9 UNK         0.1400 
     28 CB          2.1233  -22.3568  -46.4154 C.3       9 UNK        -0.1800 
     29 N           0.8603  -21.0456  -44.7716 N.am      9 UNK        -0.5000 
     30 C          -0.0717  -20.6900  -43.8736 C.2       8 UNK         0.5000 
     31 O          -1.0632  -21.3700  -43.6107 O.2       8 UNK        -0.5000 
     32 CA          0.1202  -19.3344  -43.1807 C.3       8 UNK         0.1400 
     33 CB          1.3702  -19.3255  -42.2858 C.3       8 UNK        -0.1800 
     34 N           0.2160  -18.2899  -44.1930 N.am      8 UNK        -0.5000 
     35 C          -0.8504  -17.6566  -44.6982 C.2       7 UNK         0.5000 
     36 O          -1.9798  -17.7371  -44.2172 O.2       7 UNK        -0.5000 
     37 CA         -0.6386  -16.8092  -45.9645 C.3       7 UNK         0.1400 
     38 CB         -0.6532  -15.3096  -45.6391 C.3       7 UNK        -0.1800 
     39 N           0.5777  -17.1391  -46.7095 N.am      7 UNK        -0.5000 
     40 C           0.7521  -18.2753  -47.4032 C.2       6 UNK         0.5000 
     41 O          -0.1025  -19.1532  -47.4960 O.2       6 UNK        -0.5000 
     42 CA          2.1289  -18.5054  -48.0564 C.3       6 UNK         0.1400 
     43 CB          2.1407  -17.9460  -49.4863 C.3       6 UNK        -0.1800 
     44 N           3.2358  -17.9192  -47.3017 N.am      6 UNK        -0.5000 
     45 C           3.5210  -18.1640  -46.0145 C.2       5 UNK         0.5000 
     46 O           2.9437  -19.0200  -45.3416 O.2       5 UNK        -0.5000 
     47 CA          4.5776  -17.2573  -45.3495 C.3       5 UNK         0.1400 
     48 CB          5.9124  -18.0046  -45.2149 C.3       5 UNK        -0.1800 
     49 N           4.8085  -15.9814  -46.0429 N.am      5 UNK        -0.5000 
     50 C           3.8857  -15.0345  -46.2693 C.2       4 UNK         0.5000 
     51 O           2.7020  -15.1407  -45.9403 O.2       4 UNK        -0.5000 
     52 CA          4.3578  -13.8131  -47.0795 C.3       4 UNK         0.1400 
     53 CB          4.3864  -14.1562  -48.5784 C.3       4 UNK        -0.1800 
     54 N           3.4978  -12.6456  -46.8943 N.am      4 UNK        -0.5000 
     55 C           3.4013  -11.9139  -45.7757 C.2       3 UNK         0.5000 
     56 O           4.0661  -12.1289  -44.7610 O.2       3 UNK        -0.5000 
     57 CA          2.4228  -10.7200  -45.8022 C.3       3 UNK         0.1400 
     58 CB          3.1972   -9.3944  -45.8808 C.3       3 UNK        -0.1800 
     59 N           1.4830  -10.7808  -46.9268 N.am      3 UNK        -0.5000 
     60 C           0.3357  -11.4695  -46.9125 C.2       2 UNK         0.5000 
     61 O          -0.0912  -12.0687  -45.9234 O.2       2 UNK        -0.5000 
     62 CA         -0.4338  -11.5287  -48.2461 C.3       2 UNK         0.1400 
     63 CB          0.1794  -12.5955  -49.1670 C.3       2 UNK        -0.1800 
     64 N          -1.8466  -11.8464  -48.0450 N.am      2 UNK        -0.5000 
     65 C          -2.7585  -10.9873  -47.5752 C.2       1 UNK         0.5000 
     66 O          -2.5259   -9.7985  -47.3391 O.2       1 UNK        -0.5000 
     67 C          -4.2274  -23.3443  -43.1374 C.2       11 UNK         0.5000 
     68 O          -5.0293  -24.0736  -42.5519 O.2       11 UNK        -0.5000 
     69 N          -3.0157  -23.0544  -42.6393 N.am      12 UNK        -0.5000 
     70 CA         -2.4718  -23.6882  -41.4342 C.3       12 UNK         0.1400 
     71 CB         -1.3852  -22.8009  -40.8048 C.3       12 UNK        -0.1800 
     72 C          -1.9182  -25.0870  -41.7580 C.2       12 UNK         0.5000 
     73 O          -2.2180  -26.0408  -41.0392 O.2       12 UNK        -0.5000 
     74 N          -1.1475  -25.1844  -42.8517 N.am      13 UNK        -0.5000 
     75 CA         -0.6155  -26.4447  -43.3811 C.3       13 UNK         0.1400 
     76 CB          0.8169  -26.2150  -43.8911 C.3       13 UNK        -0.1800 
     77 C          -1.5049  -27.0321  -44.4954 C.2       13 UNK         0.5000 
     78 O          -1.3331  -28.2008  -44.8433 O.2       13 UNK        -0.5000 
     79 N          -2.4312  -26.2185  -45.0268 N.am      14 UNK        -0.5000 
     80 CA         -3.3679  -26.5160  -46.1155 C.3       14 UNK         0.1400 
     81 CB         -4.3775  -27.6030  -45.6917 C.3       14 UNK        -0.1800 
     82 C          -2.6642  -26.8223  -47.4561 C.2       14 UNK         0.5000 
     83 O          -3.1099  -27.6956  -48.2033 O.2       14 UNK        -0.5000 
     84 N          -1.5679  -26.1038  -47.7357 N.am      15 UNK        -0.5000 
     85 CA         -0.7850  -26.2137  -48.9631 C.3       15 UNK         0.1400 
     86 CB          0.5730  -25.5201  -48.7647 C.3       15 UNK        -0.1800 
     87 C          -1.5484  -25.6112  -50.1550 C.2       15 UNK         0.5000 
     88 O          -1.6504  -24.3868  -50.2627 O.2       15 UNK        -0.5000 
     89 N          -2.0597  -26.4785  -51.0380 N.am      16 UNK        -0.5000 
     90 CA         -2.8452  -26.1105  -52.2201 C.3       16 UNK         0.1400 
     91 CB         -3.3176  -27.3863  -52.9326 C.3       16 UNK        -0.1800 
     92 C          -2.0960  -25.1898  -53.2019 C.2       16 UNK         0.5000 
     93 O          -2.7129  -24.3084  -53.7982 O.2       16 UNK        -0.5000 
     94 N          -0.7742  -25.3827  -53.3154 N.am      17 UNK        -0.5000 
     95 CA          0.1224  -24.5638  -54.1328 C.3       17 UNK         0.1400 
     96 CB          1.5058  -25.2297  -54.1825 C.3       17 UNK        -0.1800 
     97 C           0.2407  -23.1095  -53.6374 C.2       17 UNK         0.5000 
     98 O           0.4031  -22.2060  -54.4579 O.2       17 UNK        -0.5000 
     99 N           0.1387  -22.9062  -52.3157 N.am      18 UNK        -0.5000 
    100 CA         0.0907  -21.5834  -51.6972 C.3       18 UNK         0.1400 
    101 CB         0.5402  -21.6700  -50.2296 C.3       18 UNK        -0.1800 
    102 C         -1.3190  -20.9854  -51.8131 C.2       18 UNK         0.5000 
    103 O         -1.4588  -19.8362  -52.2301 O.2       18 UNK        -0.5000 
    104 N         -2.3421  -21.7885  -51.4859 N.am      19 UNK        -0.5000 
    105 CA        -3.7567  -21.3995  -51.4935 C.3       19 UNK         0.1400 
    106 CB        -4.5962  -22.5612  -50.9439 C.3       19 UNK        -0.1800 
    107 C         -4.2935  -20.9552  -52.8670 C.2       19 UNK         0.5000 
    108 O         -5.2355  -20.1643  -52.9212 O.2       19 UNK        -0.5000 
    109 N         -3.6789  -21.4546  -53.9457 N.am      20 UNK        -0.5000 
    110 CA        -4.0007  -21.1214  -55.3309 C.3       20 UNK         0.1400 
    111 CB        -3.2350  -22.0784  -56.2586 C.3       20 UNK        -0.1800 
    112 C         -3.7157  -19.6581  -55.7282 C.2       20 UNK         0.5000 
    113 O         -4.2978  -19.2002  -56.7134 O.2       20 UNK        -0.5000 
    114 N         -2.8278  -18.9576  -55.0042 N.am      21 UNK        -0.5000 
    115 CA        -2.3708  -17.6171  -55.3883 C.3       21 UNK         0.1400 
    116 CB        -1.1584  -17.7524  -56.3286 C.3       21 UNK        -0.1800 
    117 C         -2.0404  -16.6747  -54.2173 C.2       21 UNK         0.5000 
    118 O         -1.9513  -15.4691  -54.4535 O.2       21 UNK        -0.5000 
    119 N         -1.8275  -17.2033  -53.0035 N.am      22 UNK        -0.5000 
    120 CA        -1.2956  -16.4760  -51.8338 C.3       22 UNK         0.1400 
    121 C          0.1834  -15.9991  -51.9997 C.2       22 UNK         0.5000 
    122 N          0.9645  -16.5708  -52.9086 N.am      22 UNK        -0.7600 
    123 O          0.6508  -15.1290  -51.2721 O.2       22 UNK        -0.5000 
    124 C124       -2.2466  -15.3607  -51.2979 C.3       23 UNK        -0.0398 
    125 S125       -3.6936  -16.0200  -50.4003 S.3       23 UNK        -0.2404 
    126 C126       -2.9075  -16.3559  -48.7954 C.3       23 UNK        -0.0205 
    127 H127       -6.2266   -8.3163  -49.5565 H         1 UNK         0.0600 
    128 H128       -7.0294   -8.8934  -48.0934 H         1 UNK         0.0600 
    129 H129       -7.4313   -9.6049  -49.6586 H         1 UNK         0.0600 
    130 H130       -5.7023  -10.1983  -46.8695 H         1 UNK         0.3000 
    131 H131       -4.2925  -12.4554  -47.9139 H         1 UNK         0.0600 
    132 H132       -3.3931  -12.6123  -45.5280 H         1 UNK         0.0800 
    133 H133       -4.2103  -11.1248  -45.1505 H         1 UNK         0.0800 
    134 H134       -5.8655  -14.7412  -43.8954 H         1 UNK         0.0800 
    135 H135       -4.2172  -14.2463  -44.1371 H         1 UNK         0.0800 
    136 H136       -3.6244  -14.4910  -46.9516 H         1 UNK         0.1150 
    137 H137       -4.3439  -18.5468  -48.0781 H         1 UNK         0.1150 
    138 H138       -6.1422  -16.9716  -44.5250 H         1 UNK         0.1150 
    139 H139       -6.9513  -19.2051  -45.7869 H         1 UNK         0.0800 
    140 H140       -5.7175  -19.9658  -46.7686 H         1 UNK         0.0800 
    141 H141       -6.3376  -21.8270  -45.3927 H         1 UNK         0.0800 
    142 H142       -6.4121  -21.8731  -43.6665 H         1 UNK         0.0800 
    143 H143       -5.0874  -23.6899  -44.9783 H         1 UNK         0.0600 
    144 H144       -2.7079  -21.9553  -44.9417 H         1 UNK         0.3000 
    145 H145       -2.0922  -22.7457  -48.3241 H         1 UNK         0.0600 
    146 H146       -2.7397  -19.9342  -47.3453 H         1 UNK         0.0600 
    147 H147       -2.0355  -20.3855  -48.8958 H         1 UNK         0.0600 
    148 H148       -3.7180  -20.7660  -48.5495 H         1 UNK         0.0600 
    149 H149       -0.6787  -20.8951  -46.7939 H         1 UNK         0.3000 
    150 H150        1.1477  -23.0862  -44.6551 H         1 UNK         0.0600 
    151 H151        2.2703  -23.3502  -46.8416 H         1 UNK         0.0600 
    152 H152        3.0528  -22.0731  -45.9214 H         1 UNK         0.0600 
    153 H153        1.9577  -21.6690  -47.2436 H         1 UNK         0.0600 
    154 H154        1.6258  -20.4024  -44.9515 H         1 UNK         0.3000 
    155 H155       -0.7446  -19.1587  -42.5370 H         1 UNK         0.0600 
    156 H156        1.4805  -18.3672  -41.7782 H         1 UNK         0.0600 
    157 H157        1.2987  -20.0945  -41.5155 H         1 UNK         0.0600 
    158 H158        2.2856  -19.5111  -42.8471 H         1 UNK         0.0600 
    159 H159        1.1054  -18.2017  -44.6680 H         1 UNK         0.3000 
    160 H160       -1.4856  -17.0265  -46.6094 H         1 UNK         0.0600 
    161 H161       -1.5765  -15.0264  -45.1324 H         1 UNK         0.0600 
    162 H162       -0.5846  -14.7107  -46.5466 H         1 UNK         0.0600 
    163 H163        0.1756  -15.0295  -44.9884 H         1 UNK         0.0600 
    164 H164        1.3451  -16.4789  -46.6292 H         1 UNK         0.3000 
    165 H165        2.2974  -19.5811  -48.1095 H         1 UNK         0.0600 
    166 H166        3.0690  -18.1943  -50.0009 H         1 UNK         0.0600 
    167 H167        1.3227  -18.3591  -50.0782 H         1 UNK         0.0600 
    168 H168        2.0334  -16.8605  -49.4927 H         1 UNK         0.0600 
    169 H169        3.7671  -17.2010  -47.7697 H         1 UNK         0.3000 
    170 H170        4.2121  -17.0251  -44.3472 H         1 UNK         0.0600 
    171 H171        5.7817  -18.9457  -44.6785 H         1 UNK         0.0600 
    172 H172        6.3419  -18.2394  -46.1896 H         1 UNK         0.0600 
    173 H173        6.6412  -17.4150  -44.6584 H         1 UNK         0.0600 
    174 H174        5.7520  -15.8224  -46.3669 H         1 UNK         0.3000 
    175 H175        5.3671  -13.5502  -46.7560 H         1 UNK         0.0600 
    176 H176        3.3961  -14.4260  -48.9492 H         1 UNK         0.0600 
    177 H177        4.7461  -13.3134  -49.1691 H         1 UNK         0.0600 
    178 H178        5.0523  -14.9961  -48.7802 H         1 UNK         0.0600 
    179 H179        2.8895  -12.4124  -47.6628 H         1 UNK         0.3000 
    180 H180        1.8660  -10.7310  -44.8627 H         1 UNK         0.0600 
    181 H181        3.7845   -9.3239  -46.7972 H         1 UNK         0.0600 
    182 H182        3.8861   -9.2931  -45.0410 H         1 UNK         0.0600 
    183 H183        2.5207   -8.5401  -45.8481 H         1 UNK         0.0600 
    184 H184        1.7614  -10.3003  -47.7707 H         1 UNK         0.3000 
    185 H185       -0.3591  -10.5560  -48.7373 H         1 UNK         0.0600 
    186 H186        0.1350  -13.5911  -48.7230 H         1 UNK         0.0600 
    187 H187       -0.3392  -12.6331  -50.1251 H         1 UNK         0.0600 
    188 H188        1.2268  -12.3809  -49.3814 H         1 UNK         0.0600 
    189 H189       -2.1071  -12.8088  -48.1918 H         1 UNK         0.3000 
    190 H190       -2.3925  -22.4067  -43.1177 H         1 UNK         0.3000 
    191 H191       -3.2709  -23.7988  -40.6979 H         1 UNK         0.0600 
    192 H192       -0.4963  -22.7323  -41.4320 H         1 UNK         0.0600 
    193 H193       -1.0696  -23.2036  -39.8417 H         1 UNK         0.0600 
    194 H194       -1.7524  -21.7894  -40.6305 H         1 UNK         0.0600 
    195 H195       -0.9432  -24.3485  -43.3797 H         1 UNK         0.3000 
    196 H196       -0.5646  -27.1882  -42.5830 H         1 UNK         0.0600 
    197 H197        0.8449  -25.5448  -44.7487 H         1 UNK         0.0600 
    198 H198        1.2717  -27.1559  -44.2033 H         1 UNK         0.0600 
    199 H199        1.4510  -25.7919  -43.1120 H         1 UNK         0.0600 
    200 H200       -2.4375  -25.2648  -44.6991 H         1 UNK         0.3000 
    201 H201       -3.9378  -25.6032  -46.2813 H         1 UNK         0.0600 
    202 H202       -4.8640  -27.3430  -44.7515 H         1 UNK         0.0600 
    203 H203       -3.9001  -28.5751  -45.5658 H         1 UNK         0.0600 
    204 H204       -5.1621  -27.7198  -46.4401 H         1 UNK         0.0600 
    205 H205       -1.2723  -25.3848  -47.0782 H         1 UNK         0.3000 
    206 H206       -0.5941  -27.2711  -49.1578 H         1 UNK         0.0600 
    207 H207        1.1200  -25.9566  -47.9289 H         1 UNK         0.0600 
    208 H208        1.1971  -25.6222  -49.6532 H         1 UNK         0.0600 
    209 H209        0.4599  -24.4544  -48.5664 H         1 UNK         0.0600 
    210 H210       -1.9605  -27.4672  -50.8568 H         1 UNK         0.3000 
    211 H211       -3.7274  -25.5721  -51.8712 H         1 UNK         0.0600 
    212 H212       -2.4774  -27.9915  -53.2751 H         1 UNK         0.0600 
    213 H213       -3.9254  -27.1437  -53.8054 H         1 UNK         0.0600 
    214 H214       -3.9297  -28.0024  -52.2736 H         1 UNK         0.0600 
    215 H215       -0.3529  -26.1322  -52.7870 H         1 UNK         0.3000 
    216 H216       -0.2809  -24.5344  -55.1473 H         1 UNK         0.0600 
    217 H217        2.1934  -24.6552  -54.8046 H         1 UNK         0.0600 
    218 H218        1.4464  -26.2321  -54.6068 H         1 UNK         0.0600 
    219 H219        1.9503  -25.3101  -53.1896 H         1 UNK         0.0600 
    220 H220       -0.0575  -23.6945  -51.7142 H         1 UNK         0.3000 
    221 H221        0.7823  -20.9172  -52.2178 H         1 UNK         0.0600 
    222 H222       -0.0923  -22.3376  -49.6469 H         1 UNK         0.0600 
    223 H223        1.5660  -22.0297  -50.1511 H         1 UNK         0.0600 
    224 H224        0.5005  -20.6910  -49.7523 H         1 UNK         0.0600 
    225 H225       -2.1335  -22.7244  -51.1496 H         1 UNK         0.3000 
    226 H226       -3.8634  -20.5443  -50.8251 H         1 UNK         0.0600 
    227 H227       -4.2241  -22.9012  -49.9782 H         1 UNK         0.0600 
    228 H228       -5.6356  -22.2612  -50.8066 H         1 UNK         0.0600 
    229 H229       -4.5878  -23.4131  -51.6232 H         1 UNK         0.0600 
    230 H230       -2.9716  -22.1664  -53.8050 H         1 UNK         0.3000 
    231 H231       -5.0696  -21.2917  -55.4741 H         1 UNK         0.0600 
    232 H232       -3.4332  -21.8549  -57.3077 H         1 UNK         0.0600 
    233 H233       -3.5327  -23.1132  -56.0898 H         1 UNK         0.0600 
    234 H234       -2.1572  -22.0093  -56.1046 H         1 UNK         0.0600 
    235 H235       -2.3952  -19.3927  -54.1993 H         1 UNK         0.3000 
    236 H236       -3.1671  -17.1096  -55.9373 H         1 UNK         0.0600 
    237 H237       -0.7789  -16.7750  -56.6297 H         1 UNK         0.0600 
    238 H238       -1.4229  -18.2885  -57.2402 H         1 UNK         0.0600 
    239 H239       -0.3398  -18.2909  -55.8498 H         1 UNK         0.0600 
    240 H240       -1.8774  -18.2095  -52.8683 H         1 UNK         0.3000 
    241 H241       -1.2153  -17.2314  -51.0520 H         1 UNK         0.0600 
    242 H242        1.9190  -16.2619  -52.9993 H         1 UNK         0.3800 
    243 H243        0.6150  -17.3053  -53.5012 H         1 UNK         0.3800 
    244 H244       -2.6030  -14.7233  -52.1062 H         1 UNK         0.0800 
    245 H245       -1.7289  -14.6826  -50.6193 H         1 UNK         0.0800 
    246 H246       -2.1969  -15.5631  -48.5580 H         1 UNK         0.0800 
    247 H247       -2.3183  -17.2710  -48.8788 H         1 UNK         0.0800 
@<TRIPOS>BOND
     1    1    2 1    
     2    1  127 1    
     3    1  128 1    
     4    1  129 1    
     5    2    3 2    
     6    2    4 am   BACKBONE|DICT|INTERRES
     7    4    5 1    
     8    4  130 1    
     9    5    6 1    
    10    5   65 1    
    11    5  131 1    
    12    6    7 1    
    13    6  132 1    
    14    6  133 1    
    15    7    8 1    
    16    8    9 1    
    17    8  134 1    
    18    8  135 1    
    19    9   10 ar   
    20    9   14 ar   
    21   10   11 ar   
    22   10  136 1    
    23   11   12 ar   
    24   11  126 1    
    25   12   13 ar   
    26   12  137 1    
    27   13   14 ar   
    28   13   15 1    
    29   14  138 1    
    30   15   16 1    
    31   15  139 1    
    32   15  140 1    
    33   16   17 1    
    34   17   18 1    
    35   17  141 1    
    36   17  142 1    
    37   18   19 1    
    38   18   67 1    
    39   18  143 1    
    40   19   20 am   BACKBONE|DICT|INTERRES
    41   19  144 1    
    42   20   21 2    
    43   20   22 1    
    44   22   23 1    
    45   22   24 1    
    46   22  145 1    
    47   23  146 1    
    48   23  147 1    
    49   23  148 1    
    50   24   25 am   BACKBONE|DICT|INTERRES
    51   24  149 1    
    52   25   26 2    
    53   25   27 1    
    54   27   28 1    
    55   27   29 1    
    56   27  150 1    
    57   28  151 1    
    58   28  152 1    
    59   28  153 1    
    60   29   30 am   BACKBONE|DICT|INTERRES
    61   29  154 1    
    62   30   31 2    
    63   30   32 1    
    64   32   33 1    
    65   32   34 1    
    66   32  155 1    
    67   33  156 1    
    68   33  157 1    
    69   33  158 1    
    70   34   35 am   BACKBONE|DICT|INTERRES
    71   34  159 1    
    72   35   36 2    
    73   35   37 1    
    74   37   38 1    
    75   37   39 1    
    76   37  160 1    
    77   38  161 1    
    78   38  162 1    
    79   38  163 1    
    80   39   40 am   BACKBONE|DICT|INTERRES
    81   39  164 1    
    82   40   41 2    
    83   40   42 1    
    84   42   43 1    
    85   42   44 1    
    86   42  165 1    
    87   43  166 1    
    88   43  167 1    
    89   43  168 1    
    90   44   45 am   BACKBONE|DICT|INTERRES
    91   44  169 1    
    92   45   46 2    
    93   45   47 1    
    94   47   48 1    
    95   47   49 1    
    96   47  170 1    
    97   48  171 1    
    98   48  172 1    
    99   48  173 1    
   100   49   50 am   BACKBONE|DICT|INTERRES
   101   49  174 1    
   102   50   51 2    
   103   50   52 1    
   104   52   53 1    
   105   52   54 1    
   106   52  175 1    
   107   53  176 1    
   108   53  177 1    
   109   53  178 1    
   110   54   55 am   BACKBONE|DICT|INTERRES
   111   54  179 1    
   112   55   56 2    
   113   55   57 1    
   114   57   58 1    
   115   57   59 1    
   116   57  180 1    
   117   58  181 1    
   118   58  182 1    
   119   58  183 1    
   120   59   60 am   BACKBONE|DICT|INTERRES
   121   59  184 1    
   122   60   61 2    
   123   60   62 1    
   124   62   63 1    
   125   62   64 1    
   126   62  185 1    
   127   63  186 1    
   128   63  187 1    
   129   63  188 1    
   130   64   65 am   BACKBONE|DICT|INTERRES
   131   64  189 1    
   132   65   66 2    
   133   67   68 2    
   134   67   69 am   BACKBONE|DICT|INTERRES
   135   69   70 1    
   136   69  190 1    
   137   70   71 1    
   138   70   72 1    
   139   70  191 1    
   140   71  192 1    
   141   71  193 1    
   142   71  194 1    
   143   72   73 2    
   144   72   74 am   BACKBONE|DICT|INTERRES
   145   74   75 1    
   146   74  195 1    
   147   75   76 1    
   148   75   77 1    
   149   75  196 1    
   150   76  197 1    
   151   76  198 1    
   152   76  199 1    
   153   77   78 2    
   154   77   79 am   BACKBONE|DICT|INTERRES
   155   79   80 1    
   156   79  200 1    
   157   80   81 1    
   158   80   82 1    
   159   80  201 1    
   160   81  202 1    
   161   81  203 1    
   162   81  204 1    
   163   82   83 2    
   164   82   84 am   BACKBONE|DICT|INTERRES
   165   84   85 1    
   166   84  205 1    
   167   85   86 1    
   168   85   87 1    
   169   85  206 1    
   170   86  207 1    
   171   86  208 1    
   172   86  209 1    
   173   87   88 2    
   174   87   89 am   BACKBONE|DICT|INTERRES
   175   89   90 1    
   176   89  210 1    
   177   90   91 1    
   178   90   92 1    
   179   90  211 1    
   180   91  212 1    
   181   91  213 1    
   182   91  214 1    
   183   92   93 2    
   184   92   94 am   BACKBONE|DICT|INTERRES
   185   94   95 1    
   186   94  215 1    
   187   95   96 1    
   188   95   97 1    
   189   95  216 1    
   190   96  217 1    
   191   96  218 1    
   192   96  219 1    
   193   97   98 2    
   194   97   99 am   BACKBONE|DICT|INTERRES
   195   99  100 1    
   196   99  220 1    
   197  100  101 1    
   198  100  102 1    
   199  100  221 1    
   200  101  222 1    
   201  101  223 1    
   202  101  224 1    
   203  102  103 2    
   204  102  104 am   BACKBONE|DICT|INTERRES
   205  104  105 1    
   206  104  225 1    
   207  105  106 1    
   208  105  107 1    
   209  105  226 1    
   210  106  227 1    
   211  106  228 1    
   212  106  229 1    
   213  107  108 2    
   214  107  109 am   BACKBONE|DICT|INTERRES
   215  109  110 1    
   216  109  230 1    
   217  110  111 1    
   218  110  112 1    
   219  110  231 1    
   220  111  232 1    
   221  111  233 1    
   222  111  234 1    
   223  112  113 2    
   224  112  114 am   BACKBONE|DICT|INTERRES
   225  114  115 1    
   226  114  235 1    
   227  115  116 1    
   228  115  117 1    
   229  115  236 1    
   230  116  237 1    
   231  116  238 1    
   232  116  239 1    
   233  117  118 2    
   234  117  119 am   BACKBONE|DICT|INTERRES
   235  119  120 1    
   236  119  240 1    
   237  120  121 1    
   238  120  124 1    
   239  120  241 1    
   240  121  122 am   BACKBONE|DICT|INTERRES
   241  121  123 2    
   242  122  242 1    
   243  122  243 1    
   244  124  125 1    
   245  124  244 1    
   246  124  245 1    
   247  125  126 1    
   248  126  246 1    
   249  126  247 1    
@<TRIPOS>SUBSTRUCTURE
     1 UNK         1 GROUP             0       ****    0 ROOT    
