@<TRIPOS>MOLECULE
3R540
247   249    1
SMALL
USER_CHARGES


@<TRIPOS>ATOM
      1 CA         -6.0088  -15.1815  -46.3896 C.3       0 UNK        -0.1800 
      2 C          -4.5204  -15.3240  -46.1049 C.2       0 UNK         0.5000 
      3 O          -4.0535  -16.4374  -45.8828 O.2       0 UNK        -0.5000 
      4 N          -3.7982  -14.1952  -46.0788 N.am      1 UNK        -0.5000 
      5 CA         -2.3442  -13.9978  -45.9246 C.3       1 UNK         0.1400 
      6 C6         -1.5240  -14.2749  -47.2134 C.3       23 UNK        -0.0398 
      7 S7         -1.3087  -16.0213  -47.7030 S.3       23 UNK        -0.2404 
      8 C8         -0.0236  -15.7985  -48.9695 C.3       23 UNK        -0.0205 
      9 C9          0.1794  -17.0452  -49.8155 C.ar      23 UNK        -0.0193 
     10 C10        -0.6719  -17.3037  -50.8951 C.ar      23 UNK        -0.1150 
     11 C11        -0.4538  -18.4068  -51.7265 C.ar      23 UNK        -0.0193 
     12 C12         0.6286  -19.2514  -51.4669 C.ar      23 UNK        -0.1150 
     13 C13         1.4715  -19.0190  -50.3781 C.ar      23 UNK        -0.0193 
     14 C14         1.2439  -17.9130  -49.5538 C.ar      23 UNK        -0.1150 
     15 C15         2.6335  -19.9631  -50.1148 C.3       23 UNK        -0.0205 
     16 S16         2.0632  -21.5504  -49.4333 S.3       23 UNK        -0.2404 
     17 C17         1.7224  -21.0688  -47.7115 C.3       23 UNK        -0.0398 
     18 CA          0.9128  -22.1409  -46.9446 C.3       11 UNK         0.1400 
     19 N           1.2325  -22.1323  -45.5152 N.am      11 UNK        -0.5000 
     20 C           0.8434  -23.0670  -44.6381 C.2       10 UNK         0.5000 
     21 O           0.2034  -24.0710  -44.9489 O.2       10 UNK        -0.5000 
     22 CA          1.1822  -22.8090  -43.1583 C.3       10 UNK         0.1400 
     23 CB          2.6322  -23.2086  -42.8478 C.3       10 UNK        -0.1800 
     24 N           0.9614  -21.4147  -42.7713 N.am      10 UNK        -0.5000 
     25 C          -0.2351  -20.8110  -42.7784 C.2       9 UNK         0.5000 
     26 O          -1.2872  -21.3872  -43.0502 O.2       9 UNK        -0.5000 
     27 CA         -0.2597  -19.3018  -42.4849 C.3       9 UNK         0.1400 
     28 CB         -0.1964  -19.0366  -40.9738 C.3       9 UNK        -0.1800 
     29 N           0.8098  -18.5709  -43.1681 N.am      9 UNK        -0.5000 
     30 C           0.9410  -18.4869  -44.5007 C.2       8 UNK         0.5000 
     31 O           0.1484  -18.9830  -45.2969 O.2       8 UNK        -0.5000 
     32 CA          2.2071  -17.8002  -45.0385 C.3       8 UNK         0.1400 
     33 CB          2.0354  -16.2751  -45.0986 C.3       8 UNK        -0.1800 
     34 N           3.3866  -18.1456  -44.2450 N.am      8 UNK        -0.5000 
     35 C           3.9357  -19.3691  -44.2103 C.2       7 UNK         0.5000 
     36 O           3.5333  -20.3171  -44.8838 O.2       7 UNK        -0.5000 
     37 CA          5.0936  -19.5795  -43.2180 C.3       7 UNK         0.1400 
     38 CB          6.4170  -19.0755  -43.8124 C.3       7 UNK        -0.1800 
     39 N           4.8517  -18.9158  -41.9366 N.am      7 UNK        -0.5000 
     40 C           3.8795  -19.2556  -41.0775 C.2       6 UNK         0.5000 
     41 O           3.1308  -20.2176  -41.2435 O.2       6 UNK        -0.5000 
     42 CA          3.6778  -18.3344  -39.8579 C.3       6 UNK         0.1400 
     43 CB          4.5275  -18.8151  -38.6726 C.3       6 UNK        -0.1800 
     44 N           3.9916  -16.9310  -40.1449 N.am      6 UNK        -0.5000 
     45 C           3.3272  -16.1722  -41.0261 C.2       5 UNK         0.5000 
     46 O           2.3467  -16.5624  -41.6645 O.2       5 UNK        -0.5000 
     47 CA          3.9146  -14.7839  -41.3030 C.3       5 UNK         0.1400 
     48 CB          5.1080  -14.9136  -42.2736 C.3       5 UNK        -0.1800 
     49 N           2.8812  -13.9278  -41.8782 N.am      5 UNK        -0.5000 
     50 C           2.9894  -12.6089  -42.0793 C.2       4 UNK         0.5000 
     51 O           3.9734  -11.9435  -41.7525 O.2       4 UNK        -0.5000 
     52 CA          1.8023  -11.9080  -42.7614 C.3       4 UNK         0.1400 
     53 CB          1.8881  -12.0713  -44.2873 C.3       4 UNK        -0.1800 
     54 N           0.5029  -12.3848  -42.2841 N.am      4 UNK        -0.5000 
     55 C          -0.0123  -12.0758  -41.0830 C.2       3 UNK         0.5000 
     56 O           0.5824  -11.3925  -40.2482 O.2       3 UNK        -0.5000 
     57 CA         -1.4354  -12.5744  -40.7527 C.3       3 UNK         0.1400 
     58 CB         -2.4474  -11.4245  -40.8776 C.3       3 UNK        -0.1800 
     59 N          -1.8802  -13.6796  -41.5990 N.am      3 UNK        -0.5000 
     60 C          -1.4343  -14.9381  -41.5053 C.2       2 UNK         0.5000 
     61 O          -0.6565  -15.3170  -40.6307 O.2       2 UNK        -0.5000 
     62 CA         -1.9211  -15.9347  -42.5773 C.3       2 UNK         0.1400 
     63 CB         -3.0350  -16.8317  -42.0160 C.3       2 UNK        -0.1800 
     64 N          -2.3961  -15.3226  -43.8221 N.am      2 UNK        -0.5000 
     65 C          -1.6728  -14.5550  -44.6460 C.2       1 UNK         0.5000 
     66 O          -0.5177  -14.2167  -44.3901 O.2       1 UNK        -0.5000 
     67 C          -0.6058  -22.0106  -47.1982 C.2       11 UNK         0.5000 
     68 O          -1.1567  -22.7493  -48.0144 O.2       11 UNK        -0.5000 
     69 N          -1.2680  -21.1125  -46.4571 N.am      12 UNK        -0.5000 
     70 CA         -2.7150  -20.9120  -46.4900 C.3       12 UNK         0.1400 
     71 CB         -3.0773  -19.6434  -45.7053 C.3       12 UNK        -0.1800 
     72 C          -3.5001  -22.1279  -45.9639 C.2       12 UNK         0.5000 
     73 O          -4.5342  -22.4727  -46.5322 O.2       12 UNK        -0.5000 
     74 N          -2.9878  -22.7817  -44.9127 N.am      13 UNK        -0.5000 
     75 CA         -3.5385  -24.0271  -44.3759 C.3       13 UNK         0.1400 
     76 CB         -2.8640  -24.3548  -43.0352 C.3       13 UNK        -0.1800 
     77 C          -3.4052  -25.2049  -45.3606 C.2       13 UNK         0.5000 
     78 O          -4.3176  -26.0276  -45.4492 O.2       13 UNK        -0.5000 
     79 N          -2.2810  -25.2572  -46.0876 N.am      14 UNK        -0.5000 
     80 CA         -2.0021  -26.2622  -47.1109 C.3       14 UNK         0.1400 
     81 CB         -0.4963  -26.2694  -47.4176 C.3       14 UNK        -0.1800 
     82 C          -2.8151  -26.0596  -48.4039 C.2       14 UNK         0.5000 
     83 O          -3.2140  -27.0514  -49.0167 O.2       14 UNK        -0.5000 
     84 N          -3.0292  -24.7999  -48.8063 N.am      15 UNK        -0.5000 
     85 CA         -3.6569  -24.4303  -50.0713 C.3       15 UNK         0.1400 
     86 CB         -2.5619  -24.0978  -51.1048 C.3       15 UNK        -0.1800 
     87 C          -4.6783  -23.2961  -49.8794 C.2       15 UNK         0.5000 
     88 O          -5.8567  -23.5856  -49.6721 O.2       15 UNK        -0.5000 
     89 N          -4.2259  -22.0402  -50.0326 N.am      16 UNK        -0.5000 
     90 CA         -5.0179  -20.8006  -50.1411 C.3       16 UNK         0.1400 
     91 CB         -5.8502  -20.5145  -48.8728 C.3       16 UNK        -0.1800 
     92 C          -5.8767  -20.7066  -51.4236 C.2       16 UNK         0.5000 
     93 O          -6.7140  -19.8087  -51.5347 O.2       16 UNK        -0.5000 
     94 N          -5.6365  -21.5948  -52.3978 N.am      17 UNK        -0.5000 
     95 CA         -6.2879  -21.6297  -53.7073 C.3       17 UNK         0.1400 
     96 CB         -6.1950  -23.0605  -54.2676 C.3       17 UNK        -0.1800 
     97 C          -5.6774  -20.5811  -54.6581 C.2       17 UNK         0.5000 
     98 O          -5.1302  -20.9329  -55.7049 O.2       17 UNK        -0.5000 
     99 N          -5.7554  -19.3035  -54.2646 N.am      18 UNK        -0.5000 
    100 CA        -5.1296  -18.1576  -54.9318 C.3       18 UNK         0.1400 
    101 CB        -5.3723  -16.8951  -54.0932 C.3       18 UNK        -0.1800 
    102 C         -5.5791  -17.9422  -56.3904 C.2       18 UNK         0.5000 
    103 O         -4.7974  -17.4312  -57.1921 O.2       18 UNK        -0.5000 
    104 N         -6.7945  -18.3955  -56.7293 N.am      19 UNK        -0.5000 
    105 CA        -7.3318  -18.4333  -58.0937 C.3       19 UNK         0.1400 
    106 CB        -8.8125  -18.8376  -58.0327 C.3       19 UNK        -0.1800 
    107 C         -6.5549  -19.3760  -59.0394 C.2       19 UNK         0.5000 
    108 O         -6.5715  -19.1633  -60.2521 O.2       19 UNK        -0.5000 
    109 N         -5.8741  -20.3778  -58.4679 N.am      20 UNK        -0.5000 
    110 CA        -4.9724  -21.3083  -59.1469 C.3       20 UNK         0.1400 
    111 CB        -5.4097  -22.7432  -58.8021 C.3       20 UNK        -0.1800 
    112 C         -3.5061  -21.0515  -58.7370 C.2       20 UNK         0.5000 
    113 O         -2.6676  -21.9434  -58.8833 O.2       20 UNK        -0.5000 
    114 N         -3.2259  -19.8578  -58.1859 N.am      21 UNK        -0.5000 
    115 CA        -1.9392  -19.3943  -57.6501 C.3       21 UNK         0.1400 
    116 CB        -0.9278  -19.1824  -58.7953 C.3       21 UNK        -0.1800 
    117 C         -1.3774  -20.2846  -56.5186 C.2       21 UNK         0.5000 
    118 O         -0.1627  -20.3235  -56.3169 O.2       21 UNK        -0.5000 
    119 N         -2.2710  -20.9927  -55.8138 N.am      22 UNK        -0.5000 
    120 CA        -1.9771  -22.0181  -54.8000 C.3       22 UNK         0.1400 
    121 C         -1.2683  -23.2901  -55.3611 C.2       22 UNK         0.5000 
    122 N         -1.2993  -23.5472  -56.6647 N.am      22 UNK        -0.7600 
    123 O         -0.7103  -24.0797  -54.6043 O.2       22 UNK        -0.5000 
    124 C124       -1.2951  -21.4414  -53.5291 C.3       23 UNK        -0.0398 
    125 S125       -2.3434  -20.1944  -52.6990 S.3       23 UNK        -0.2404 
    126 C126       -1.3716  -18.6698  -52.9134 C.3       23 UNK        -0.0205 
    127 H127       -6.5895  -15.5627  -45.5497 H         1 UNK         0.0600 
    128 H128       -6.2754  -15.7549  -47.2774 H         1 UNK         0.0600 
    129 H129       -6.2940  -14.1427  -46.5575 H         1 UNK         0.0600 
    130 H130       -4.3024  -13.3323  -46.2289 H         1 UNK         0.3000 
    131 H131       -2.2729  -12.9190  -45.7767 H         1 UNK         0.0600 
    132 H132       -0.5321  -13.8308  -47.1091 H         1 UNK         0.0800 
    133 H133       -1.9867  -13.7509  -48.0507 H         1 UNK         0.0800 
    134 H134        0.9107  -15.5120  -48.4839 H         1 UNK         0.0800 
    135 H135       -0.2966  -14.9672  -49.6215 H         1 UNK         0.0800 
    136 H136       -1.4968  -16.6339  -51.0937 H         1 UNK         0.1150 
    137 H137        0.8161  -20.1029  -52.1027 H         1 UNK         0.1150 
    138 H138        1.9019  -17.7188  -48.7186 H         1 UNK         0.1150 
    139 H139        3.1613  -20.1512  -51.0509 H         1 UNK         0.0800 
    140 H140        3.3617  -19.5111  -49.4394 H         1 UNK         0.0800 
    141 H141        1.2290  -20.0961  -47.6757 H         1 UNK         0.0800 
    142 H142        2.6968  -20.9262  -47.2448 H         1 UNK         0.0800 
    143 H143        1.2153  -23.1243  -47.3114 H         1 UNK         0.0600 
    144 H144        1.7943  -21.3570  -45.1799 H         1 UNK         0.3000 
    145 H145        0.5214  -23.4324  -42.5525 H         1 UNK         0.0600 
    146 H146        2.8537  -23.0916  -41.7868 H         1 UNK         0.0600 
    147 H147        3.3471  -22.6038  -43.4058 H         1 UNK         0.0600 
    148 H148        2.8127  -24.2529  -43.1055 H         1 UNK         0.0600 
    149 H149        1.7754  -20.8875  -42.4688 H         1 UNK         0.3000 
    150 H150       -1.2089  -18.9176  -42.8598 H         1 UNK         0.0600 
    151 H151       -1.0710  -19.4520  -40.4720 H         1 UNK         0.0600 
    152 H152       -0.1709  -17.9695  -40.7563 H         1 UNK         0.0600 
    153 H153        0.6834  -19.4894  -40.5189 H         1 UNK         0.0600 
    154 H154        1.4818  -18.0835  -42.5836 H         1 UNK         0.3000 
    155 H155        2.3706  -18.1574  -46.0576 H         1 UNK         0.0600 
    156 H156        1.2042  -16.0072  -45.7518 H         1 UNK         0.0600 
    157 H157        2.9276  -15.7894  -45.4936 H         1 UNK         0.0600 
    158 H158        1.8251  -15.8468  -44.1192 H         1 UNK         0.0600 
    159 H159        3.7369  -17.4358  -43.6205 H         1 UNK         0.3000 
    160 H160        5.1860  -20.6522  -43.0346 H         1 UNK         0.0600 
    161 H161        6.3965  -18.0000  -43.9932 H         1 UNK         0.0600 
    162 H162        6.6278  -19.5647  -44.7644 H         1 UNK         0.0600 
    163 H163        7.2539  -19.2882  -43.1470 H         1 UNK         0.0600 
    164 H164        5.4328  -18.1214  -41.7157 H         1 UNK         0.3000 
    165 H165        2.6265  -18.3905  -39.5693 H         1 UNK         0.0600 
    166 H166        4.3351  -18.2177  -37.7812 H         1 UNK         0.0600 
    167 H167        4.2973  -19.8519  -38.4231 H         1 UNK         0.0600 
    168 H168        5.5946  -18.7593  -38.8915 H         1 UNK         0.0600 
    169 H169        4.7910  -16.5423  -39.6652 H         1 UNK         0.3000 
    170 H170        4.2473  -14.3508  -40.3577 H         1 UNK         0.0600 
    171 H171        4.7931  -15.2902  -43.2476 H         1 UNK         0.0600 
    172 H172        5.6035  -13.9564  -42.4335 H         1 UNK         0.0600 
    173 H173        5.8643  -15.5966  -41.8852 H         1 UNK         0.0600 
    174 H174        2.0277  -14.4108  -42.1311 H         1 UNK         0.3000 
    175 H175        1.8730  -10.8411  -42.5386 H         1 UNK         0.0600 
    176 H176        1.8843  -13.1209  -44.5831 H         1 UNK         0.0600 
    177 H177        1.0539  -11.5786  -44.7869 H         1 UNK         0.0600 
    178 H178        2.8070  -11.6289  -44.6736 H         1 UNK         0.0600 
    179 H179       -0.0198  -12.9810  -42.9181 H         1 UNK         0.3000 
    180 H180       -1.4311  -12.9132  -39.7145 H         1 UNK         0.0600 
    181 H181       -3.4469  -11.7442  -40.5821 H         1 UNK         0.0600 
    182 H182       -2.5028  -11.0465  -41.8993 H         1 UNK         0.0600 
    183 H183       -2.1720  -10.5887  -40.2330 H         1 UNK         0.0600 
    184 H184       -2.5224  -13.4554  -42.3444 H         1 UNK         0.3000 
    185 H185       -1.0638  -16.5553  -42.8362 H         1 UNK         0.0600 
    186 H186       -3.9274  -16.2545  -41.7714 H         1 UNK         0.0600 
    187 H187       -3.3209  -17.6020  -42.7327 H         1 UNK         0.0600 
    188 H188       -2.7123  -17.3377  -41.1053 H         1 UNK         0.0600 
    189 H189       -3.3039  -15.6195  -44.1591 H         1 UNK         0.3000 
    190 H190       -0.7396  -20.4859  -45.8535 H         1 UNK         0.3000 
    191 H191       -2.9937  -20.7578  -47.5335 H         1 UNK         0.0600 
    192 H192       -2.5661  -18.7704  -46.1125 H         1 UNK         0.0600 
    193 H193       -2.8064  -19.7267  -44.6530 H         1 UNK         0.0600 
    194 H194       -4.1482  -19.4436  -45.7549 H         1 UNK         0.0600 
    195 H195       -2.1769  -22.3944  -44.4383 H         1 UNK         0.3000 
    196 H196       -4.6028  -23.8703  -44.1885 H         1 UNK         0.0600 
    197 H197       -3.0146  -23.5529  -42.3122 H         1 UNK         0.0600 
    198 H198       -1.7904  -24.5044  -43.1491 H         1 UNK         0.0600 
    199 H199       -3.2786  -25.2658  -42.6021 H         1 UNK         0.0600 
    200 H200       -1.5501  -24.5782  -45.9041 H         1 UNK         0.3000 
    201 H201       -2.2646  -27.2416  -46.7054 H         1 UNK         0.0600 
    202 H202        0.0871  -26.4877  -46.5229 H         1 UNK         0.0600 
    203 H203       -0.1599  -25.3092  -47.8095 H         1 UNK         0.0600 
    204 H204       -0.2520  -27.0307  -48.1594 H         1 UNK         0.0600 
    205 H205       -2.6282  -24.0384  -48.2663 H         1 UNK         0.3000 
    206 H206       -4.2273  -25.2742  -50.4651 H         1 UNK         0.0600 
    207 H207       -1.8773  -23.3300  -50.7423 H         1 UNK         0.0600 
    208 H208       -1.9660  -24.9809  -51.3359 H         1 UNK         0.0600 
    209 H209       -2.9948  -23.7505  -52.0436 H         1 UNK         0.0600 
    210 H210       -3.2344  -21.9229  -50.1915 H         1 UNK         0.3000 
    211 H211       -4.2879  -19.9946  -50.2281 H         1 UNK         0.0600 
    212 H212       -6.5887  -21.2919  -48.6791 H         1 UNK         0.0600 
    213 H213       -6.3908  -19.5713  -48.9591 H         1 UNK         0.0600 
    214 H214       -5.2184  -20.4237  -47.9936 H         1 UNK         0.0600 
    215 H215       -4.9037  -22.2689  -52.2447 H         1 UNK         0.3000 
    216 H216       -7.3456  -21.3862  -53.5878 H         1 UNK         0.0600 
    217 H217       -6.6917  -23.1341  -55.2361 H         1 UNK         0.0600 
    218 H218       -6.6783  -23.7754  -53.6015 H         1 UNK         0.0600 
    219 H219       -5.1611  -23.3781  -54.4048 H         1 UNK         0.0600 
    220 H220       -6.2041  -19.1223  -53.3726 H         1 UNK         0.3000 
    221 H221       -4.0544  -18.3474  -54.9542 H         1 UNK         0.0600 
    222 H222       -6.4362  -16.6753  -53.9974 H         1 UNK         0.0600 
    223 H223       -4.9597  -17.0045  -53.0899 H         1 UNK         0.0600 
    224 H224       -4.8950  -16.0254  -54.5467 H         1 UNK         0.0600 
    225 H225       -7.3678  -18.8027  -56.0052 H         1 UNK         0.3000 
    226 H226       -7.2667  -17.4255  -58.5089 H         1 UNK         0.0600 
    227 H227       -9.3892  -18.1356  -57.4301 H         1 UNK         0.0600 
    228 H228       -9.2561  -18.8487  -59.0292 H         1 UNK         0.0600 
    229 H229       -8.9403  -19.8330  -57.6054 H         1 UNK         0.0600 
    230 H230       -5.8874  -20.4641  -57.4561 H         1 UNK         0.3000 
    231 H231       -5.0301  -21.1809  -60.2294 H         1 UNK         0.0600 
    232 H232       -4.8080  -23.4791  -59.3369 H         1 UNK         0.0600 
    233 H233       -6.4499  -22.9146  -59.0792 H         1 UNK         0.0600 
    234 H234       -5.3093  -22.9473  -57.7351 H         1 UNK         0.0600 
    235 H235       -3.9843  -19.1924  -58.0957 H         1 UNK         0.3000 
    236 H236       -2.1318  -18.4214  -57.1961 H         1 UNK         0.0600 
    237 H237       -0.6374  -20.1264  -59.2575 H         1 UNK         0.0600 
    238 H238       -1.3424  -18.5412  -59.5732 H         1 UNK         0.0600 
    239 H239       -0.0183  -18.7021  -58.4329 H         1 UNK         0.0600 
    240 H240       -3.2567  -20.8925  -56.0370 H         1 UNK         0.3000 
    241 H241       -2.9527  -22.3888  -54.4872 H         1 UNK         0.0600 
    242 H242       -1.7601  -22.9196  -57.3148 H         1 UNK         0.3800 
    243 H243       -0.8482  -24.3779  -57.0132 H         1 UNK         0.3800 
    244 H244       -0.3221  -21.0235  -53.7833 H         1 UNK         0.0800 
    245 H245       -1.0965  -22.2291  -52.8025 H         1 UNK         0.0800 
    246 H246       -0.7863  -18.7149  -53.8325 H         1 UNK         0.0800 
    247 H247       -2.0689  -17.8407  -53.0419 H         1 UNK         0.0800 
@<TRIPOS>BOND
     1    1    2 1    
     2    1  127 1    
     3    1  128 1    
     4    1  129 1    
     5    2    3 2    
     6    2    4 am   BACKBONE|DICT|INTERRES
     7    4    5 1    
     8    4  130 1    
     9    5    6 1    
    10    5   65 1    
    11    5  131 1    
    12    6    7 1    
    13    6  132 1    
    14    6  133 1    
    15    7    8 1    
    16    8    9 1    
    17    8  134 1    
    18    8  135 1    
    19    9   10 ar   
    20    9   14 ar   
    21   10   11 ar   
    22   10  136 1    
    23   11   12 ar   
    24   11  126 1    
    25   12   13 ar   
    26   12  137 1    
    27   13   14 ar   
    28   13   15 1    
    29   14  138 1    
    30   15   16 1    
    31   15  139 1    
    32   15  140 1    
    33   16   17 1    
    34   17   18 1    
    35   17  141 1    
    36   17  142 1    
    37   18   19 1    
    38   18   67 1    
    39   18  143 1    
    40   19   20 am   BACKBONE|DICT|INTERRES
    41   19  144 1    
    42   20   21 2    
    43   20   22 1    
    44   22   23 1    
    45   22   24 1    
    46   22  145 1    
    47   23  146 1    
    48   23  147 1    
    49   23  148 1    
    50   24   25 am   BACKBONE|DICT|INTERRES
    51   24  149 1    
    52   25   26 2    
    53   25   27 1    
    54   27   28 1    
    55   27   29 1    
    56   27  150 1    
    57   28  151 1    
    58   28  152 1    
    59   28  153 1    
    60   29   30 am   BACKBONE|DICT|INTERRES
    61   29  154 1    
    62   30   31 2    
    63   30   32 1    
    64   32   33 1    
    65   32   34 1    
    66   32  155 1    
    67   33  156 1    
    68   33  157 1    
    69   33  158 1    
    70   34   35 am   BACKBONE|DICT|INTERRES
    71   34  159 1    
    72   35   36 2    
    73   35   37 1    
    74   37   38 1    
    75   37   39 1    
    76   37  160 1    
    77   38  161 1    
    78   38  162 1    
    79   38  163 1    
    80   39   40 am   BACKBONE|DICT|INTERRES
    81   39  164 1    
    82   40   41 2    
    83   40   42 1    
    84   42   43 1    
    85   42   44 1    
    86   42  165 1    
    87   43  166 1    
    88   43  167 1    
    89   43  168 1    
    90   44   45 am   BACKBONE|DICT|INTERRES
    91   44  169 1    
    92   45   46 2    
    93   45   47 1    
    94   47   48 1    
    95   47   49 1    
    96   47  170 1    
    97   48  171 1    
    98   48  172 1    
    99   48  173 1    
   100   49   50 am   BACKBONE|DICT|INTERRES
   101   49  174 1    
   102   50   51 2    
   103   50   52 1    
   104   52   53 1    
   105   52   54 1    
   106   52  175 1    
   107   53  176 1    
   108   53  177 1    
   109   53  178 1    
   110   54   55 am   BACKBONE|DICT|INTERRES
   111   54  179 1    
   112   55   56 2    
   113   55   57 1    
   114   57   58 1    
   115   57   59 1    
   116   57  180 1    
   117   58  181 1    
   118   58  182 1    
   119   58  183 1    
   120   59   60 am   BACKBONE|DICT|INTERRES
   121   59  184 1    
   122   60   61 2    
   123   60   62 1    
   124   62   63 1    
   125   62   64 1    
   126   62  185 1    
   127   63  186 1    
   128   63  187 1    
   129   63  188 1    
   130   64   65 am   BACKBONE|DICT|INTERRES
   131   64  189 1    
   132   65   66 2    
   133   67   68 2    
   134   67   69 am   BACKBONE|DICT|INTERRES
   135   69   70 1    
   136   69  190 1    
   137   70   71 1    
   138   70   72 1    
   139   70  191 1    
   140   71  192 1    
   141   71  193 1    
   142   71  194 1    
   143   72   73 2    
   144   72   74 am   BACKBONE|DICT|INTERRES
   145   74   75 1    
   146   74  195 1    
   147   75   76 1    
   148   75   77 1    
   149   75  196 1    
   150   76  197 1    
   151   76  198 1    
   152   76  199 1    
   153   77   78 2    
   154   77   79 am   BACKBONE|DICT|INTERRES
   155   79   80 1    
   156   79  200 1    
   157   80   81 1    
   158   80   82 1    
   159   80  201 1    
   160   81  202 1    
   161   81  203 1    
   162   81  204 1    
   163   82   83 2    
   164   82   84 am   BACKBONE|DICT|INTERRES
   165   84   85 1    
   166   84  205 1    
   167   85   86 1    
   168   85   87 1    
   169   85  206 1    
   170   86  207 1    
   171   86  208 1    
   172   86  209 1    
   173   87   88 2    
   174   87   89 am   BACKBONE|DICT|INTERRES
   175   89   90 1    
   176   89  210 1    
   177   90   91 1    
   178   90   92 1    
   179   90  211 1    
   180   91  212 1    
   181   91  213 1    
   182   91  214 1    
   183   92   93 2    
   184   92   94 am   BACKBONE|DICT|INTERRES
   185   94   95 1    
   186   94  215 1    
   187   95   96 1    
   188   95   97 1    
   189   95  216 1    
   190   96  217 1    
   191   96  218 1    
   192   96  219 1    
   193   97   98 2    
   194   97   99 am   BACKBONE|DICT|INTERRES
   195   99  100 1    
   196   99  220 1    
   197  100  101 1    
   198  100  102 1    
   199  100  221 1    
   200  101  222 1    
   201  101  223 1    
   202  101  224 1    
   203  102  103 2    
   204  102  104 am   BACKBONE|DICT|INTERRES
   205  104  105 1    
   206  104  225 1    
   207  105  106 1    
   208  105  107 1    
   209  105  226 1    
   210  106  227 1    
   211  106  228 1    
   212  106  229 1    
   213  107  108 2    
   214  107  109 am   BACKBONE|DICT|INTERRES
   215  109  110 1    
   216  109  230 1    
   217  110  111 1    
   218  110  112 1    
   219  110  231 1    
   220  111  232 1    
   221  111  233 1    
   222  111  234 1    
   223  112  113 2    
   224  112  114 am   BACKBONE|DICT|INTERRES
   225  114  115 1    
   226  114  235 1    
   227  115  116 1    
   228  115  117 1    
   229  115  236 1    
   230  116  237 1    
   231  116  238 1    
   232  116  239 1    
   233  117  118 2    
   234  117  119 am   BACKBONE|DICT|INTERRES
   235  119  120 1    
   236  119  240 1    
   237  120  121 1    
   238  120  124 1    
   239  120  241 1    
   240  121  122 am   BACKBONE|DICT|INTERRES
   241  121  123 2    
   242  122  242 1    
   243  122  243 1    
   244  124  125 1    
   245  124  244 1    
   246  124  245 1    
   247  125  126 1    
   248  126  246 1    
   249  126  247 1    
@<TRIPOS>SUBSTRUCTURE
     1 UNK         1 GROUP             0       ****    0 ROOT    
