@<TRIPOS>MOLECULE
3R540
247   249    1
SMALL
USER_CHARGES


@<TRIPOS>ATOM
      1 CA         -5.2496  -13.7932  -51.3132 C.3       0 UNK        -0.1800 
      2 C          -4.3194  -14.6803  -50.4992 C.2       0 UNK         0.5000 
      3 O          -3.5256  -15.4220  -51.0794 O.2       0 UNK        -0.5000 
      4 N          -4.4187  -14.6079  -49.1662 N.am      1 UNK        -0.5000 
      5 CA         -3.6383  -15.4061  -48.2173 C.3       1 UNK         0.1400 
      6 C6         -4.1772  -16.8613  -48.0791 C.3       23 UNK        -0.0398 
      7 S7         -2.8593  -18.1212  -47.9848 S.3       23 UNK        -0.2404 
      8 C8         -2.4290  -18.2157  -49.7437 C.3       23 UNK        -0.0205 
      9 C9         -1.4647  -19.3401  -50.0762 C.ar      23 UNK        -0.0193 
     10 C10        -1.9471  -20.5387  -50.6088 C.ar      23 UNK        -0.1150 
     11 C11        -1.0605  -21.5207  -51.0566 C.ar      23 UNK        -0.0193 
     12 C12         0.3151  -21.3089  -50.9433 C.ar      23 UNK        -0.1150 
     13 C13         0.8109  -20.1266  -50.3869 C.ar      23 UNK        -0.0193 
     14 C14        -0.0857  -19.1462  -49.9504 C.ar      23 UNK        -0.1150 
     15 C15         2.3124  -19.8781  -50.3280 C.3       23 UNK        -0.0205 
     16 S16         3.2292  -21.2194  -49.5024 S.3       23 UNK        -0.2404 
     17 C17         2.7539  -20.9706  -47.7629 C.3       23 UNK        -0.0398 
     18 CA          2.2217  -22.2653  -47.0959 C.3       11 UNK         0.1400 
     19 N           2.5896  -22.3192  -45.6802 N.am      11 UNK        -0.5000 
     20 C           2.7312  -23.4387  -44.9593 C.2       10 UNK         0.5000 
     21 O           2.6358  -24.5706  -45.4320 O.2       10 UNK        -0.5000 
     22 CA          3.0283  -23.2691  -43.4552 C.3       10 UNK         0.1400 
     23 CB          4.5294  -23.4477  -43.1821 C.3       10 UNK        -0.1800 
     24 N           2.6019  -21.9713  -42.9250 N.am      10 UNK        -0.5000 
     25 C           1.3262  -21.6193  -42.7132 C.2       9 UNK         0.5000 
     26 O           0.3701  -22.3695  -42.9073 O.2       9 UNK        -0.5000 
     27 CA          1.0795  -20.1651  -42.2644 C.3       9 UNK         0.1400 
     28 CB          1.1894  -20.0448  -40.7379 C.3       9 UNK        -0.1800 
     29 N           1.9755  -19.1893  -42.9002 N.am      9 UNK        -0.5000 
     30 C           2.0560  -18.9846  -44.2243 C.2       8 UNK         0.5000 
     31 O           1.4019  -19.6322  -45.0413 O.2       8 UNK        -0.5000 
     32 CA          3.0274  -17.9057  -44.7300 C.3       8 UNK         0.1400 
     33 CB          2.5485  -17.2727  -46.0482 C.3       8 UNK        -0.1800 
     34 N           3.2194  -16.8623  -43.7261 N.am      8 UNK        -0.5000 
     35 C           4.4029  -16.3872  -43.3264 C.2       7 UNK         0.5000 
     36 O           5.4824  -16.7479  -43.7976 O.2       7 UNK        -0.5000 
     37 CA          4.3895  -15.3442  -42.1915 C.3       7 UNK         0.1400 
     38 CB          4.3412  -13.9192  -42.7638 C.3       7 UNK        -0.1800 
     39 N           3.3170  -15.4922  -41.2008 N.am      7 UNK        -0.5000 
     40 C           3.0653  -16.5851  -40.4666 C.2       6 UNK         0.5000 
     41 O           3.5875  -17.6838  -40.6559 O.2       6 UNK        -0.5000 
     42 CA          2.0617  -16.4105  -39.3216 C.3       6 UNK         0.1400 
     43 CB          2.5986  -15.4160  -38.2699 C.3       6 UNK        -0.1800 
     44 N           0.7556  -15.9943  -39.8317 N.am      6 UNK        -0.5000 
     45 C          -0.3777  -16.0321  -39.1143 C.2       5 UNK         0.5000 
     46 O          -0.4303  -16.3988  -37.9394 O.2       5 UNK        -0.5000 
     47 CA         -1.6825  -15.5995  -39.8129 C.3       5 UNK         0.1400 
     48 CB         -1.9485  -14.1056  -39.5731 C.3       5 UNK        -0.1800 
     49 N          -1.6953  -15.8556  -41.2513 N.am      5 UNK        -0.5000 
     50 C          -1.6304  -17.0646  -41.8250 C.2       4 UNK         0.5000 
     51 O          -1.6180  -18.1196  -41.1915 O.2       4 UNK        -0.5000 
     52 CA         -1.5717  -17.1105  -43.3652 C.3       4 UNK         0.1400 
     53 CB         -2.9261  -17.5870  -43.9083 C.3       4 UNK        -0.1800 
     54 N          -1.2068  -15.8415  -44.0126 N.am      4 UNK        -0.5000 
     55 C          -0.0537  -15.1776  -43.8265 C.2       3 UNK         0.5000 
     56 O           0.8185  -15.5633  -43.0461 O.2       3 UNK        -0.5000 
     57 CA          0.1775  -13.8651  -44.6067 C.3       3 UNK         0.1400 
     58 CB          1.3430  -14.0045  -45.5974 C.3       3 UNK        -0.1800 
     59 N          -0.9933  -13.3929  -45.3434 N.am      3 UNK        -0.5000 
     60 C          -2.0568  -12.7818  -44.8069 C.2       2 UNK         0.5000 
     61 O          -2.1605  -12.5180  -43.6087 O.2       2 UNK        -0.5000 
     62 CA         -3.2105  -12.4382  -45.7739 C.3       2 UNK         0.1400 
     63 CB         -3.0903  -10.9853  -46.2582 C.3       2 UNK        -0.1800 
     64 N          -3.3032  -13.3266  -46.9424 N.am      2 UNK        -0.5000 
     65 C          -3.5189  -14.6498  -46.8792 C.2       1 UNK         0.5000 
     66 O          -3.6266  -15.2519  -45.8127 O.2       1 UNK        -0.5000 
     67 C           0.6940  -22.4102  -47.2367 C.2       11 UNK         0.5000 
     68 O           0.2173  -23.2572  -47.9916 O.2       11 UNK        -0.5000 
     69 N          -0.0401  -21.6276  -46.4322 N.am      12 UNK        -0.5000 
     70 CA         -1.5003  -21.6043  -46.3353 C.3       12 UNK         0.1400 
     71 CB         -1.8988  -20.4891  -45.3621 C.3       12 UNK        -0.1800 
     72 C          -2.1261  -22.9415  -45.8933 C.2       12 UNK         0.5000 
     73 O          -3.2955  -23.1900  -46.1869 O.2       12 UNK        -0.5000 
     74 N          -1.3328  -23.7997  -45.2356 N.am      13 UNK        -0.5000 
     75 CA         -1.6759  -25.1732  -44.8582 C.3       13 UNK         0.1400 
     76 CB         -0.5234  -25.7644  -44.0329 C.3       13 UNK        -0.1800 
     77 C          -2.0132  -26.0919  -46.0541 C.2       13 UNK         0.5000 
     78 O          -2.6757  -27.1112  -45.8587 O.2       13 UNK        -0.5000 
     79 N          -1.5942  -25.7066  -47.2694 N.am      14 UNK        -0.5000 
     80 CA         -1.9770  -26.3402  -48.5336 C.3       14 UNK         0.1400 
     81 CB         -0.9543  -25.9440  -49.6093 C.3       14 UNK        -0.1800 
     82 C          -3.4174  -26.0048  -48.9893 C.2       14 UNK         0.5000 
     83 O          -3.8583  -26.5451  -50.0047 O.2       14 UNK        -0.5000 
     84 N          -4.1220  -25.1402  -48.2428 N.am      15 UNK        -0.5000 
     85 CA         -5.4794  -24.6453  -48.4767 C.3       15 UNK         0.1400 
     86 CB         -6.5121  -25.7958  -48.5078 C.3       15 UNK        -0.1800 
     87 C          -5.5347  -23.6914  -49.6859 C.2       15 UNK         0.5000 
     88 O          -4.6232  -22.8780  -49.8466 O.2       15 UNK        -0.5000 
     89 N          -6.6228  -23.7486  -50.4690 N.am      16 UNK        -0.5000 
     90 CA         -6.9728  -22.9252  -51.6397 C.3       16 UNK         0.1400 
     91 CB         -5.9234  -23.0613  -52.7579 C.3       16 UNK        -0.1800 
     92 C          -7.2498  -21.4386  -51.3300 C.2       16 UNK         0.5000 
     93 O          -8.1874  -20.8736  -51.8934 O.2       16 UNK        -0.5000 
     94 N          -6.4463  -20.8454  -50.4375 N.am      17 UNK        -0.5000 
     95 CA         -6.5080  -19.4713  -49.9327 C.3       17 UNK         0.1400 
     96 CB         -7.7925  -19.2457  -49.1091 C.3       17 UNK        -0.1800 
     97 C          -6.2926  -18.3996  -51.0227 C.2       17 UNK         0.5000 
     98 O          -6.8324  -17.2970  -50.9171 O.2       17 UNK        -0.5000 
     99 N          -5.4809  -18.7305  -52.0327 N.am      18 UNK        -0.5000 
    100 CA        -5.0861  -17.8366  -53.1109 C.3       18 UNK         0.1400 
    101 CB        -6.0716  -17.9677  -54.2857 C.3       18 UNK        -0.1800 
    102 C         -3.6529  -18.1871  -53.5204 C.2       18 UNK         0.5000 
    103 O         -3.4484  -19.1699  -54.2353 O.2       18 UNK        -0.5000 
    104 N         -2.6811  -17.3786  -53.0762 N.am      19 UNK        -0.5000 
    105 CA        -1.2589  -17.5312  -53.4104 C.3       19 UNK         0.1400 
    106 CB        -0.4386  -16.4546  -52.6834 C.3       19 UNK        -0.1800 
    107 C         -0.9804  -17.4716  -54.9253 C.2       19 UNK         0.5000 
    108 O         -0.0959  -18.1745  -55.4131 O.2       19 UNK        -0.5000 
    109 N         -1.7756  -16.6678  -55.6452 N.am      20 UNK        -0.5000 
    110 CA        -1.7459  -16.5386  -57.1020 C.3       20 UNK         0.1400 
    111 CB        -2.6153  -15.3399  -57.5115 C.3       20 UNK        -0.1800 
    112 C         -2.1994  -17.8110  -57.8463 C.2       20 UNK         0.5000 
    113 O         -1.7732  -18.0205  -58.9827 O.2       20 UNK        -0.5000 
    114 N         -3.0441  -18.6340  -57.2071 N.am      21 UNK        -0.5000 
    115 CA        -3.4772  -19.9272  -57.7351 C.3       21 UNK         0.1400 
    116 CB        -4.8477  -20.3001  -57.1470 C.3       21 UNK        -0.1800 
    117 C         -2.4366  -21.0194  -57.4384 C.2       21 UNK         0.5000 
    118 O         -2.1551  -21.8405  -58.3126 O.2       21 UNK        -0.5000 
    119 N         -1.8828  -21.0039  -56.2188 N.am      22 UNK        -0.5000 
    120 CA        -0.8362  -21.9359  -55.7709 C.3       22 UNK         0.1400 
    121 C          0.5423  -21.7088  -56.4521 C.2       22 UNK         0.5000 
    122 N          0.9520  -20.4737  -56.7113 N.am      22 UNK        -0.7600 
    123 O          1.2473  -22.6678  -56.7538 O.2       22 UNK        -0.5000 
    124 C124       -0.6838  -21.9350  -54.2322 C.3       23 UNK        -0.0398 
    125 S125       -2.2071  -22.4743  -53.3878 S.3       23 UNK        -0.2404 
    126 C126       -1.5853  -22.7901  -51.7074 C.3       23 UNK        -0.0205 
    127 H127       -4.6716  -13.1664  -51.9921 H         1 UNK         0.0600 
    128 H128       -5.8507  -13.1431  -50.6772 H         1 UNK         0.0600 
    129 H129       -5.9256  -14.4091  -51.9065 H         1 UNK         0.0600 
    130 H130       -5.0952  -13.9827  -48.7488 H         1 UNK         0.3000 
    131 H131       -2.6178  -15.4444  -48.6033 H         1 UNK         0.0600 
    132 H132       -4.8386  -16.9770  -47.2189 H         1 UNK         0.0800 
    133 H133       -4.8036  -17.1089  -48.9333 H         1 UNK         0.0800 
    134 H134       -3.3365  -18.3258  -50.3344 H         1 UNK         0.0800 
    135 H135       -1.9884  -17.2664  -50.0421 H         1 UNK         0.0800 
    136 H136       -3.0109  -20.6939  -50.7205 H         1 UNK         0.1150 
    137 H137        1.0043  -22.0597  -51.3029 H         1 UNK         0.1150 
    138 H138        0.2865  -18.2136  -49.5502 H         1 UNK         0.1150 
    139 H139        2.6840  -19.7804  -51.3488 H         1 UNK         0.0800 
    140 H140        2.5352  -18.9330  -49.8300 H         1 UNK         0.0800 
    141 H141        2.0400  -20.1499  -47.6775 H         1 UNK         0.0800 
    142 H142        3.6542  -20.6259  -47.2521 H         1 UNK         0.0800 
    143 H143        2.6820  -23.1245  -47.5893 H         1 UNK         0.0600 
    144 H144        2.6146  -21.4329  -45.1960 H         1 UNK         0.3000 
    145 H145        2.4876  -24.0547  -42.9229 H         1 UNK         0.0600 
    146 H146        4.7448  -23.3984  -42.1146 H         1 UNK         0.0600 
    147 H147        4.8785  -24.4180  -43.5379 H         1 UNK         0.0600 
    148 H148        5.1239  -22.6816  -43.6815 H         1 UNK         0.0600 
    149 H149        3.3265  -21.2946  -42.7346 H         1 UNK         0.3000 
    150 H150        0.0578  -19.9100  -42.5505 H         1 UNK         0.0600 
    151 H151        0.5315  -20.7587  -40.2406 H         1 UNK         0.0600 
    152 H152        0.8959  -19.0507  -40.4021 H         1 UNK         0.0600 
    153 H153        2.2056  -20.2320  -40.3893 H         1 UNK         0.0600 
    154 H154        2.5676  -18.6442  -42.2834 H         1 UNK         0.3000 
    155 H155        3.9711  -18.4190  -44.9237 H         1 UNK         0.0600 
    156 H156        3.1871  -16.4414  -46.3465 H         1 UNK         0.0600 
    157 H157        1.5255  -16.9065  -45.9631 H         1 UNK         0.0600 
    158 H158        2.5662  -17.9973  -46.8616 H         1 UNK         0.0600 
    159 H159        2.3742  -16.4778  -43.3068 H         1 UNK         0.3000 
    160 H160        5.3335  -15.4567  -41.6546 H         1 UNK         0.0600 
    161 H161        3.3695  -13.6963  -43.2041 H         1 UNK         0.0600 
    162 H162        5.0962  -13.7777  -43.5385 H         1 UNK         0.0600 
    163 H163        4.5325  -13.1779  -41.9878 H         1 UNK         0.0600 
    164 H164        2.8069  -14.6491  -40.9833 H         1 UNK         0.3000 
    165 H165        1.9491  -17.3859  -38.8433 H         1 UNK         0.0600 
    166 H166        1.9941  -15.4257  -37.3633 H         1 UNK         0.0600 
    167 H167        3.6171  -15.6710  -37.9740 H         1 UNK         0.0600 
    168 H168        2.6118  -14.3934  -38.6479 H         1 UNK         0.0600 
    169 H169        0.7117  -15.7409  -40.8126 H         1 UNK         0.3000 
    170 H170       -2.4995  -16.1697  -39.3661 H         1 UNK         0.0600 
    171 H171       -1.9712  -13.8785  -38.5064 H         1 UNK         0.0600 
    172 H172       -1.1763  -13.4820  -40.0257 H         1 UNK         0.0600 
    173 H173       -2.9100  -13.8037  -39.9890 H         1 UNK         0.0600 
    174 H174       -1.7164  -15.0470  -41.8556 H         1 UNK         0.3000 
    175 H175       -0.8140  -17.8462  -43.6402 H         1 UNK         0.0600 
    176 H176       -3.2000  -18.5560  -43.4895 H         1 UNK         0.0600 
    177 H177       -3.7253  -16.8876  -43.6604 H         1 UNK         0.0600 
    178 H178       -2.9023  -17.6976  -44.9913 H         1 UNK         0.0600 
    179 H179       -1.8960  -15.4612  -44.6518 H         1 UNK         0.3000 
    180 H180        0.4536  -13.1090  -43.8688 H         1 UNK         0.0600 
    181 H181        1.6266  -13.0338  -46.0044 H         1 UNK         0.0600 
    182 H182        1.0835  -14.6510  -46.4357 H         1 UNK         0.0600 
    183 H183        2.2288  -14.4223  -45.1197 H         1 UNK         0.0600 
    184 H184       -1.0007  -13.5678  -46.3372 H         1 UNK         0.3000 
    185 H185       -4.1415  -12.5340  -45.2114 H         1 UNK         0.0600 
    186 H186       -2.1902  -10.8333  -46.8552 H         1 UNK         0.0600 
    187 H187       -3.9494  -10.6987  -46.8651 H         1 UNK         0.0600 
    188 H188       -3.0456  -10.2944  -45.4151 H         1 UNK         0.0600 
    189 H189       -3.2099  -12.8923  -47.8497 H         1 UNK         0.3000 
    190 H190        0.4475  -20.9473  -45.8529 H         1 UNK         0.3000 
    191 H191       -1.8929  -21.3624  -47.3255 H         1 UNK         0.0600 
    192 H192       -2.9816  -20.3608  -45.3395 H         1 UNK         0.0600 
    193 H193       -1.4612  -19.5366  -45.6606 H         1 UNK         0.0600 
    194 H194       -1.5675  -20.7037  -44.3455 H         1 UNK         0.0600 
    195 H195       -0.4043  -23.4845  -44.9917 H         1 UNK         0.3000 
    196 H196       -2.5633  -25.1260  -44.2242 H         1 UNK         0.0600 
    197 H197        0.3893  -25.8482  -44.6231 H         1 UNK         0.0600 
    198 H198       -0.3046  -25.1497  -43.1594 H         1 UNK         0.0600 
    199 H199       -0.7730  -26.7632  -43.6727 H         1 UNK         0.0600 
    200 H200       -1.0416  -24.8593  -47.3485 H         1 UNK         0.3000 
    201 H201       -1.9270  -27.4233  -48.4055 H         1 UNK         0.0600 
    202 H202       -0.9521  -24.8673  -49.7731 H         1 UNK         0.0600 
    203 H203       -1.1758  -26.4229  -50.5639 H         1 UNK         0.0600 
    204 H204        0.0551  -26.2398  -49.3231 H         1 UNK         0.0600 
    205 H205       -3.6460  -24.6850  -47.4709 H         1 UNK         0.3000 
    206 H206       -5.7142  -24.0284  -47.6083 H         1 UNK         0.0600 
    207 H207       -6.3851  -26.4561  -47.6497 H         1 UNK         0.0600 
    208 H208       -7.5320  -25.4125  -48.4629 H         1 UNK         0.0600 
    209 H209       -6.4258  -26.4042  -49.4086 H         1 UNK         0.0600 
    210 H210       -7.3226  -24.4332  -50.2191 H         1 UNK         0.3000 
    211 H211       -7.9071  -23.3417  -52.0195 H         1 UNK         0.0600 
    212 H212       -6.2494  -22.5493  -53.6641 H         1 UNK         0.0600 
    213 H213       -5.7509  -24.1061  -53.0160 H         1 UNK         0.0600 
    214 H214       -4.9685  -22.6254  -52.4674 H         1 UNK         0.0600 
    215 H215       -5.6873  -21.4195  -50.0747 H         1 UNK         0.3000 
    216 H216       -5.6643  -19.3751  -49.2484 H         1 UNK         0.0600 
    217 H217       -7.7695  -18.2789  -48.6047 H         1 UNK         0.0600 
    218 H218       -8.6842  -19.2660  -49.7363 H         1 UNK         0.0600 
    219 H219       -7.9058  -20.0084  -48.3387 H         1 UNK         0.0600 
    220 H220       -5.0705  -19.6538  -52.0570 H         1 UNK         0.3000 
    221 H221       -5.1002  -16.8006  -52.7680 H         1 UNK         0.0600 
    222 H222       -7.0656  -17.6213  -54.0026 H         1 UNK         0.0600 
    223 H223       -6.1648  -19.0013  -54.6203 H         1 UNK         0.0600 
    224 H224       -5.7482  -17.3705  -55.1391 H         1 UNK         0.0600 
    225 H225       -2.9240  -16.6117  -52.4522 H         1 UNK         0.3000 
    226 H226       -0.9360  -18.5115  -53.0532 H         1 UNK         0.0600 
    227 H227       -0.7663  -15.4497  -52.9524 H         1 UNK         0.0600 
    228 H228       -0.5169  -16.5521  -51.6024 H         1 UNK         0.0600 
    229 H229        0.6200  -16.5346  -52.9342 H         1 UNK         0.0600 
    230 H230       -2.4720  -16.1256  -55.1557 H         1 UNK         0.3000 
    231 H231       -0.7158  -16.3332  -57.4008 H         1 UNK         0.0600 
    232 H232       -3.6568  -15.4795  -57.2187 H         1 UNK         0.0600 
    233 H233       -2.5951  -15.1936  -58.5924 H         1 UNK         0.0600 
    234 H234       -2.2573  -14.4175  -57.0539 H         1 UNK         0.0600 
    235 H235       -3.3032  -18.4303  -56.2508 H         1 UNK         0.3000 
    236 H236       -3.5917  -19.8517  -58.8188 H         1 UNK         0.0600 
    237 H237       -5.2281  -21.2135  -57.6055 H         1 UNK         0.0600 
    238 H238       -4.7971  -20.4756  -56.0725 H         1 UNK         0.0600 
    239 H239       -5.5826  -19.5152  -57.3260 H         1 UNK         0.0600 
    240 H240       -2.2114  -20.3296  -55.5376 H         1 UNK         0.3000 
    241 H241       -1.1567  -22.9389  -56.0606 H         1 UNK         0.0600 
    242 H242        1.8431  -20.3333  -57.1591 H         1 UNK         0.3800 
    243 H243        0.4294  -19.6672  -56.3767 H         1 UNK         0.3800 
    244 H244       -0.4172  -20.9384  -53.8759 H         1 UNK         0.0800 
    245 H245        0.1254  -22.6017  -53.9284 H         1 UNK         0.0800 
    246 H246       -0.8069  -23.5526  -51.7525 H         1 UNK         0.0800 
    247 H247       -2.3880  -23.2075  -51.1000 H         1 UNK         0.0800 
@<TRIPOS>BOND
     1    1    2 1    
     2    1  127 1    
     3    1  128 1    
     4    1  129 1    
     5    2    3 2    
     6    2    4 am   BACKBONE|DICT|INTERRES
     7    4    5 1    
     8    4  130 1    
     9    5    6 1    
    10    5   65 1    
    11    5  131 1    
    12    6    7 1    
    13    6  132 1    
    14    6  133 1    
    15    7    8 1    
    16    8    9 1    
    17    8  134 1    
    18    8  135 1    
    19    9   10 ar   
    20    9   14 ar   
    21   10   11 ar   
    22   10  136 1    
    23   11   12 ar   
    24   11  126 1    
    25   12   13 ar   
    26   12  137 1    
    27   13   14 ar   
    28   13   15 1    
    29   14  138 1    
    30   15   16 1    
    31   15  139 1    
    32   15  140 1    
    33   16   17 1    
    34   17   18 1    
    35   17  141 1    
    36   17  142 1    
    37   18   19 1    
    38   18   67 1    
    39   18  143 1    
    40   19   20 am   BACKBONE|DICT|INTERRES
    41   19  144 1    
    42   20   21 2    
    43   20   22 1    
    44   22   23 1    
    45   22   24 1    
    46   22  145 1    
    47   23  146 1    
    48   23  147 1    
    49   23  148 1    
    50   24   25 am   BACKBONE|DICT|INTERRES
    51   24  149 1    
    52   25   26 2    
    53   25   27 1    
    54   27   28 1    
    55   27   29 1    
    56   27  150 1    
    57   28  151 1    
    58   28  152 1    
    59   28  153 1    
    60   29   30 am   BACKBONE|DICT|INTERRES
    61   29  154 1    
    62   30   31 2    
    63   30   32 1    
    64   32   33 1    
    65   32   34 1    
    66   32  155 1    
    67   33  156 1    
    68   33  157 1    
    69   33  158 1    
    70   34   35 am   BACKBONE|DICT|INTERRES
    71   34  159 1    
    72   35   36 2    
    73   35   37 1    
    74   37   38 1    
    75   37   39 1    
    76   37  160 1    
    77   38  161 1    
    78   38  162 1    
    79   38  163 1    
    80   39   40 am   BACKBONE|DICT|INTERRES
    81   39  164 1    
    82   40   41 2    
    83   40   42 1    
    84   42   43 1    
    85   42   44 1    
    86   42  165 1    
    87   43  166 1    
    88   43  167 1    
    89   43  168 1    
    90   44   45 am   BACKBONE|DICT|INTERRES
    91   44  169 1    
    92   45   46 2    
    93   45   47 1    
    94   47   48 1    
    95   47   49 1    
    96   47  170 1    
    97   48  171 1    
    98   48  172 1    
    99   48  173 1    
   100   49   50 am   BACKBONE|DICT|INTERRES
   101   49  174 1    
   102   50   51 2    
   103   50   52 1    
   104   52   53 1    
   105   52   54 1    
   106   52  175 1    
   107   53  176 1    
   108   53  177 1    
   109   53  178 1    
   110   54   55 am   BACKBONE|DICT|INTERRES
   111   54  179 1    
   112   55   56 2    
   113   55   57 1    
   114   57   58 1    
   115   57   59 1    
   116   57  180 1    
   117   58  181 1    
   118   58  182 1    
   119   58  183 1    
   120   59   60 am   BACKBONE|DICT|INTERRES
   121   59  184 1    
   122   60   61 2    
   123   60   62 1    
   124   62   63 1    
   125   62   64 1    
   126   62  185 1    
   127   63  186 1    
   128   63  187 1    
   129   63  188 1    
   130   64   65 am   BACKBONE|DICT|INTERRES
   131   64  189 1    
   132   65   66 2    
   133   67   68 2    
   134   67   69 am   BACKBONE|DICT|INTERRES
   135   69   70 1    
   136   69  190 1    
   137   70   71 1    
   138   70   72 1    
   139   70  191 1    
   140   71  192 1    
   141   71  193 1    
   142   71  194 1    
   143   72   73 2    
   144   72   74 am   BACKBONE|DICT|INTERRES
   145   74   75 1    
   146   74  195 1    
   147   75   76 1    
   148   75   77 1    
   149   75  196 1    
   150   76  197 1    
   151   76  198 1    
   152   76  199 1    
   153   77   78 2    
   154   77   79 am   BACKBONE|DICT|INTERRES
   155   79   80 1    
   156   79  200 1    
   157   80   81 1    
   158   80   82 1    
   159   80  201 1    
   160   81  202 1    
   161   81  203 1    
   162   81  204 1    
   163   82   83 2    
   164   82   84 am   BACKBONE|DICT|INTERRES
   165   84   85 1    
   166   84  205 1    
   167   85   86 1    
   168   85   87 1    
   169   85  206 1    
   170   86  207 1    
   171   86  208 1    
   172   86  209 1    
   173   87   88 2    
   174   87   89 am   BACKBONE|DICT|INTERRES
   175   89   90 1    
   176   89  210 1    
   177   90   91 1    
   178   90   92 1    
   179   90  211 1    
   180   91  212 1    
   181   91  213 1    
   182   91  214 1    
   183   92   93 2    
   184   92   94 am   BACKBONE|DICT|INTERRES
   185   94   95 1    
   186   94  215 1    
   187   95   96 1    
   188   95   97 1    
   189   95  216 1    
   190   96  217 1    
   191   96  218 1    
   192   96  219 1    
   193   97   98 2    
   194   97   99 am   BACKBONE|DICT|INTERRES
   195   99  100 1    
   196   99  220 1    
   197  100  101 1    
   198  100  102 1    
   199  100  221 1    
   200  101  222 1    
   201  101  223 1    
   202  101  224 1    
   203  102  103 2    
   204  102  104 am   BACKBONE|DICT|INTERRES
   205  104  105 1    
   206  104  225 1    
   207  105  106 1    
   208  105  107 1    
   209  105  226 1    
   210  106  227 1    
   211  106  228 1    
   212  106  229 1    
   213  107  108 2    
   214  107  109 am   BACKBONE|DICT|INTERRES
   215  109  110 1    
   216  109  230 1    
   217  110  111 1    
   218  110  112 1    
   219  110  231 1    
   220  111  232 1    
   221  111  233 1    
   222  111  234 1    
   223  112  113 2    
   224  112  114 am   BACKBONE|DICT|INTERRES
   225  114  115 1    
   226  114  235 1    
   227  115  116 1    
   228  115  117 1    
   229  115  236 1    
   230  116  237 1    
   231  116  238 1    
   232  116  239 1    
   233  117  118 2    
   234  117  119 am   BACKBONE|DICT|INTERRES
   235  119  120 1    
   236  119  240 1    
   237  120  121 1    
   238  120  124 1    
   239  120  241 1    
   240  121  122 am   BACKBONE|DICT|INTERRES
   241  121  123 2    
   242  122  242 1    
   243  122  243 1    
   244  124  125 1    
   245  124  244 1    
   246  124  245 1    
   247  125  126 1    
   248  126  246 1    
   249  126  247 1    
@<TRIPOS>SUBSTRUCTURE
     1 UNK         1 GROUP             0       ****    0 ROOT    
