@<TRIPOS>MOLECULE
3R540
247   249    1
SMALL
USER_CHARGES


@<TRIPOS>ATOM
      1 CA         -0.9824   -9.9670  -46.9886 C.3       0 UNK        -0.1800 
      2 C          -0.5577  -11.3329  -47.5093 C.2       0 UNK         0.5000 
      3 O          -1.2039  -12.3274  -47.1874 O.2       0 UNK        -0.5000 
      4 N           0.5109  -11.3652  -48.3175 N.am      1 UNK        -0.5000 
      5 CA          1.1679  -12.5426  -48.9047 C.3       1 UNK         0.1400 
      6 C6          0.2227  -13.4967  -49.6871 C.3       23 UNK        -0.0398 
      7 S7         -0.5656  -12.7016  -51.1309 S.3       23 UNK        -0.2404 
      8 C8         -2.3278  -12.6650  -50.6620 C.3       23 UNK        -0.0205 
      9 C9         -2.8936  -14.0534  -50.3948 C.ar      23 UNK        -0.0193 
     10 C10        -3.0163  -14.9842  -51.4319 C.ar      23 UNK        -0.1150 
     11 C11        -3.5094  -16.2675  -51.1765 C.ar      23 UNK        -0.0193 
     12 C12        -3.8888  -16.6143  -49.8772 C.ar      23 UNK        -0.1150 
     13 C13        -3.7892  -15.6860  -48.8383 C.ar      23 UNK        -0.0193 
     14 C14        -3.2928  -14.4080  -49.1028 C.ar      23 UNK        -0.1150 
     15 C15        -4.2177  -16.0641  -47.4322 C.3       23 UNK        -0.0205 
     16 S16        -2.7817  -16.4978  -46.4074 S.3       23 UNK        -0.2404 
     17 C17        -3.5949  -17.4681  -45.1037 C.3       23 UNK        -0.0398 
     18 CA         -3.5576  -18.9743  -45.4541 C.3       11 UNK         0.1400 
     19 N          -2.2714  -19.5981  -45.1134 N.am      11 UNK        -0.5000 
     20 C          -1.9299  -20.8640  -45.3930 C.2       10 UNK         0.5000 
     21 O          -2.6227  -21.6050  -46.0902 O.2       10 UNK        -0.5000 
     22 CA         -0.6469  -21.4268  -44.7515 C.3       10 UNK         0.1400 
     23 CB          0.4899  -21.4984  -45.7809 C.3       10 UNK        -0.1800 
     24 N          -0.1823  -20.7051  -43.5628 N.am      10 UNK        -0.5000 
     25 C          -0.8836  -20.5022  -42.4380 C.2       9 UNK         0.5000 
     26 O          -2.0548  -20.8576  -42.2912 O.2       9 UNK        -0.5000 
     27 CA         -0.1320  -19.7861  -41.2975 C.3       9 UNK         0.1400 
     28 CB         -0.9664  -19.6686  -40.0058 C.3       9 UNK        -0.1800 
     29 N           1.1709  -20.3978  -41.0128 N.am      9 UNK        -0.5000 
     30 C           1.4163  -21.6789  -40.6840 C.2       8 UNK         0.5000 
     31 O           0.5453  -22.5418  -40.5701 O.2       8 UNK        -0.5000 
     32 CA          2.8874  -22.0779  -40.4434 C.3       8 UNK         0.1400 
     33 CB          3.4622  -22.7635  -41.6932 C.3       8 UNK        -0.1800 
     34 N           3.7481  -20.9493  -40.0905 N.am      8 UNK        -0.5000 
     35 C           3.6798  -20.2511  -38.9483 C.2       7 UNK         0.5000 
     36 O           2.9482  -20.5533  -38.0050 O.2       7 UNK        -0.5000 
     37 CA          4.5587  -18.9867  -38.8538 C.3       7 UNK         0.1400 
     38 CB          5.8060  -19.2621  -37.9997 C.3       7 UNK        -0.1800 
     39 N           4.9817  -18.4473  -40.1524 N.am      7 UNK        -0.5000 
     40 C           4.1618  -17.9631  -41.0953 C.2       6 UNK         0.5000 
     41 O           2.9319  -17.9697  -41.0061 O.2       6 UNK        -0.5000 
     42 CA          4.8325  -17.4528  -42.3824 C.3       6 UNK         0.1400 
     43 CB          4.7440  -18.5241  -43.4811 C.3       6 UNK        -0.1800 
     44 N           4.2259  -16.2161  -42.8707 N.am      6 UNK        -0.5000 
     45 C           4.2277  -15.0441  -42.2206 C.2       5 UNK         0.5000 
     46 O           4.7947  -14.8588  -41.1426 O.2       5 UNK        -0.5000 
     47 CA          3.4801  -13.8757  -42.8899 C.3       5 UNK         0.1400 
     48 CB          4.4064  -13.1303  -43.8623 C.3       5 UNK        -0.1800 
     49 N           2.2737  -14.2981  -43.6021 N.am      5 UNK        -0.5000 
     50 C           1.1455  -14.7150  -43.0085 C.2       4 UNK         0.5000 
     51 O           0.9972  -14.7816  -41.7881 O.2       4 UNK        -0.5000 
     52 CA         -0.0193  -15.1060  -43.9324 C.3       4 UNK         0.1400 
     53 CB         -0.8636  -13.8676  -44.2653 C.3       4 UNK        -0.1800 
     54 N           0.4675  -15.7146  -45.1702 N.am      4 UNK        -0.5000 
     55 C           0.6549  -17.0323  -45.3304 C.2       3 UNK         0.5000 
     56 O           0.3422  -17.8726  -44.4861 O.2       3 UNK        -0.5000 
     57 CA          1.3048  -17.5069  -46.6468 C.3       3 UNK         0.1400 
     58 CB          0.2409  -17.9845  -47.6468 C.3       3 UNK        -0.1800 
     59 N           2.1418  -16.5006  -47.2994 N.am      3 UNK        -0.5000 
     60 C           3.2715  -15.9888  -46.7932 C.2       2 UNK         0.5000 
     61 O           3.7507  -16.3270  -45.7129 O.2       2 UNK        -0.5000 
     62 CA          3.9506  -14.8718  -47.6074 C.3       2 UNK         0.1400 
     63 CB          5.0099  -15.4638  -48.5485 C.3       2 UNK        -0.1800 
     64 N           3.0143  -14.0545  -48.3861 N.am      2 UNK        -0.5000 
     65 C           2.0121  -13.3251  -47.8734 C.2       1 UNK         0.5000 
     66 O           1.7561  -13.2881  -46.6662 O.2       1 UNK        -0.5000 
     67 C          -4.7820  -19.7088  -44.8627 C.2       11 UNK         0.5000 
     68 O          -5.8562  -19.6321  -45.4596 O.2       11 UNK        -0.5000 
     69 N          -4.6056  -20.4702  -43.7707 N.am      12 UNK        -0.5000 
     70 CA         -5.6214  -21.3794  -43.2262 C.3       12 UNK         0.1400 
     71 CB         -5.1369  -21.9266  -41.8754 C.3       12 UNK        -0.1800 
     72 C          -5.9814  -22.5413  -44.1799 C.2       12 UNK         0.5000 
     73 O          -7.0733  -23.0989  -44.0676 O.2       12 UNK        -0.5000 
     74 N          -5.0730  -22.8628  -45.1104 N.am      13 UNK        -0.5000 
     75 CA         -5.2404  -23.8381  -46.1854 C.3       13 UNK         0.1400 
     76 CB         -4.0947  -24.8628  -46.0917 C.3       13 UNK        -0.1800 
     77 C          -5.2658  -23.1436  -47.5640 C.2       13 UNK         0.5000 
     78 O          -4.9754  -23.7928  -48.5682 O.2       13 UNK        -0.5000 
     79 N          -5.5697  -21.8346  -47.5967 N.am      14 UNK        -0.5000 
     80 CA         -5.6265  -20.9643  -48.7806 C.3       14 UNK         0.1400 
     81 CB         -6.8163  -21.3527  -49.6828 C.3       14 UNK        -0.1800 
     82 C          -4.2913  -20.8811  -49.5542 C.2       14 UNK         0.5000 
     83 O          -4.2961  -20.7975  -50.7812 O.2       14 UNK        -0.5000 
     84 N          -3.1768  -20.9098  -48.8096 N.am      15 UNK        -0.5000 
     85 CA         -1.7847  -20.9571  -49.2699 C.3       15 UNK         0.1400 
     86 CB         -1.4481  -19.8317  -50.2681 C.3       15 UNK        -0.1800 
     87 C          -1.3433  -22.3588  -49.7402 C.2       15 UNK         0.5000 
     88 O          -0.3307  -22.4780  -50.4324 O.2       15 UNK        -0.5000 
     89 N          -2.0745  -23.3983  -49.3083 N.am      16 UNK        -0.5000 
     90 CA         -1.7747  -24.8253  -49.4445 C.3       16 UNK         0.1400 
     91 CB         -0.5860  -25.2051  -48.5339 C.3       16 UNK        -0.1800 
     92 C          -1.5978  -25.2445  -50.9159 C.2       16 UNK         0.5000 
     93 O          -2.5855  -25.3022  -51.6465 O.2       16 UNK        -0.5000 
     94 N          -0.3543  -25.5017  -51.3427 N.am      17 UNK        -0.5000 
     95 CA          0.0025  -25.8606  -52.7177 C.3       17 UNK         0.1400 
     96 CB          1.4966  -26.2135  -52.7700 C.3       17 UNK        -0.1800 
     97 C          -0.3304  -24.7672  -53.7537 C.2       17 UNK         0.5000 
     98 O          -0.5760  -25.0924  -54.9158 O.2       17 UNK        -0.5000 
     99 N          -0.3585  -23.5000  -53.3177 N.am      18 UNK        -0.5000 
    100 CA        -0.7088  -22.3494  -54.1488 C.3       18 UNK         0.1400 
    101 CB         0.0427  -21.1107  -53.6388 C.3       18 UNK        -0.1800 
    102 C         -2.2264  -22.0914  -54.2313 C.2       18 UNK         0.5000 
    103 O         -2.6290  -21.1935  -54.9717 O.2       18 UNK        -0.5000 
    104 N         -3.0586  -22.8722  -53.5213 N.am      19 UNK        -0.5000 
    105 CA        -4.5213  -22.7288  -53.5130 C.3       19 UNK         0.1400 
    106 CB        -5.1423  -23.6964  -52.4965 C.3       19 UNK        -0.1800 
    107 C         -5.1747  -22.9116  -54.8964 C.2       19 UNK         0.5000 
    108 O         -6.1999  -22.2866  -55.1701 O.2       19 UNK        -0.5000 
    109 N         -4.5430  -23.7196  -55.7597 N.am      20 UNK        -0.5000 
    110 CA        -4.9321  -23.9231  -57.1560 C.3       20 UNK         0.1400 
    111 CB        -4.1106  -25.0831  -57.7386 C.3       20 UNK        -0.1800 
    112 C         -4.7743  -22.6586  -58.0254 C.2       20 UNK         0.5000 
    113 O         -5.5403  -22.4814  -58.9733 O.2       20 UNK        -0.5000 
    114 N         -3.8005  -21.8023  -57.6852 N.am      21 UNK        -0.5000 
    115 CA        -3.5970  -20.4946  -58.3086 C.3       21 UNK         0.1400 
    116 CB        -2.1054  -20.1277  -58.2522 C.3       21 UNK        -0.1800 
    117 C         -4.4527  -19.4136  -57.6245 C.2       21 UNK         0.5000 
    118 O         -4.9612  -18.5230  -58.3065 O.2       21 UNK        -0.5000 
    119 N         -4.5956  -19.5159  -56.2959 N.am      22 UNK        -0.5000 
    120 CA        -5.4234  -18.6383  -55.4552 C.3       22 UNK         0.1400 
    121 C         -6.9400  -18.6906  -55.7975 C.2       22 UNK         0.5000 
    122 N         -7.5143  -19.8712  -55.9951 N.am      22 UNK        -0.7600 
    123 O         -7.5955  -17.6568  -55.8957 O.2       22 UNK        -0.5000 
    124 C124       -5.1810  -18.9184  -53.9485 C.3       23 UNK        -0.0398 
    125 S125       -5.3227  -17.4254  -52.9113 S.3       23 UNK        -0.2404 
    126 C126       -3.6186  -17.2932  -52.2912 C.3       23 UNK        -0.0205 
    127 H127       -0.9528   -9.9573  -45.8990 H         1 UNK         0.0600 
    128 H128       -2.0018   -9.7463  -47.3051 H         1 UNK         0.0600 
    129 H129       -0.3327   -9.1714  -47.3540 H         1 UNK         0.0600 
    130 H130        0.9778  -10.4917  -48.5156 H         1 UNK         0.3000 
    131 H131        1.8795  -12.1311  -49.6225 H         1 UNK         0.0600 
    132 H132        0.7819  -14.3464  -50.0818 H         1 UNK         0.0800 
    133 H133       -0.5267  -13.9323  -49.0274 H         1 UNK         0.0800 
    134 H134       -2.4505  -12.0215  -49.7898 H         1 UNK         0.0800 
    135 H135       -2.8969  -12.1984  -51.4670 H         1 UNK         0.0800 
    136 H136       -2.7130  -14.7120  -52.4332 H         1 UNK         0.1150 
    137 H137       -4.2653  -17.6082  -49.6791 H         1 UNK         0.1150 
    138 H138       -3.2028  -13.6954  -48.2947 H         1 UNK         0.1150 
    139 H139       -4.7565  -15.2359  -46.9694 H         1 UNK         0.0800 
    140 H140       -4.9134  -16.9041  -47.4703 H         1 UNK         0.0800 
    141 H141       -4.6149  -17.0946  -44.9900 H         1 UNK         0.0800 
    142 H142       -3.0991  -17.2755  -44.1510 H         1 UNK         0.0800 
    143 H143       -3.6704  -19.0755  -46.5357 H         1 UNK         0.0600 
    144 H144       -1.6204  -19.0394  -44.5756 H         1 UNK         0.3000 
    145 H145       -0.8790  -22.4456  -44.4352 H         1 UNK         0.0600 
    146 H146        1.3642  -22.0011  -45.3669 H         1 UNK         0.0600 
    147 H147        0.1850  -22.0602  -46.6651 H         1 UNK         0.0600 
    148 H148        0.7988  -20.5069  -46.1089 H         1 UNK         0.0600 
    149 H149        0.7518  -20.3247  -43.6082 H         1 UNK         0.3000 
    150 H150        0.0727  -18.7743  -41.6517 H         1 UNK         0.0600 
    151 H151       -1.8931  -19.1232  -40.1879 H         1 UNK         0.0600 
    152 H152       -0.4189  -19.1297  -39.2325 H         1 UNK         0.0600 
    153 H153       -1.2354  -20.6469  -39.6062 H         1 UNK         0.0600 
    154 H154        1.9547  -19.7542  -41.0524 H         1 UNK         0.3000 
    155 H155        2.9058  -22.7926  -39.6180 H         1 UNK         0.0600 
    156 H156        3.4822  -22.0883  -42.5498 H         1 UNK         0.0600 
    157 H157        2.8631  -23.6309  -41.9736 H         1 UNK         0.0600 
    158 H158        4.4789  -23.1160  -41.5182 H         1 UNK         0.0600 
    159 H159        4.3944  -20.6345  -40.7982 H         1 UNK         0.3000 
    160 H160        3.9645  -18.2186  -38.3545 H         1 UNK         0.0600 
    161 H161        6.4542  -20.0070  -38.4631 H         1 UNK         0.0600 
    162 H162        5.5300  -19.6358  -37.0127 H         1 UNK         0.0600 
    163 H163        6.3901  -18.3541  -37.8488 H         1 UNK         0.0600 
    164 H164        5.9782  -18.4206  -40.3154 H         1 UNK         0.3000 
    165 H165        5.8857  -17.2499  -42.1782 H         1 UNK         0.0600 
    166 H166        5.2850  -18.2154  -44.3758 H         1 UNK         0.0600 
    167 H167        5.1799  -19.4674  -43.1498 H         1 UNK         0.0600 
    168 H168        3.7096  -18.7204  -43.7679 H         1 UNK         0.0600 
    169 H169        3.7855  -16.2629  -43.7847 H         1 UNK         0.3000 
    170 H170        3.1810  -13.1775  -42.1054 H         1 UNK         0.0600 
    171 H171        4.7929  -13.7943  -44.6350 H         1 UNK         0.0600 
    172 H172        3.8884  -12.3058  -44.3528 H         1 UNK         0.0600 
    173 H173        5.2641  -12.7102  -43.3355 H         1 UNK         0.0600 
    174 H174        2.2961  -14.2419  -44.6113 H         1 UNK         0.3000 
    175 H175       -0.6578  -15.8122  -43.3971 H         1 UNK         0.0600 
    176 H176       -0.2674  -13.0937  -44.7498 H         1 UNK         0.0600 
    177 H177       -1.6905  -14.1155  -44.9301 H         1 UNK         0.0600 
    178 H178       -1.2915  -13.4329  -43.3614 H         1 UNK         0.0600 
    179 H179        0.7429  -15.0782  -45.9078 H         1 UNK         0.3000 
    180 H180        1.9433  -18.3560  -46.3953 H         1 UNK         0.0600 
    181 H181        0.7005  -18.5014  -48.4888 H         1 UNK         0.0600 
    182 H182       -0.3420  -17.1524  -48.0432 H         1 UNK         0.0600 
    183 H183       -0.4595  -18.6784  -47.1823 H         1 UNK         0.0600 
    184 H184        1.8236  -16.1594  -48.1935 H         1 UNK         0.3000 
    185 H185        4.4556  -14.2100  -46.9025 H         1 UNK         0.0600 
    186 H186        5.5631  -14.6789  -49.0646 H         1 UNK         0.0600 
    187 H187        5.7362  -16.0591  -47.9933 H         1 UNK         0.0600 
    188 H188        4.5621  -16.1122  -49.3027 H         1 UNK         0.0600 
    189 H189        3.1744  -14.0323  -49.3832 H         1 UNK         0.3000 
    190 H190       -3.6912  -20.5054  -43.3270 H         1 UNK         0.3000 
    191 H191       -6.5317  -20.8015  -43.0541 H         1 UNK         0.0600 
    192 H192       -5.8979  -22.5559  -41.4124 H         1 UNK         0.0600 
    193 H193       -4.9139  -21.1187  -41.1782 H         1 UNK         0.0600 
    194 H194       -4.2354  -22.5303  -41.9875 H         1 UNK         0.0600 
    195 H195       -4.2061  -22.3370  -45.1476 H         1 UNK         0.3000 
    196 H196       -6.1876  -24.3698  -46.0788 H         1 UNK         0.0600 
    197 H197       -3.1232  -24.3952  -46.2576 H         1 UNK         0.0600 
    198 H198       -4.0730  -25.3395  -45.1117 H         1 UNK         0.0600 
    199 H199       -4.2104  -25.6550  -46.8323 H         1 UNK         0.0600 
    200 H200       -5.7884  -21.3777  -46.7193 H         1 UNK         0.3000 
    201 H201       -5.8157  -19.9569  -48.4069 H         1 UNK         0.0600 
    202 H202       -6.9406  -20.6385  -50.4979 H         1 UNK         0.0600 
    203 H203       -7.7495  -21.3661  -49.1199 H         1 UNK         0.0600 
    204 H204       -6.6801  -22.3375  -50.1301 H         1 UNK         0.0600 
    205 H205       -3.2805  -21.0444  -47.8083 H         1 UNK         0.3000 
    206 H206       -1.1877  -20.7622  -48.3795 H         1 UNK         0.0600 
    207 H207       -1.7902  -18.8634  -49.9031 H         1 UNK         0.0600 
    208 H208       -0.3712  -19.7571  -50.4202 H         1 UNK         0.0600 
    209 H209       -1.9000  -20.0085  -51.2432 H         1 UNK         0.0600 
    210 H210       -2.9509  -23.1971  -48.8428 H         1 UNK         0.3000 
    211 H211       -2.6521  -25.3614  -49.0798 H         1 UNK         0.0600 
    212 H212       -0.3653  -26.2713  -48.5988 H         1 UNK         0.0600 
    213 H213       -0.8154  -24.9893  -47.4902 H         1 UNK         0.0600 
    214 H214        0.3233  -24.6590  -48.7870 H         1 UNK         0.0600 
    215 H215        0.4080  -25.3975  -50.6891 H         1 UNK         0.3000 
    216 H216       -0.5695  -26.7505  -52.9879 H         1 UNK         0.0600 
    217 H217        2.1199  -25.3657  -52.4824 H         1 UNK         0.0600 
    218 H218        1.7927  -26.5123  -53.7765 H         1 UNK         0.0600 
    219 H219        1.7300  -27.0445  -52.1041 H         1 UNK         0.0600 
    220 H220       -0.1805  -23.3107  -52.3360 H         1 UNK         0.3000 
    221 H221       -0.3710  -22.5325  -55.1709 H         1 UNK         0.0600 
    222 H222        1.1214  -21.2589  -53.6891 H         1 UNK         0.0600 
    223 H223       -0.2123  -20.8829  -52.6064 H         1 UNK         0.0600 
    224 H224       -0.1913  -20.2300  -54.2384 H         1 UNK         0.0600 
    225 H225       -2.6765  -23.6088  -52.9394 H         1 UNK         0.3000 
    226 H226       -4.7436  -21.7142  -53.1846 H         1 UNK         0.0600 
    227 H227       -4.9685  -24.7369  -52.7725 H         1 UNK         0.0600 
    228 H228       -4.7319  -23.5381  -51.4987 H         1 UNK         0.0600 
    229 H229       -6.2209  -23.5505  -52.4283 H         1 UNK         0.0600 
    230 H230       -3.7065  -24.1911  -55.4469 H         1 UNK         0.3000 
    231 H231       -5.9866  -24.2063  -57.1738 H         1 UNK         0.0600 
    232 H232       -3.0412  -24.8686  -57.7192 H         1 UNK         0.0600 
    233 H233       -4.3885  -25.2768  -58.7755 H         1 UNK         0.0600 
    234 H234       -4.2785  -26.0047  -57.1808 H         1 UNK         0.0600 
    235 H235       -3.2455  -21.9962  -56.8619 H         1 UNK         0.3000 
    236 H236       -3.8897  -20.5416  -59.3597 H         1 UNK         0.0600 
    237 H237       -1.7442  -20.0430  -57.2269 H         1 UNK         0.0600 
    238 H238       -1.4968  -20.8754  -58.7609 H         1 UNK         0.0600 
    239 H239       -1.9224  -19.1709  -58.7428 H         1 UNK         0.0600 
    240 H240       -4.0774  -20.2436  -55.8151 H         1 UNK         0.3000 
    241 H241       -5.0833  -17.6234  -55.6708 H         1 UNK         0.0600 
    242 H242       -8.4939  -19.9135  -56.2257 H         1 UNK         0.3800 
    243 H243       -6.9959  -20.7344  -55.8486 H         1 UNK         0.3800 
    244 H244       -4.1859  -19.3389  -53.8004 H         1 UNK         0.0800 
    245 H245       -5.8682  -19.6744  -53.5646 H         1 UNK         0.0800 
    246 H246       -3.2996  -18.2638  -51.9120 H         1 UNK         0.0800 
    247 H247       -2.9478  -17.0438  -53.1149 H         1 UNK         0.0800 
@<TRIPOS>BOND
     1    1    2 1    
     2    1  127 1    
     3    1  128 1    
     4    1  129 1    
     5    2    3 2    
     6    2    4 am   BACKBONE|DICT|INTERRES
     7    4    5 1    
     8    4  130 1    
     9    5    6 1    
    10    5   65 1    
    11    5  131 1    
    12    6    7 1    
    13    6  132 1    
    14    6  133 1    
    15    7    8 1    
    16    8    9 1    
    17    8  134 1    
    18    8  135 1    
    19    9   10 ar   
    20    9   14 ar   
    21   10   11 ar   
    22   10  136 1    
    23   11   12 ar   
    24   11  126 1    
    25   12   13 ar   
    26   12  137 1    
    27   13   14 ar   
    28   13   15 1    
    29   14  138 1    
    30   15   16 1    
    31   15  139 1    
    32   15  140 1    
    33   16   17 1    
    34   17   18 1    
    35   17  141 1    
    36   17  142 1    
    37   18   19 1    
    38   18   67 1    
    39   18  143 1    
    40   19   20 am   BACKBONE|DICT|INTERRES
    41   19  144 1    
    42   20   21 2    
    43   20   22 1    
    44   22   23 1    
    45   22   24 1    
    46   22  145 1    
    47   23  146 1    
    48   23  147 1    
    49   23  148 1    
    50   24   25 am   BACKBONE|DICT|INTERRES
    51   24  149 1    
    52   25   26 2    
    53   25   27 1    
    54   27   28 1    
    55   27   29 1    
    56   27  150 1    
    57   28  151 1    
    58   28  152 1    
    59   28  153 1    
    60   29   30 am   BACKBONE|DICT|INTERRES
    61   29  154 1    
    62   30   31 2    
    63   30   32 1    
    64   32   33 1    
    65   32   34 1    
    66   32  155 1    
    67   33  156 1    
    68   33  157 1    
    69   33  158 1    
    70   34   35 am   BACKBONE|DICT|INTERRES
    71   34  159 1    
    72   35   36 2    
    73   35   37 1    
    74   37   38 1    
    75   37   39 1    
    76   37  160 1    
    77   38  161 1    
    78   38  162 1    
    79   38  163 1    
    80   39   40 am   BACKBONE|DICT|INTERRES
    81   39  164 1    
    82   40   41 2    
    83   40   42 1    
    84   42   43 1    
    85   42   44 1    
    86   42  165 1    
    87   43  166 1    
    88   43  167 1    
    89   43  168 1    
    90   44   45 am   BACKBONE|DICT|INTERRES
    91   44  169 1    
    92   45   46 2    
    93   45   47 1    
    94   47   48 1    
    95   47   49 1    
    96   47  170 1    
    97   48  171 1    
    98   48  172 1    
    99   48  173 1    
   100   49   50 am   BACKBONE|DICT|INTERRES
   101   49  174 1    
   102   50   51 2    
   103   50   52 1    
   104   52   53 1    
   105   52   54 1    
   106   52  175 1    
   107   53  176 1    
   108   53  177 1    
   109   53  178 1    
   110   54   55 am   BACKBONE|DICT|INTERRES
   111   54  179 1    
   112   55   56 2    
   113   55   57 1    
   114   57   58 1    
   115   57   59 1    
   116   57  180 1    
   117   58  181 1    
   118   58  182 1    
   119   58  183 1    
   120   59   60 am   BACKBONE|DICT|INTERRES
   121   59  184 1    
   122   60   61 2    
   123   60   62 1    
   124   62   63 1    
   125   62   64 1    
   126   62  185 1    
   127   63  186 1    
   128   63  187 1    
   129   63  188 1    
   130   64   65 am   BACKBONE|DICT|INTERRES
   131   64  189 1    
   132   65   66 2    
   133   67   68 2    
   134   67   69 am   BACKBONE|DICT|INTERRES
   135   69   70 1    
   136   69  190 1    
   137   70   71 1    
   138   70   72 1    
   139   70  191 1    
   140   71  192 1    
   141   71  193 1    
   142   71  194 1    
   143   72   73 2    
   144   72   74 am   BACKBONE|DICT|INTERRES
   145   74   75 1    
   146   74  195 1    
   147   75   76 1    
   148   75   77 1    
   149   75  196 1    
   150   76  197 1    
   151   76  198 1    
   152   76  199 1    
   153   77   78 2    
   154   77   79 am   BACKBONE|DICT|INTERRES
   155   79   80 1    
   156   79  200 1    
   157   80   81 1    
   158   80   82 1    
   159   80  201 1    
   160   81  202 1    
   161   81  203 1    
   162   81  204 1    
   163   82   83 2    
   164   82   84 am   BACKBONE|DICT|INTERRES
   165   84   85 1    
   166   84  205 1    
   167   85   86 1    
   168   85   87 1    
   169   85  206 1    
   170   86  207 1    
   171   86  208 1    
   172   86  209 1    
   173   87   88 2    
   174   87   89 am   BACKBONE|DICT|INTERRES
   175   89   90 1    
   176   89  210 1    
   177   90   91 1    
   178   90   92 1    
   179   90  211 1    
   180   91  212 1    
   181   91  213 1    
   182   91  214 1    
   183   92   93 2    
   184   92   94 am   BACKBONE|DICT|INTERRES
   185   94   95 1    
   186   94  215 1    
   187   95   96 1    
   188   95   97 1    
   189   95  216 1    
   190   96  217 1    
   191   96  218 1    
   192   96  219 1    
   193   97   98 2    
   194   97   99 am   BACKBONE|DICT|INTERRES
   195   99  100 1    
   196   99  220 1    
   197  100  101 1    
   198  100  102 1    
   199  100  221 1    
   200  101  222 1    
   201  101  223 1    
   202  101  224 1    
   203  102  103 2    
   204  102  104 am   BACKBONE|DICT|INTERRES
   205  104  105 1    
   206  104  225 1    
   207  105  106 1    
   208  105  107 1    
   209  105  226 1    
   210  106  227 1    
   211  106  228 1    
   212  106  229 1    
   213  107  108 2    
   214  107  109 am   BACKBONE|DICT|INTERRES
   215  109  110 1    
   216  109  230 1    
   217  110  111 1    
   218  110  112 1    
   219  110  231 1    
   220  111  232 1    
   221  111  233 1    
   222  111  234 1    
   223  112  113 2    
   224  112  114 am   BACKBONE|DICT|INTERRES
   225  114  115 1    
   226  114  235 1    
   227  115  116 1    
   228  115  117 1    
   229  115  236 1    
   230  116  237 1    
   231  116  238 1    
   232  116  239 1    
   233  117  118 2    
   234  117  119 am   BACKBONE|DICT|INTERRES
   235  119  120 1    
   236  119  240 1    
   237  120  121 1    
   238  120  124 1    
   239  120  241 1    
   240  121  122 am   BACKBONE|DICT|INTERRES
   241  121  123 2    
   242  122  242 1    
   243  122  243 1    
   244  124  125 1    
   245  124  244 1    
   246  124  245 1    
   247  125  126 1    
   248  126  246 1    
   249  126  247 1    
@<TRIPOS>SUBSTRUCTURE
     1 UNK         1 GROUP             0       ****    0 ROOT    
