@<TRIPOS>MOLECULE
3R540
247   249    1
SMALL
USER_CHARGES


@<TRIPOS>ATOM
      1 CA         -0.5580   -8.4561  -43.1482 C.3       0 UNK        -0.1800 
      2 C          -0.5227   -9.0559  -44.5470 C.2       0 UNK         0.5000 
      3 O           0.0003   -8.4305  -45.4696 O.2       0 UNK        -0.5000 
      4 N          -1.0822  -10.2624  -44.7047 N.am      1 UNK        -0.5000 
      5 CA         -1.0765  -11.0472  -45.9434 C.3       1 UNK         0.1400 
      6 C6         -2.0168  -12.2666  -45.8099 C.3       23 UNK        -0.0398 
      7 S7         -2.4240  -13.0731  -47.3972 S.3       23 UNK        -0.2404 
      8 C8         -1.9532  -14.7813  -47.0005 C.3       23 UNK        -0.0205 
      9 C9         -2.3420  -15.7635  -48.0931 C.ar      23 UNK        -0.0193 
     10 C10        -1.3839  -16.2386  -48.9916 C.ar      23 UNK        -0.1150 
     11 C11        -1.7109  -17.2030  -49.9499 C.ar      23 UNK        -0.0193 
     12 C12        -3.0322  -17.6719  -50.0132 C.ar      23 UNK        -0.1150 
     13 C13        -4.0064  -17.1933  -49.1297 C.ar      23 UNK        -0.0193 
     14 C14        -3.6511  -16.2444  -48.1677 C.ar      23 UNK        -0.1150 
     15 C15        -5.4543  -17.6586  -49.2386 C.3       23 UNK        -0.0205 
     16 S16        -5.6545  -19.4667  -49.1421 S.3       23 UNK        -0.2404 
     17 C17        -5.3335  -19.8167  -47.3786 C.3       23 UNK        -0.0398 
     18 CA         -4.6446  -21.1915  -47.2139 C.3       11 UNK         0.1400 
     19 N          -3.3324  -21.2167  -47.8628 N.am      11 UNK        -0.5000 
     20 C          -2.6091  -22.3131  -48.1167 C.2       10 UNK         0.5000 
     21 O          -2.9871  -23.4550  -47.8593 O.2       10 UNK        -0.5000 
     22 CA         -1.2054  -22.0806  -48.7030 C.3       10 UNK         0.1400 
     23 CB         -1.2861  -22.0511  -50.2333 C.3       10 UNK        -0.1800 
     24 N          -0.5940  -20.8367  -48.2226 N.am      10 UNK        -0.5000 
     25 C          -0.3301  -20.5742  -46.9355 C.2       9 UNK         0.5000 
     26 O          -0.5196  -21.3768  -46.0208 O.2       9 UNK        -0.5000 
     27 CA          0.0846  -19.1385  -46.5957 C.3       9 UNK         0.1400 
     28 CB         -1.1687  -18.3514  -46.1925 C.3       9 UNK        -0.1800 
     29 N           1.0496  -19.0815  -45.4991 N.am      9 UNK        -0.5000 
     30 C           2.3089  -19.5365  -45.5619 C.2       8 UNK         0.5000 
     31 O           2.7940  -20.0407  -46.5759 O.2       8 UNK        -0.5000 
     32 CA          3.1860  -19.3810  -44.3037 C.3       8 UNK         0.1400 
     33 CB          4.5608  -18.7816  -44.6497 C.3       8 UNK        -0.1800 
     34 N           2.5510  -18.5319  -43.2936 N.am      8 UNK        -0.5000 
     35 C           2.1220  -18.9487  -42.0950 C.2       7 UNK         0.5000 
     36 O           2.2135  -20.1122  -41.7018 O.2       7 UNK        -0.5000 
     37 CA          1.4793  -17.8955  -41.1705 C.3       7 UNK         0.1400 
     38 CB          2.5093  -17.3796  -40.1553 C.3       7 UNK        -0.1800 
     39 N           0.8858  -16.7649  -41.8921 N.am      7 UNK        -0.5000 
     40 C          -0.2328  -16.8607  -42.6262 C.2       6 UNK         0.5000 
     41 O          -0.8468  -17.9184  -42.7650 O.2       6 UNK        -0.5000 
     42 CA         -0.7453  -15.6107  -43.3698 C.3       6 UNK         0.1400 
     43 CB         -2.2585  -15.3943  -43.1556 C.3       6 UNK        -0.1800 
     44 N           0.0306  -14.3904  -43.1348 N.am      6 UNK        -0.5000 
     45 C           0.0412  -13.5889  -42.0609 C.2       5 UNK         0.5000 
     46 O          -0.6719  -13.7431  -41.0692 O.2       5 UNK        -0.5000 
     47 CA          1.0552  -12.4251  -42.1282 C.3       5 UNK         0.1400 
     48 CB          1.3146  -11.7600  -40.7605 C.3       5 UNK        -0.1800 
     49 N           2.3152  -12.8208  -42.7751 N.am      5 UNK        -0.5000 
     50 C           3.1523  -13.7830  -42.3562 C.2       4 UNK         0.5000 
     51 O           2.9728  -14.4363  -41.3290 O.2       4 UNK        -0.5000 
     52 CA          4.3542  -14.0967  -43.2712 C.3       4 UNK         0.1400 
     53 CB          5.1456  -15.3409  -42.8131 C.3       4 UNK        -0.1800 
     54 N           3.9779  -14.2255  -44.6845 N.am      4 UNK        -0.5000 
     55 C           3.1166  -15.1059  -45.2154 C.2       3 UNK         0.5000 
     56 O           2.4465  -15.9040  -44.5567 O.2       3 UNK        -0.5000 
     57 CA          2.9473  -15.0220  -46.7379 C.3       3 UNK         0.1400 
     58 CB          2.0523  -16.1300  -47.3191 C.3       3 UNK        -0.1800 
     59 N           2.4112  -13.7040  -47.0492 N.am      3 UNK        -0.5000 
     60 C           2.5193  -13.0549  -48.2092 C.2       2 UNK         0.5000 
     61 O           3.0255  -13.5508  -49.2173 O.2       2 UNK        -0.5000 
     62 CA          1.9967  -11.5990  -48.2307 C.3       2 UNK         0.1400 
     63 CB          1.9695  -11.0044  -49.6507 C.3       2 UNK        -0.1800 
     64 N           0.6732  -11.4088  -47.6257 N.am      2 UNK        -0.5000 
     65 C           0.3630  -11.4620  -46.3237 C.2       1 UNK         0.5000 
     66 O           1.1488  -11.8271  -45.4425 O.2       1 UNK        -0.5000 
     67 C          -4.6070  -21.6513  -45.7386 C.2       11 UNK         0.5000 
     68 O          -5.6483  -22.0490  -45.2158 O.2       11 UNK        -0.5000 
     69 N          -3.4241  -21.6246  -45.1082 N.am      12 UNK        -0.5000 
     70 CA         -3.1894  -22.1251  -43.7570 C.3       12 UNK         0.1400 
     71 CB         -2.3737  -21.0858  -42.9681 C.3       12 UNK        -0.1800 
     72 C          -2.4622  -23.4798  -43.7972 C.2       12 UNK         0.5000 
     73 O          -2.9472  -24.4503  -43.2157 O.2       12 UNK        -0.5000 
     74 N          -1.3069  -23.5203  -44.4731 N.am      13 UNK        -0.5000 
     75 CA         -0.3575  -24.6327  -44.4417 C.3       13 UNK         0.1400 
     76 CB          1.0212  -24.1154  -44.8820 C.3       13 UNK        -0.1800 
     77 C          -0.7694  -25.8409  -45.2994 C.2       13 UNK         0.5000 
     78 O          -0.4200  -26.9684  -44.9476 O.2       13 UNK        -0.5000 
     79 N          -1.4844  -25.5937  -46.4038 N.am      14 UNK        -0.5000 
     80 CA         -1.9098  -26.6120  -47.3689 C.3       14 UNK         0.1400 
     81 CB         -1.3148  -26.2717  -48.7491 C.3       14 UNK        -0.1800 
     82 C          -3.4427  -26.7335  -47.4340 C.2       14 UNK         0.5000 
     83 O          -3.9552  -27.3643  -48.3581 O.2       14 UNK        -0.5000 
     84 N          -4.1556  -26.1008  -46.4878 N.am      15 UNK        -0.5000 
     85 CA         -5.6202  -26.0399  -46.3777 C.3       15 UNK         0.1400 
     86 CB         -6.1792  -27.4111  -45.9457 C.3       15 UNK        -0.1800 
     87 C          -6.3116  -25.4867  -47.6461 C.2       15 UNK         0.5000 
     88 O          -7.4221  -25.9029  -47.9789 O.2       15 UNK        -0.5000 
     89 N          -5.6174  -24.5706  -48.3361 N.am      16 UNK        -0.5000 
     90 CA         -5.9788  -23.9184  -49.5964 C.3       16 UNK         0.1400 
     91 CB         -7.3199  -23.1615  -49.4906 C.3       16 UNK        -0.1800 
     92 C          -5.9128  -24.8317  -50.8372 C.2       16 UNK         0.5000 
     93 O          -6.3555  -24.4109  -51.9061 O.2       16 UNK        -0.5000 
     94 N          -5.3195  -26.0306  -50.7237 N.am      17 UNK        -0.5000 
     95 CA         -5.1312  -26.9501  -51.8528 C.3       17 UNK         0.1400 
     96 CB         -4.7114  -28.3319  -51.3309 C.3       17 UNK        -0.1800 
     97 C          -4.1084  -26.4334  -52.8847 C.2       17 UNK         0.5000 
     98 O          -4.2490  -26.7154  -54.0748 O.2       17 UNK        -0.5000 
     99 N          -3.1131  -25.6733  -52.4087 N.am      18 UNK        -0.5000 
    100 CA        -2.0501  -25.0692  -53.2152 C.3       18 UNK         0.1400 
    101 CB        -0.7075  -25.2875  -52.4958 C.3       18 UNK        -0.1800 
    102 C         -2.2947  -23.5724  -53.4986 C.2       18 UNK         0.5000 
    103 O         -1.4297  -22.9250  -54.0893 O.2       18 UNK        -0.5000 
    104 N         -3.4553  -23.0329  -53.0890 N.am      19 UNK        -0.5000 
    105 CA        -3.8007  -21.6075  -53.1879 C.3       19 UNK         0.1400 
    106 CB        -5.0869  -21.3254  -52.4001 C.3       19 UNK        -0.1800 
    107 C         -3.9102  -21.0624  -54.6251 C.2       19 UNK         0.5000 
    108 O         -3.8689  -19.8476  -54.8105 O.2       19 UNK        -0.5000 
    109 N         -3.9930  -21.9532  -55.6224 N.am      20 UNK        -0.5000 
    110 CA        -3.9139  -21.6252  -57.0476 C.3       20 UNK         0.1400 
    111 CB        -4.1968  -22.8952  -57.8644 C.3       20 UNK        -0.1800 
    112 C         -2.5631  -21.0027  -57.4661 C.2       20 UNK         0.5000 
    113 O         -2.5159  -20.2920  -58.4707 O.2       20 UNK        -0.5000 
    114 N         -1.4972  -21.2662  -56.6947 N.am      21 UNK        -0.5000 
    115 CA        -0.1690  -20.6849  -56.8923 C.3       21 UNK         0.1400 
    116 CB         0.8763  -21.6167  -56.2589 C.3       21 UNK        -0.1800 
    117 C         -0.0360  -19.2605  -56.3144 C.2       21 UNK         0.5000 
    118 O          0.9031  -18.5534  -56.6835 O.2       21 UNK        -0.5000 
    119 N         -0.9429  -18.8679  -55.4103 N.am      22 UNK        -0.5000 
    120 CA        -0.9528  -17.5545  -54.7487 C.3       22 UNK         0.1400 
    121 C         -1.4610  -16.4253  -55.6865 C.2       22 UNK         0.5000 
    122 N         -0.9460  -15.2122  -55.5383 N.am      22 UNK        -0.7600 
    123 O         -2.3418  -16.6239  -56.5203 O.2       22 UNK        -0.5000 
    124 C124       -1.7674  -17.5820  -53.4301 C.3       23 UNK        -0.0398 
    125 S125       -1.1035  -18.7963  -52.2378 S.3       23 UNK        -0.2404 
    126 C126       -0.5901  -17.7159  -50.8589 C.3       23 UNK        -0.0205 
    127 H127       -1.0554   -9.1148  -42.4357 H         1 UNK         0.0600 
    128 H128       -1.0896   -7.5046  -43.1605 H         1 UNK         0.0600 
    129 H129        0.4566   -8.2769  -42.7923 H         1 UNK         0.0600 
    130 H130       -1.5024  -10.7114  -43.9048 H         1 UNK         0.3000 
    131 H131       -1.4678  -10.3983  -46.7302 H         1 UNK         0.0600 
    132 H132       -1.5937  -12.9894  -45.1122 H         1 UNK         0.0800 
    133 H133       -2.9656  -11.9532  -45.3715 H         1 UNK         0.0800 
    134 H134       -2.4398  -15.0819  -46.0723 H         1 UNK         0.0800 
    135 H135       -0.8793  -14.8167  -46.8160 H         1 UNK         0.0800 
    136 H136       -0.3707  -15.8691  -48.9314 H         1 UNK         0.1150 
    137 H137       -3.3214  -18.4102  -50.7463 H         1 UNK         0.1150 
    138 H138       -4.3939  -15.8725  -47.4759 H         1 UNK         0.1150 
    139 H139       -6.0754  -17.1935  -48.4715 H         1 UNK         0.0800 
    140 H140       -5.8500  -17.3195  -50.1967 H         1 UNK         0.0800 
    141 H141       -6.2917  -19.7951  -46.8563 H         1 UNK         0.0800 
    142 H142       -4.7225  -19.0243  -46.9431 H         1 UNK         0.0800 
    143 H143       -5.2673  -21.9234  -47.7238 H         1 UNK         0.0600 
    144 H144       -2.9572  -20.3208  -48.1355 H         1 UNK         0.3000 
    145 H145       -0.5720  -22.9165  -48.3987 H         1 UNK         0.0600 
    146 H146       -0.2961  -21.9968  -50.6865 H         1 UNK         0.0600 
    147 H147       -1.7718  -22.9500  -50.6108 H         1 UNK         0.0600 
    148 H148       -1.8662  -21.1981  -50.5853 H         1 UNK         0.0600 
    149 H149       -0.4212  -20.1261  -48.9179 H         1 UNK         0.3000 
    150 H150        0.5290  -18.6773  -47.4796 H         1 UNK         0.0600 
    151 H151       -1.9374  -18.4091  -46.9633 H         1 UNK         0.0600 
    152 H152       -0.9352  -17.3007  -46.0485 H         1 UNK         0.0600 
    153 H153       -1.6078  -18.7307  -45.2687 H         1 UNK         0.0600 
    154 H154        0.7118  -18.7333  -44.6135 H         1 UNK         0.3000 
    155 H155        3.3479  -20.3874  -43.9134 H         1 UNK         0.0600 
    156 H156        4.4675  -17.8011  -45.1160 H         1 UNK         0.0600 
    157 H157        5.1076  -19.4231  -45.3417 H         1 UNK         0.0600 
    158 H158        5.1775  -18.6705  -43.7578 H         1 UNK         0.0600 
    159 H159        2.4291  -17.5554  -43.5526 H         1 UNK         0.3000 
    160 H160        0.6821  -18.3918  -40.6128 H         1 UNK         0.0600 
    161 H161        3.3803  -16.9490  -40.6496 H         1 UNK         0.0600 
    162 H162        2.8660  -18.1899  -39.5184 H         1 UNK         0.0600 
    163 H163        2.0797  -16.6181  -39.5042 H         1 UNK         0.0600 
    164 H164        1.3731  -15.8788  -41.8341 H         1 UNK         0.3000 
    165 H165       -0.5944  -15.8215  -44.4264 H         1 UNK         0.0600 
    166 H166       -2.5108  -15.3233  -42.0974 H         1 UNK         0.0600 
    167 H167       -2.6136  -14.4883  -43.6437 H         1 UNK         0.0600 
    168 H168       -2.8301  -16.2277  -43.5660 H         1 UNK         0.0600 
    169 H169        0.7166  -14.1881  -43.8485 H         1 UNK         0.3000 
    170 H170        0.6053  -11.6700  -42.7727 H         1 UNK         0.0600 
    171 H171        0.3944  -11.3438  -40.3490 H         1 UNK         0.0600 
    172 H172        1.7067  -12.4683  -40.0303 H         1 UNK         0.0600 
    173 H173        2.0277  -10.9407  -40.8505 H         1 UNK         0.0600 
    174 H174        2.5060  -12.3626  -43.6575 H         1 UNK         0.3000 
    175 H175        5.0222  -13.2370  -43.2022 H         1 UNK         0.0600 
    176 H176        4.5275  -16.2389  -42.8140 H         1 UNK         0.0600 
    177 H177        6.0019  -15.5249  -43.4618 H         1 UNK         0.0600 
    178 H178        5.5285  -15.2103  -41.8004 H         1 UNK         0.0600 
    179 H179        4.4449  -13.5878  -45.3143 H         1 UNK         0.3000 
    180 H180        3.9412  -15.1159  -47.1804 H         1 UNK         0.0600 
    181 H181        1.0619  -16.1290  -46.8667 H         1 UNK         0.0600 
    182 H182        2.4981  -17.1077  -47.1428 H         1 UNK         0.0600 
    183 H183        1.9356  -16.0244  -48.3971 H         1 UNK         0.0600 
    184 H184        1.9917  -13.1924  -46.2756 H         1 UNK         0.3000 
    185 H185        2.7095  -11.0130  -47.6470 H         1 UNK         0.0600 
    186 H186        1.2781  -11.5450  -50.2983 H         1 UNK         0.0600 
    187 H187        1.6665   -9.9572  -49.6350 H         1 UNK         0.0600 
    188 H188        2.9559  -11.0441  -50.1147 H         1 UNK         0.0600 
    189 H189       -0.0592  -11.1562  -48.2735 H         1 UNK         0.3000 
    190 H190       -2.6020  -21.3338  -45.6213 H         1 UNK         0.3000 
    191 H191       -4.1350  -22.2710  -43.2305 H         1 UNK         0.0600 
    192 H192       -2.1665  -21.4365  -41.9564 H         1 UNK         0.0600 
    193 H193       -2.9176  -20.1451  -42.8800 H         1 UNK         0.0600 
    194 H194       -1.4156  -20.8670  -43.4415 H         1 UNK         0.0600 
    195 H195       -0.9890  -22.6830  -44.9601 H         1 UNK         0.3000 
    196 H196       -0.2725  -24.9776  -43.4089 H         1 UNK         0.0600 
    197 H197        1.0041  -23.7509  -45.9101 H         1 UNK         0.0600 
    198 H198        1.3582  -23.2977  -44.2443 H         1 UNK         0.0600 
    199 H199        1.7727  -24.9039  -44.8250 H         1 UNK         0.0600 
    200 H200       -1.7645  -24.6432  -46.6149 H         1 UNK         0.3000 
    201 H201       -1.5383  -27.5969  -47.0807 H         1 UNK         0.0600 
    202 H202       -1.7121  -25.3381  -49.1455 H         1 UNK         0.0600 
    203 H203       -1.5348  -27.0542  -49.4764 H         1 UNK         0.0600 
    204 H204       -0.2302  -26.1776  -48.6973 H         1 UNK         0.0600 
    205 H205       -3.6401  -25.6021  -45.7764 H         1 UNK         0.3000 
    206 H206       -5.8374  -25.3263  -45.5814 H         1 UNK         0.0600 
    207 H207       -5.6879  -27.7694  -45.0412 H         1 UNK         0.0600 
    208 H208       -7.2466  -27.3503  -45.7305 H         1 UNK         0.0600 
    209 H209       -6.0437  -28.1648  -46.7221 H         1 UNK         0.0600 
    210 H210       -4.6920  -24.3305  -47.9894 H         1 UNK         0.3000 
    211 H211       -5.2003  -23.1729  -49.7528 H         1 UNK         0.0600 
    212 H212       -7.4599  -22.4983  -50.3450 H         1 UNK         0.0600 
    213 H213       -7.3645  -22.5434  -48.5945 H         1 UNK         0.0600 
    214 H214       -8.1698  -23.8438  -49.4686 H         1 UNK         0.0600 
    215 H215       -4.9762  -26.3417  -49.8204 H         1 UNK         0.3000 
    216 H216       -6.0908  -27.0601  -52.3625 H         1 UNK         0.0600 
    217 H217       -3.7297  -28.3025  -50.8569 H         1 UNK         0.0600 
    218 H218       -4.6589  -29.0558  -52.1450 H         1 UNK         0.0600 
    219 H219       -5.4257  -28.7134  -50.6009 H         1 UNK         0.0600 
    220 H220       -3.0820  -25.5009  -51.4149 H         1 UNK         0.3000 
    221 H221       -1.9886  -25.5645  -54.1862 H         1 UNK         0.0600 
    222 H222       -0.5083  -26.3499  -52.3542 H         1 UNK         0.0600 
    223 H223       -0.6864  -24.8133  -51.5152 H         1 UNK         0.0600 
    224 H224        0.1220  -24.8800  -53.0751 H         1 UNK         0.0600 
    225 H225       -4.1507  -23.6385  -52.6768 H         1 UNK         0.3000 
    226 H226       -2.9946  -21.0482  -52.7118 H         1 UNK         0.0600 
    227 H227       -5.9318  -21.8950  -52.7875 H         1 UNK         0.0600 
    228 H228       -4.9613  -21.5685  -51.3471 H         1 UNK         0.0600 
    229 H229       -5.3537  -20.2687  -52.4495 H         1 UNK         0.0600 
    230 H230       -4.0254  -22.9329  -55.3828 H         1 UNK         0.3000 
    231 H231       -4.6939  -20.8932  -57.2670 H         1 UNK         0.0600 
    232 H232       -3.4574  -23.6727  -57.6674 H         1 UNK         0.0600 
    233 H233       -4.1748  -22.6847  -58.9345 H         1 UNK         0.0600 
    234 H234       -5.1820  -23.3015  -57.6350 H         1 UNK         0.0600 
    235 H235       -1.6090  -21.8602  -55.8797 H         1 UNK         0.3000 
    236 H236        0.0366  -20.6269  -57.9633 H         1 UNK         0.0600 
    237 H237        0.8113  -22.6235  -56.6717 H         1 UNK         0.0600 
    238 H238        1.8877  -21.2534  -56.4452 H         1 UNK         0.0600 
    239 H239        0.7483  -21.6880  -55.1780 H         1 UNK         0.0600 
    240 H240       -1.7284  -19.4702  -55.2042 H         1 UNK         0.3000 
    241 H241        0.0803  -17.3171  -54.4859 H         1 UNK         0.0600 
    242 H242       -1.2756  -14.4660  -56.1312 H         1 UNK         0.3800 
    243 H243       -0.2242  -15.0205  -54.8609 H         1 UNK         0.3800 
    244 H244       -2.8131  -17.8213  -53.6241 H         1 UNK         0.0800 
    245 H245       -1.7735  -16.5941  -52.9664 H         1 UNK         0.0800 
    246 H246       -0.0329  -16.8698  -51.2642 H         1 UNK         0.0800 
    247 H247        0.1160  -18.2739  -50.2435 H         1 UNK         0.0800 
@<TRIPOS>BOND
     1    1    2 1    
     2    1  127 1    
     3    1  128 1    
     4    1  129 1    
     5    2    3 2    
     6    2    4 am   BACKBONE|DICT|INTERRES
     7    4    5 1    
     8    4  130 1    
     9    5    6 1    
    10    5   65 1    
    11    5  131 1    
    12    6    7 1    
    13    6  132 1    
    14    6  133 1    
    15    7    8 1    
    16    8    9 1    
    17    8  134 1    
    18    8  135 1    
    19    9   10 ar   
    20    9   14 ar   
    21   10   11 ar   
    22   10  136 1    
    23   11   12 ar   
    24   11  126 1    
    25   12   13 ar   
    26   12  137 1    
    27   13   14 ar   
    28   13   15 1    
    29   14  138 1    
    30   15   16 1    
    31   15  139 1    
    32   15  140 1    
    33   16   17 1    
    34   17   18 1    
    35   17  141 1    
    36   17  142 1    
    37   18   19 1    
    38   18   67 1    
    39   18  143 1    
    40   19   20 am   BACKBONE|DICT|INTERRES
    41   19  144 1    
    42   20   21 2    
    43   20   22 1    
    44   22   23 1    
    45   22   24 1    
    46   22  145 1    
    47   23  146 1    
    48   23  147 1    
    49   23  148 1    
    50   24   25 am   BACKBONE|DICT|INTERRES
    51   24  149 1    
    52   25   26 2    
    53   25   27 1    
    54   27   28 1    
    55   27   29 1    
    56   27  150 1    
    57   28  151 1    
    58   28  152 1    
    59   28  153 1    
    60   29   30 am   BACKBONE|DICT|INTERRES
    61   29  154 1    
    62   30   31 2    
    63   30   32 1    
    64   32   33 1    
    65   32   34 1    
    66   32  155 1    
    67   33  156 1    
    68   33  157 1    
    69   33  158 1    
    70   34   35 am   BACKBONE|DICT|INTERRES
    71   34  159 1    
    72   35   36 2    
    73   35   37 1    
    74   37   38 1    
    75   37   39 1    
    76   37  160 1    
    77   38  161 1    
    78   38  162 1    
    79   38  163 1    
    80   39   40 am   BACKBONE|DICT|INTERRES
    81   39  164 1    
    82   40   41 2    
    83   40   42 1    
    84   42   43 1    
    85   42   44 1    
    86   42  165 1    
    87   43  166 1    
    88   43  167 1    
    89   43  168 1    
    90   44   45 am   BACKBONE|DICT|INTERRES
    91   44  169 1    
    92   45   46 2    
    93   45   47 1    
    94   47   48 1    
    95   47   49 1    
    96   47  170 1    
    97   48  171 1    
    98   48  172 1    
    99   48  173 1    
   100   49   50 am   BACKBONE|DICT|INTERRES
   101   49  174 1    
   102   50   51 2    
   103   50   52 1    
   104   52   53 1    
   105   52   54 1    
   106   52  175 1    
   107   53  176 1    
   108   53  177 1    
   109   53  178 1    
   110   54   55 am   BACKBONE|DICT|INTERRES
   111   54  179 1    
   112   55   56 2    
   113   55   57 1    
   114   57   58 1    
   115   57   59 1    
   116   57  180 1    
   117   58  181 1    
   118   58  182 1    
   119   58  183 1    
   120   59   60 am   BACKBONE|DICT|INTERRES
   121   59  184 1    
   122   60   61 2    
   123   60   62 1    
   124   62   63 1    
   125   62   64 1    
   126   62  185 1    
   127   63  186 1    
   128   63  187 1    
   129   63  188 1    
   130   64   65 am   BACKBONE|DICT|INTERRES
   131   64  189 1    
   132   65   66 2    
   133   67   68 2    
   134   67   69 am   BACKBONE|DICT|INTERRES
   135   69   70 1    
   136   69  190 1    
   137   70   71 1    
   138   70   72 1    
   139   70  191 1    
   140   71  192 1    
   141   71  193 1    
   142   71  194 1    
   143   72   73 2    
   144   72   74 am   BACKBONE|DICT|INTERRES
   145   74   75 1    
   146   74  195 1    
   147   75   76 1    
   148   75   77 1    
   149   75  196 1    
   150   76  197 1    
   151   76  198 1    
   152   76  199 1    
   153   77   78 2    
   154   77   79 am   BACKBONE|DICT|INTERRES
   155   79   80 1    
   156   79  200 1    
   157   80   81 1    
   158   80   82 1    
   159   80  201 1    
   160   81  202 1    
   161   81  203 1    
   162   81  204 1    
   163   82   83 2    
   164   82   84 am   BACKBONE|DICT|INTERRES
   165   84   85 1    
   166   84  205 1    
   167   85   86 1    
   168   85   87 1    
   169   85  206 1    
   170   86  207 1    
   171   86  208 1    
   172   86  209 1    
   173   87   88 2    
   174   87   89 am   BACKBONE|DICT|INTERRES
   175   89   90 1    
   176   89  210 1    
   177   90   91 1    
   178   90   92 1    
   179   90  211 1    
   180   91  212 1    
   181   91  213 1    
   182   91  214 1    
   183   92   93 2    
   184   92   94 am   BACKBONE|DICT|INTERRES
   185   94   95 1    
   186   94  215 1    
   187   95   96 1    
   188   95   97 1    
   189   95  216 1    
   190   96  217 1    
   191   96  218 1    
   192   96  219 1    
   193   97   98 2    
   194   97   99 am   BACKBONE|DICT|INTERRES
   195   99  100 1    
   196   99  220 1    
   197  100  101 1    
   198  100  102 1    
   199  100  221 1    
   200  101  222 1    
   201  101  223 1    
   202  101  224 1    
   203  102  103 2    
   204  102  104 am   BACKBONE|DICT|INTERRES
   205  104  105 1    
   206  104  225 1    
   207  105  106 1    
   208  105  107 1    
   209  105  226 1    
   210  106  227 1    
   211  106  228 1    
   212  106  229 1    
   213  107  108 2    
   214  107  109 am   BACKBONE|DICT|INTERRES
   215  109  110 1    
   216  109  230 1    
   217  110  111 1    
   218  110  112 1    
   219  110  231 1    
   220  111  232 1    
   221  111  233 1    
   222  111  234 1    
   223  112  113 2    
   224  112  114 am   BACKBONE|DICT|INTERRES
   225  114  115 1    
   226  114  235 1    
   227  115  116 1    
   228  115  117 1    
   229  115  236 1    
   230  116  237 1    
   231  116  238 1    
   232  116  239 1    
   233  117  118 2    
   234  117  119 am   BACKBONE|DICT|INTERRES
   235  119  120 1    
   236  119  240 1    
   237  120  121 1    
   238  120  124 1    
   239  120  241 1    
   240  121  122 am   BACKBONE|DICT|INTERRES
   241  121  123 2    
   242  122  242 1    
   243  122  243 1    
   244  124  125 1    
   245  124  244 1    
   246  124  245 1    
   247  125  126 1    
   248  126  246 1    
   249  126  247 1    
@<TRIPOS>SUBSTRUCTURE
     1 UNK         1 GROUP             0       ****    0 ROOT    
