@<TRIPOS>MOLECULE
3R540
247   249    1
SMALL
USER_CHARGES


@<TRIPOS>ATOM
      1 CA         -1.5615  -10.2999  -52.7943 C.3       0 UNK        -0.1800 
      2 C          -0.2067  -10.9165  -52.4760 C.2       0 UNK         0.5000 
      3 O           0.8167  -10.4201  -52.9467 O.2       0 UNK        -0.5000 
      4 N          -0.1995  -11.9969  -51.6838 N.am      1 UNK        -0.5000 
      5 CA          1.0040  -12.7122  -51.2429 C.3       1 UNK         0.1400 
      6 C6          0.6302  -14.0857  -50.6329 C.3       23 UNK        -0.0398 
      7 S7          2.0689  -15.1711  -50.3497 S.3       23 UNK        -0.2404 
      8 C8          1.5244  -16.0920  -48.8805 C.3       23 UNK        -0.0205 
      9 C9          0.5096  -17.1637  -49.2348 C.ar      23 UNK        -0.0193 
     10 C10        -0.8562  -16.9449  -49.0434 C.ar      23 UNK        -0.1150 
     11 C11        -1.7848  -17.9458  -49.3444 C.ar      23 UNK        -0.0193 
     12 C12        -1.3375  -19.1764  -49.8340 C.ar      23 UNK        -0.1150 
     13 C13         0.0295  -19.4106  -50.0137 C.ar      23 UNK        -0.0193 
     14 C14         0.9451  -18.3937  -49.7283 C.ar      23 UNK        -0.1150 
     15 C15         0.5183  -20.7782  -50.4695 C.3       23 UNK        -0.0205 
     16 S16         1.8354  -21.4770  -49.4119 S.3       23 UNK        -0.2404 
     17 C17         1.2230  -21.1749  -47.7153 C.3       23 UNK        -0.0398 
     18 CA          0.5281  -22.3966  -47.0831 C.3       11 UNK         0.1400 
     19 N           0.4837  -22.2866  -45.6257 N.am      11 UNK        -0.5000 
     20 C           0.1173  -23.2728  -44.7984 C.2       10 UNK         0.5000 
     21 O          -0.2014  -24.3993  -45.1809 O.2       10 UNK        -0.5000 
     22 CA          0.0417  -22.9183  -43.3029 C.3       10 UNK         0.1400 
     23 CB          1.4420  -22.8947  -42.6725 C.3       10 UNK        -0.1800 
     24 N          -0.6243  -21.6342  -43.0758 N.am      10 UNK        -0.5000 
     25 C          -1.9167  -21.4013  -43.3478 C.2       9 UNK         0.5000 
     26 O          -2.6931  -22.2640  -43.7579 O.2       9 UNK        -0.5000 
     27 CA         -2.4238  -19.9602  -43.1607 C.3       9 UNK         0.1400 
     28 CB         -2.7552  -19.6931  -41.6850 C.3       9 UNK        -0.1800 
     29 N          -1.4858  -18.9482  -43.6530 N.am      9 UNK        -0.5000 
     30 C          -1.1179  -18.8133  -44.9361 C.2       8 UNK         0.5000 
     31 O          -1.5422  -19.5241  -45.8435 O.2       8 UNK        -0.5000 
     32 CA         -0.0576  -17.7463  -45.2601 C.3       8 UNK         0.1400 
     33 CB         -0.6789  -16.3430  -45.3135 C.3       8 UNK        -0.1800 
     34 N           1.0532  -17.7569  -44.3113 N.am      8 UNK        -0.5000 
     35 C           1.8761  -18.7958  -44.1123 C.2       7 UNK         0.5000 
     36 O           1.8134  -19.8547  -44.7370 O.2       7 UNK        -0.5000 
     37 CA          2.9048  -18.6433  -42.9815 C.3       7 UNK         0.1400 
     38 CB          4.0868  -17.7658  -43.4232 C.3       7 UNK        -0.1800 
     39 N           2.2971  -18.0873  -41.7728 N.am      7 UNK        -0.5000 
     40 C           1.3994  -18.7308  -41.0127 C.2       6 UNK         0.5000 
     41 O           1.0067  -19.8763  -41.2358 O.2       6 UNK        -0.5000 
     42 CA          0.8182  -17.9464  -39.8225 C.3       6 UNK         0.1400 
     43 CB          1.7655  -18.0111  -38.6152 C.3       6 UNK        -0.1800 
     44 N           0.5422  -16.5463  -40.1496 N.am      6 UNK        -0.5000 
     45 C          -0.4018  -16.1474  -41.0132 C.2       5 UNK         0.5000 
     46 O          -1.1454  -16.9174  -41.6184 O.2       5 UNK        -0.5000 
     47 CA         -0.5017  -14.6357  -41.2819 C.3       5 UNK         0.1400 
     48 CB         -1.3372  -13.9463  -40.1927 C.3       5 UNK        -0.1800 
     49 N           0.7963  -13.9647  -41.3999 N.am      5 UNK        -0.5000 
     50 C           1.7368  -14.2778  -42.3003 C.2       4 UNK         0.5000 
     51 O           1.6641  -15.2459  -43.0614 O.2       4 UNK        -0.5000 
     52 CA          2.9811  -13.3712  -42.3438 C.3       4 UNK         0.1400 
     53 CB          4.0913  -13.9518  -41.4546 C.3       4 UNK        -0.1800 
     54 N           3.4888  -13.2311  -43.7097 N.am      4 UNK        -0.5000 
     55 C           2.8097  -12.6657  -44.7167 C.2       3 UNK         0.5000 
     56 O           1.7407  -12.0661  -44.5669 O.2       3 UNK        -0.5000 
     57 CA          3.4175  -12.8417  -46.1223 C.3       3 UNK         0.1400 
     58 CB          3.4556  -14.3301  -46.5098 C.3       3 UNK        -0.1800 
     59 N           2.6468  -12.1136  -47.1315 N.am      3 UNK        -0.5000 
     60 C           2.7684  -10.8051  -47.3896 C.2       2 UNK         0.5000 
     61 O           3.6188  -10.0881  -46.8578 O.2       2 UNK        -0.5000 
     62 CA          1.7601  -10.1917  -48.3903 C.3       2 UNK         0.1400 
     63 CB          2.3237   -8.9528  -49.1181 C.3       2 UNK        -0.1800 
     64 N           1.1963  -11.1439  -49.3590 N.am      2 UNK        -0.5000 
     65 C           1.8637  -11.8525  -50.2852 C.2       1 UNK         0.5000 
     66 O           3.0876  -11.8271  -50.4220 O.2       1 UNK        -0.5000 
     67 C          -0.8696  -22.6499  -47.6863 C.2       11 UNK         0.5000 
     68 O          -0.9926  -23.4921  -48.5706 O.2       11 UNK        -0.5000 
     69 N          -1.9048  -21.9791  -47.1632 N.am      12 UNK        -0.5000 
     70 CA         -3.3055  -22.1577  -47.5534 C.3       12 UNK         0.1400 
     71 CB         -4.1482  -21.0350  -46.9297 C.3       12 UNK        -0.1800 
     72 C          -3.9027  -23.5297  -47.1836 C.2       12 UNK         0.5000 
     73 O          -4.9280  -23.9069  -47.7545 O.2       12 UNK        -0.5000 
     74 N          -3.2747  -24.2393  -46.2368 N.am      13 UNK        -0.5000 
     75 CA         -3.6016  -25.6187  -45.8860 C.3       13 UNK         0.1400 
     76 CB         -3.2851  -25.8630  -44.4027 C.3       13 UNK        -0.1800 
     77 C          -2.8454  -26.6129  -46.7848 C.2       13 UNK         0.5000 
     78 O          -3.4278  -27.6200  -47.1870 O.2       13 UNK        -0.5000 
     79 N          -1.5740  -26.3133  -47.0937 N.am      14 UNK        -0.5000 
     80 CA         -0.7233  -27.0966  -47.9937 C.3       14 UNK         0.1400 
     81 CB          0.7305  -26.6112  -47.8794 C.3       14 UNK        -0.1800 
     82 C          -1.2196  -27.0397  -49.4505 C.2       14 UNK         0.5000 
     83 O          -1.4632  -28.0818  -50.0603 O.2       14 UNK        -0.5000 
     84 N          -1.4217  -25.8183  -49.9569 N.am      15 UNK        -0.5000 
     85 CA         -2.1381  -25.5111  -51.1893 C.3       15 UNK         0.1400 
     86 CB         -1.5083  -24.2635  -51.8344 C.3       15 UNK        -0.1800 
     87 C          -3.6129  -25.3112  -50.8041 C.2       15 UNK         0.5000 
     88 O          -4.0802  -24.1742  -50.7072 O.2       15 UNK        -0.5000 
     89 N          -4.2645  -26.4430  -50.5012 N.am      16 UNK        -0.5000 
     90 CA         -5.5549  -26.5823  -49.8260 C.3       16 UNK         0.1400 
     91 CB         -5.9846  -28.0561  -49.8854 C.3       16 UNK        -0.1800 
     92 C          -6.6789  -25.6760  -50.3567 C.2       16 UNK         0.5000 
     93 O          -6.8234  -25.5143  -51.5706 O.2       16 UNK        -0.5000 
     94 N          -7.4632  -25.1369  -49.4133 N.am      17 UNK        -0.5000 
     95 CA         -8.5634  -24.1880  -49.6066 C.3       17 UNK         0.1400 
     96 CB         -9.7055  -24.8132  -50.4362 C.3       17 UNK        -0.1800 
     97 C          -8.0893  -22.8226  -50.1478 C.2       17 UNK         0.5000 
     98 O          -8.8307  -22.1670  -50.8819 O.2       17 UNK        -0.5000 
     99 N          -6.8727  -22.4156  -49.7497 N.am      18 UNK        -0.5000 
    100 CA        -6.2012  -21.1635  -50.1100 C.3       18 UNK         0.1400 
    101 CB        -6.9286  -19.9499  -49.4924 C.3       18 UNK        -0.1800 
    102 C         -5.9736  -21.0321  -51.6275 C.2       18 UNK         0.5000 
    103 O         -6.4249  -20.0671  -52.2460 O.2       18 UNK        -0.5000 
    104 N         -5.2738  -22.0194  -52.1947 N.am      19 UNK        -0.5000 
    105 CA        -4.7980  -22.0123  -53.5749 C.3       19 UNK         0.1400 
    106 CB        -4.8481  -23.4547  -54.1148 C.3       19 UNK        -0.1800 
    107 C         -3.3926  -21.3750  -53.6616 C.2       19 UNK         0.5000 
    108 O         -2.9879  -20.6318  -52.7617 O.2       19 UNK        -0.5000 
    109 N         -2.6739  -21.6679  -54.7563 N.am      20 UNK        -0.5000 
    110 CA        -1.3309  -21.1807  -55.0887 C.3       20 UNK         0.1400 
    111 CB        -0.2769  -21.7966  -54.1433 C.3       20 UNK        -0.1800 
    112 C         -1.2967  -19.6413  -55.1727 C.2       20 UNK         0.5000 
    113 O         -1.9920  -19.0813  -56.0220 O.2       20 UNK        -0.5000 
    114 N         -0.5307  -18.9783  -54.2949 N.am      21 UNK        -0.5000 
    115 CA        -0.3986  -17.5184  -54.2333 C.3       21 UNK         0.1400 
    116 CB         0.7026  -17.1512  -53.2306 C.3       21 UNK        -0.1800 
    117 C         -1.7096  -16.7815  -53.8888 C.2       21 UNK         0.5000 
    118 O         -1.8626  -15.6216  -54.2737 O.2       21 UNK        -0.5000 
    119 N         -2.6349  -17.4689  -53.2078 N.am      22 UNK        -0.5000 
    120 CA        -4.0122  -17.0083  -52.9781 C.3       22 UNK         0.1400 
    121 C         -4.9908  -17.3486  -54.1444 C.2       22 UNK         0.5000 
    122 N         -4.5783  -18.0259  -55.2104 N.am      22 UNK        -0.7600 
    123 O         -6.1527  -16.9534  -54.1018 O.2       22 UNK        -0.5000 
    124 C124       -4.5501  -17.5000  -51.6099 C.3       23 UNK        -0.0398 
    125 S125       -3.9640  -16.4704  -50.2233 S.3       23 UNK        -0.2404 
    126 C126       -3.2627  -17.7046  -49.0856 C.3       23 UNK        -0.0205 
    127 H127       -1.5950   -9.2678  -52.4452 H         1 UNK         0.0600 
    128 H128       -2.3778  -10.8458  -52.3206 H         1 UNK         0.0600 
    129 H129       -1.7312  -10.3025  -53.8710 H         1 UNK         0.0600 
    130 H130       -1.0794  -12.3596  -51.3454 H         1 UNK         0.3000 
    131 H131        1.6065  -12.9008  -52.1344 H         1 UNK         0.0600 
    132 H132        0.0777  -13.9490  -49.7022 H         1 UNK         0.0800 
    133 H133       -0.0444  -14.6192  -51.3046 H         1 UNK         0.0800 
    134 H134        1.1109  -15.4060  -48.1411 H         1 UNK         0.0800 
    135 H135        2.3934  -16.5577  -48.4134 H         1 UNK         0.0800 
    136 H136       -1.2010  -15.9980  -48.6528 H         1 UNK         0.1150 
    137 H137       -2.0507  -19.9596  -50.0514 H         1 UNK         0.1150 
    138 H138        2.0027  -18.5683  -49.8671 H         1 UNK         0.1150 
    139 H139       -0.3091  -21.4873  -50.5127 H         1 UNK         0.0800 
    140 H140        0.9078  -20.6876  -51.4830 H         1 UNK         0.0800 
    141 H141        0.5872  -20.2922  -47.6521 H         1 UNK         0.0800 
    142 H142        2.1096  -20.9258  -47.1314 H         1 UNK         0.0800 
    143 H143        1.1380  -23.2751  -47.3041 H         1 UNK         0.0600 
    144 H144        0.7595  -21.3910  -45.2312 H         1 UNK         0.3000 
    145 H145       -0.5423  -23.6957  -42.8057 H         1 UNK         0.0600 
    146 H146        1.3854  -22.7250  -41.5971 H         1 UNK         0.0600 
    147 H147        1.9561  -23.8442  -42.8260 H         1 UNK         0.0600 
    148 H148        2.0653  -22.1090  -43.1007 H         1 UNK         0.0600 
    149 H149       -0.0560  -20.8843  -42.6960 H         1 UNK         0.3000 
    150 H150       -3.3468  -19.8599  -43.7352 H         1 UNK         0.0600 
    151 H151       -3.4478  -20.4412  -41.2972 H         1 UNK         0.0600 
    152 H152       -3.2270  -18.7188  -41.5580 H         1 UNK         0.0600 
    153 H153       -1.8611  -19.7168  -41.0613 H         1 UNK         0.0600 
    154 H154       -1.1279  -18.2919  -42.9645 H         1 UNK         0.3000 
    155 H155        0.3489  -17.9742  -46.2478 H         1 UNK         0.0600 
    156 H156       -1.0741  -16.0410  -44.3432 H         1 UNK         0.0600 
    157 H157       -1.5001  -16.3070  -46.0303 H         1 UNK         0.0600 
    158 H158        0.0559  -15.5985  -45.6203 H         1 UNK         0.0600 
    159 H159        1.1967  -16.9097  -43.7660 H         1 UNK         0.3000 
    160 H160        3.2899  -19.6369  -42.7424 H         1 UNK         0.0600 
    161 H161        4.8374  -17.6901  -42.6364 H         1 UNK         0.0600 
    162 H162        3.7712  -16.7554  -43.6839 H         1 UNK         0.0600 
    163 H163        4.5773  -18.1899  -44.3003 H         1 UNK         0.0600 
    164 H164        2.5126  -17.1256  -41.5572 H         1 UNK         0.3000 
    165 H165       -0.1244  -18.4210  -39.5411 H         1 UNK         0.0600 
    166 H166        1.3258  -17.5272  -37.7429 H         1 UNK         0.0600 
    167 H167        1.9760  -19.0455  -38.3401 H         1 UNK         0.0600 
    168 H168        2.7199  -17.5259  -38.8234 H         1 UNK         0.0600 
    169 H169        1.1155  -15.8464  -39.7022 H         1 UNK         0.3000 
    170 H170       -1.0197  -14.5099  -42.2349 H         1 UNK         0.0600 
    171 H171       -2.3164  -14.4172  -40.0951 H         1 UNK         0.0600 
    172 H172       -0.8502  -13.9963  -39.2180 H         1 UNK         0.0600 
    173 H173       -1.5064  -12.8960  -40.4306 H         1 UNK         0.0600 
    174 H174        0.9411  -13.1642  -40.8016 H         1 UNK         0.3000 
    175 H175        2.7128  -12.3792  -41.9748 H         1 UNK         0.0600 
    176 H176        4.4029  -14.9412  -41.7922 H         1 UNK         0.0600 
    177 H177        4.9703  -13.3070  -41.4495 H         1 UNK         0.0600 
    178 H178        3.7555  -14.0485  -40.4213 H         1 UNK         0.0600 
    179 H179        4.3438  -13.7248  -43.9178 H         1 UNK         0.3000 
    180 H180        4.4403  -12.4592  -46.1081 H         1 UNK         0.0600 
    181 H181        2.4840  -14.8041  -46.3697 H         1 UNK         0.0600 
    182 H182        4.1710  -14.8792  -45.8969 H         1 UNK         0.0600 
    183 H183        3.7561  -14.4633  -47.5494 H         1 UNK         0.0600 
    184 H184        1.8997  -12.6193  -47.5813 H         1 UNK         0.3000 
    185 H185        0.9191   -9.8537  -47.7834 H         1 UNK         0.0600 
    186 H186        2.5946   -8.1693  -48.4095 H         1 UNK         0.0600 
    187 H187        3.2167   -9.1942  -49.6952 H         1 UNK         0.0600 
    188 H188        1.5881   -8.5285  -49.8016 H         1 UNK         0.0600 
    189 H189        0.1897  -11.2281  -49.3425 H         1 UNK         0.3000 
    190 H190       -1.7218  -21.2434  -46.4839 H         1 UNK         0.3000 
    191 H191       -3.3531  -22.0713  -48.6402 H         1 UNK         0.0600 
    192 H192       -4.0851  -21.0485  -45.8417 H         1 UNK         0.0600 
    193 H193       -5.2011  -21.1350  -47.1930 H         1 UNK         0.0600 
    194 H194       -3.8165  -20.0552  -47.2692 H         1 UNK         0.0600 
    195 H195       -2.4719  -23.8287  -45.7789 H         1 UNK         0.3000 
    196 H196       -4.6718  -25.7841  -46.0278 H         1 UNK         0.0600 
    197 H197       -3.5748  -26.8715  -44.1052 H         1 UNK         0.0600 
    198 H198       -3.8288  -25.1656  -43.7650 H         1 UNK         0.0600 
    199 H199       -2.2228  -25.7517  -44.1870 H         1 UNK         0.0600 
    200 H200       -1.1561  -25.4881  -46.6792 H         1 UNK         0.3000 
    201 H201       -0.7581  -28.1384  -47.6682 H         1 UNK         0.0600 
    202 H202        1.0952  -26.6984  -46.8557 H         1 UNK         0.0600 
    203 H203        0.8361  -25.5695  -48.1827 H         1 UNK         0.0600 
    204 H204        1.3902  -27.2055  -48.5127 H         1 UNK         0.0600 
    205 H205       -1.2293  -25.0088  -49.3650 H         1 UNK         0.3000 
    206 H206       -2.0610  -26.3402  -51.8957 H         1 UNK         0.0600 
    207 H207       -1.9628  -24.0549  -52.8015 H         1 UNK         0.0600 
    208 H208       -1.6326  -23.3745  -51.2155 H         1 UNK         0.0600 
    209 H209       -0.4404  -24.4030  -52.0022 H         1 UNK         0.0600 
    210 H210       -3.7467  -27.3043  -50.6069 H         1 UNK         0.3000 
    211 H211       -5.3784  -26.3286  -48.7798 H         1 UNK         0.0600 
    212 H212       -6.1134  -28.3941  -50.9145 H         1 UNK         0.0600 
    213 H213       -6.9322  -28.2103  -49.3675 H         1 UNK         0.0600 
    214 H214       -5.2470  -28.7016  -49.4077 H         1 UNK         0.0600 
    215 H215       -7.2319  -25.3271  -48.4477 H         1 UNK         0.3000 
    216 H216       -8.9616  -23.9875  -48.6110 H         1 UNK         0.0600 
    217 H217      -10.5871  -24.1712  -50.4315 H         1 UNK         0.0600 
    218 H218      -10.0069  -25.7783  -50.0291 H         1 UNK         0.0600 
    219 H219       -9.4187  -24.9620  -51.4774 H         1 UNK         0.0600 
    220 H220       -6.3252  -23.0533  -49.1809 H         1 UNK         0.3000 
    221 H221       -5.2084  -21.2056  -49.6657 H         1 UNK         0.0600 
    222 H222       -7.9175  -19.8027  -49.9274 H         1 UNK         0.0600 
    223 H223       -7.0523  -20.0672  -48.4162 H         1 UNK         0.0600 
    224 H224       -6.3623  -19.0327  -49.6549 H         1 UNK         0.0600 
    225 H225       -4.9198  -22.7729  -51.6079 H         1 UNK         0.3000 
    226 H226       -5.4636  -21.4033  -54.1898 H         1 UNK         0.0600 
    227 H227       -4.6343  -23.4942  -55.1830 H         1 UNK         0.0600 
    228 H228       -4.1365  -24.1042  -53.6072 H         1 UNK         0.0600 
    229 H229       -5.8396  -23.8870  -53.9754 H         1 UNK         0.0600 
    230 H230       -3.1012  -22.2552  -55.4580 H         1 UNK         0.3000 
    231 H231       -1.1108  -21.5373  -56.0959 H         1 UNK         0.0600 
    232 H232       -0.2508  -22.8805  -54.2524 H         1 UNK         0.0600 
    233 H233       -0.4901  -21.5799  -53.0979 H         1 UNK         0.0600 
    234 H234        0.7263  -21.4330  -54.3690 H         1 UNK         0.0600 
    235 H235       -0.0170  -19.5074  -53.6066 H         1 UNK         0.3000 
    236 H236       -0.0836  -17.1769  -55.2215 H         1 UNK         0.0600 
    237 H237        1.6409  -17.6562  -53.4598 H         1 UNK         0.0600 
    238 H238        0.8991  -16.0786  -53.2441 H         1 UNK         0.0600 
    239 H239        0.4139  -17.4153  -52.2148 H         1 UNK         0.0600 
    240 H240       -2.4411  -18.4289  -52.9497 H         1 UNK         0.3000 
    241 H241       -4.0080  -15.9171  -52.9483 H         1 UNK         0.0600 
    242 H242       -3.6142  -18.3233  -55.3197 H         1 UNK         0.3800 
    243 H243       -5.2353  -18.2085  -55.9516 H         1 UNK         0.3800 
    244 H244       -5.6403  -17.4654  -51.5732 H         1 UNK         0.0800 
    245 H245       -4.2784  -18.5438  -51.4513 H         1 UNK         0.0800 
    246 H246       -3.3826  -17.3457  -48.0624 H         1 UNK         0.0800 
    247 H247       -3.8311  -18.6328  -49.1479 H         1 UNK         0.0800 
@<TRIPOS>BOND
     1    1    2 1    
     2    1  127 1    
     3    1  128 1    
     4    1  129 1    
     5    2    3 2    
     6    2    4 am   BACKBONE|DICT|INTERRES
     7    4    5 1    
     8    4  130 1    
     9    5    6 1    
    10    5   65 1    
    11    5  131 1    
    12    6    7 1    
    13    6  132 1    
    14    6  133 1    
    15    7    8 1    
    16    8    9 1    
    17    8  134 1    
    18    8  135 1    
    19    9   10 ar   
    20    9   14 ar   
    21   10   11 ar   
    22   10  136 1    
    23   11   12 ar   
    24   11  126 1    
    25   12   13 ar   
    26   12  137 1    
    27   13   14 ar   
    28   13   15 1    
    29   14  138 1    
    30   15   16 1    
    31   15  139 1    
    32   15  140 1    
    33   16   17 1    
    34   17   18 1    
    35   17  141 1    
    36   17  142 1    
    37   18   19 1    
    38   18   67 1    
    39   18  143 1    
    40   19   20 am   BACKBONE|DICT|INTERRES
    41   19  144 1    
    42   20   21 2    
    43   20   22 1    
    44   22   23 1    
    45   22   24 1    
    46   22  145 1    
    47   23  146 1    
    48   23  147 1    
    49   23  148 1    
    50   24   25 am   BACKBONE|DICT|INTERRES
    51   24  149 1    
    52   25   26 2    
    53   25   27 1    
    54   27   28 1    
    55   27   29 1    
    56   27  150 1    
    57   28  151 1    
    58   28  152 1    
    59   28  153 1    
    60   29   30 am   BACKBONE|DICT|INTERRES
    61   29  154 1    
    62   30   31 2    
    63   30   32 1    
    64   32   33 1    
    65   32   34 1    
    66   32  155 1    
    67   33  156 1    
    68   33  157 1    
    69   33  158 1    
    70   34   35 am   BACKBONE|DICT|INTERRES
    71   34  159 1    
    72   35   36 2    
    73   35   37 1    
    74   37   38 1    
    75   37   39 1    
    76   37  160 1    
    77   38  161 1    
    78   38  162 1    
    79   38  163 1    
    80   39   40 am   BACKBONE|DICT|INTERRES
    81   39  164 1    
    82   40   41 2    
    83   40   42 1    
    84   42   43 1    
    85   42   44 1    
    86   42  165 1    
    87   43  166 1    
    88   43  167 1    
    89   43  168 1    
    90   44   45 am   BACKBONE|DICT|INTERRES
    91   44  169 1    
    92   45   46 2    
    93   45   47 1    
    94   47   48 1    
    95   47   49 1    
    96   47  170 1    
    97   48  171 1    
    98   48  172 1    
    99   48  173 1    
   100   49   50 am   BACKBONE|DICT|INTERRES
   101   49  174 1    
   102   50   51 2    
   103   50   52 1    
   104   52   53 1    
   105   52   54 1    
   106   52  175 1    
   107   53  176 1    
   108   53  177 1    
   109   53  178 1    
   110   54   55 am   BACKBONE|DICT|INTERRES
   111   54  179 1    
   112   55   56 2    
   113   55   57 1    
   114   57   58 1    
   115   57   59 1    
   116   57  180 1    
   117   58  181 1    
   118   58  182 1    
   119   58  183 1    
   120   59   60 am   BACKBONE|DICT|INTERRES
   121   59  184 1    
   122   60   61 2    
   123   60   62 1    
   124   62   63 1    
   125   62   64 1    
   126   62  185 1    
   127   63  186 1    
   128   63  187 1    
   129   63  188 1    
   130   64   65 am   BACKBONE|DICT|INTERRES
   131   64  189 1    
   132   65   66 2    
   133   67   68 2    
   134   67   69 am   BACKBONE|DICT|INTERRES
   135   69   70 1    
   136   69  190 1    
   137   70   71 1    
   138   70   72 1    
   139   70  191 1    
   140   71  192 1    
   141   71  193 1    
   142   71  194 1    
   143   72   73 2    
   144   72   74 am   BACKBONE|DICT|INTERRES
   145   74   75 1    
   146   74  195 1    
   147   75   76 1    
   148   75   77 1    
   149   75  196 1    
   150   76  197 1    
   151   76  198 1    
   152   76  199 1    
   153   77   78 2    
   154   77   79 am   BACKBONE|DICT|INTERRES
   155   79   80 1    
   156   79  200 1    
   157   80   81 1    
   158   80   82 1    
   159   80  201 1    
   160   81  202 1    
   161   81  203 1    
   162   81  204 1    
   163   82   83 2    
   164   82   84 am   BACKBONE|DICT|INTERRES
   165   84   85 1    
   166   84  205 1    
   167   85   86 1    
   168   85   87 1    
   169   85  206 1    
   170   86  207 1    
   171   86  208 1    
   172   86  209 1    
   173   87   88 2    
   174   87   89 am   BACKBONE|DICT|INTERRES
   175   89   90 1    
   176   89  210 1    
   177   90   91 1    
   178   90   92 1    
   179   90  211 1    
   180   91  212 1    
   181   91  213 1    
   182   91  214 1    
   183   92   93 2    
   184   92   94 am   BACKBONE|DICT|INTERRES
   185   94   95 1    
   186   94  215 1    
   187   95   96 1    
   188   95   97 1    
   189   95  216 1    
   190   96  217 1    
   191   96  218 1    
   192   96  219 1    
   193   97   98 2    
   194   97   99 am   BACKBONE|DICT|INTERRES
   195   99  100 1    
   196   99  220 1    
   197  100  101 1    
   198  100  102 1    
   199  100  221 1    
   200  101  222 1    
   201  101  223 1    
   202  101  224 1    
   203  102  103 2    
   204  102  104 am   BACKBONE|DICT|INTERRES
   205  104  105 1    
   206  104  225 1    
   207  105  106 1    
   208  105  107 1    
   209  105  226 1    
   210  106  227 1    
   211  106  228 1    
   212  106  229 1    
   213  107  108 2    
   214  107  109 am   BACKBONE|DICT|INTERRES
   215  109  110 1    
   216  109  230 1    
   217  110  111 1    
   218  110  112 1    
   219  110  231 1    
   220  111  232 1    
   221  111  233 1    
   222  111  234 1    
   223  112  113 2    
   224  112  114 am   BACKBONE|DICT|INTERRES
   225  114  115 1    
   226  114  235 1    
   227  115  116 1    
   228  115  117 1    
   229  115  236 1    
   230  116  237 1    
   231  116  238 1    
   232  116  239 1    
   233  117  118 2    
   234  117  119 am   BACKBONE|DICT|INTERRES
   235  119  120 1    
   236  119  240 1    
   237  120  121 1    
   238  120  124 1    
   239  120  241 1    
   240  121  122 am   BACKBONE|DICT|INTERRES
   241  121  123 2    
   242  122  242 1    
   243  122  243 1    
   244  124  125 1    
   245  124  244 1    
   246  124  245 1    
   247  125  126 1    
   248  126  246 1    
   249  126  247 1    
@<TRIPOS>SUBSTRUCTURE
     1 UNK         1 GROUP             0       ****    0 ROOT    
