@<TRIPOS>MOLECULE
3R540
247   249    1
SMALL
USER_CHARGES


@<TRIPOS>ATOM
      1 CA          1.1971  -15.2114  -42.0107 C.3       0 UNK        -0.1800 
      2 C           0.8253  -14.4149  -43.2518 C.2       0 UNK         0.5000 
      3 O           1.3726  -13.3338  -43.4696 O.2       0 UNK        -0.5000 
      4 N          -0.1152  -14.9325  -44.0525 N.am      1 UNK        -0.5000 
      5 CA         -0.5773  -14.3146  -45.2984 C.3       1 UNK         0.1400 
      6 C6         -1.8910  -14.9642  -45.8040 C.3       23 UNK        -0.0398 
      7 S7         -2.7822  -13.8744  -46.9691 S.3       23 UNK        -0.2404 
      8 C8         -4.5130  -14.3663  -46.7035 C.3       23 UNK        -0.0205 
      9 C9         -4.8735  -15.5983  -47.5176 C.ar      23 UNK        -0.0193 
     10 C10        -5.3955  -15.4567  -48.8063 C.ar      23 UNK        -0.1150 
     11 C11        -5.7325  -16.5808  -49.5673 C.ar      23 UNK        -0.0193 
     12 C12        -5.5636  -17.8550  -49.0177 C.ar      23 UNK        -0.1150 
     13 C13        -5.0521  -18.0089  -47.7259 C.ar      23 UNK        -0.0193 
     14 C14        -4.6995  -16.8775  -46.9840 C.ar      23 UNK        -0.1150 
     15 C15        -4.8726  -19.3952  -47.1312 C.3       23 UNK        -0.0205 
     16 S16        -6.0754  -19.6970  -45.7970 S.3       23 UNK        -0.2404 
     17 C17        -5.7399  -21.4214  -45.2849 C.3       23 UNK        -0.0398 
     18 CA         -4.2485  -21.8390  -45.2410 C.3       11 UNK         0.1400 
     19 N          -3.4315  -20.8874  -44.4855 N.am      11 UNK        -0.5000 
     20 C          -2.0946  -20.8650  -44.4392 C.2       10 UNK         0.5000 
     21 O          -1.3785  -21.7024  -44.9921 O.2       10 UNK        -0.5000 
     22 CA         -1.4476  -19.7347  -43.6170 C.3       10 UNK         0.1400 
     23 CB         -2.3989  -18.5608  -43.2983 C.3       10 UNK        -0.1800 
     24 N          -0.8223  -20.2177  -42.3867 N.am      10 UNK        -0.5000 
     25 C          -1.3543  -20.9981  -41.4320 C.2       9 UNK         0.5000 
     26 O          -2.4823  -21.4892  -41.4977 O.2       9 UNK        -0.5000 
     27 CA         -0.4842  -21.2789  -40.1870 C.3       9 UNK         0.1400 
     28 CB          0.0287  -22.7257  -40.1882 C.3       9 UNK        -0.1800 
     29 N           0.6703  -20.3862  -40.0757 N.am      9 UNK        -0.5000 
     30 C           0.6213  -19.1071  -39.6814 C.2       8 UNK         0.5000 
     31 O          -0.4006  -18.5520  -39.2776 O.2       8 UNK        -0.5000 
     32 CA          1.9351  -18.3079  -39.7852 C.3       8 UNK         0.1400 
     33 CB          2.6855  -18.3308  -38.4451 C.3       8 UNK        -0.1800 
     34 N           2.8368  -18.7723  -40.8472 N.am      8 UNK        -0.5000 
     35 C           2.5575  -18.7589  -42.1578 C.2       7 UNK         0.5000 
     36 O           1.4721  -18.4122  -42.6249 O.2       7 UNK        -0.5000 
     37 CA          3.6700  -19.2243  -43.1111 C.3       7 UNK         0.1400 
     38 CB          3.2144  -20.4492  -43.9205 C.3       7 UNK        -0.1800 
     39 N           4.0577  -18.1492  -44.0249 N.am      7 UNK        -0.5000 
     40 C           4.7057  -17.0363  -43.6400 C.2       6 UNK         0.5000 
     41 O           5.0465  -16.8324  -42.4736 O.2       6 UNK        -0.5000 
     42 CA          5.0616  -15.9879  -44.7128 C.3       6 UNK         0.1400 
     43 CB          6.4813  -15.4176  -44.5120 C.3       6 UNK        -0.1800 
     44 N           4.9281  -16.5295  -46.0620 N.am      6 UNK        -0.5000 
     45 C           4.7632  -15.8151  -47.1781 C.2       5 UNK         0.5000 
     46 O           4.7523  -14.5844  -47.2143 O.2       5 UNK        -0.5000 
     47 CA          4.5661  -16.6162  -48.4770 C.3       5 UNK         0.1400 
     48 CB          5.6818  -17.6554  -48.7133 C.3       5 UNK        -0.1800 
     49 N           3.2341  -17.2199  -48.5570 N.am      5 UNK        -0.5000 
     50 C           2.6858  -18.1647  -47.7764 C.2       4 UNK         0.5000 
     51 O           3.2931  -18.7409  -46.8705 O.2       4 UNK        -0.5000 
     52 CA          1.2016  -18.5004  -48.0367 C.3       4 UNK         0.1400 
     53 CB          0.4612  -18.8781  -46.7423 C.3       4 UNK        -0.1800 
     54 N           0.5059  -17.3676  -48.6432 N.am      4 UNK        -0.5000 
     55 C           0.2028  -17.2338  -49.9406 C.2       3 UNK         0.5000 
     56 O           0.4577  -18.0820  -50.7927 O.2       3 UNK        -0.5000 
     57 CA         -0.4544  -15.9034  -50.3598 C.3       3 UNK         0.1400 
     58 CB         -1.9838  -16.0215  -50.2943 C.3       3 UNK        -0.1800 
     59 N          -0.0324  -14.7737  -49.5279 N.am      3 UNK        -0.5000 
     60 C           1.2216  -14.3037  -49.4442 C.2       2 UNK         0.5000 
     61 O           2.1520  -14.7199  -50.1345 O.2       2 UNK        -0.5000 
     62 CA          1.4914  -13.2302  -48.3708 C.3       2 UNK         0.1400 
     63 CB          1.3820  -11.8238  -48.9778 C.3       2 UNK        -0.1800 
     64 N           0.5970  -13.3247  -47.2124 N.am      2 UNK        -0.5000 
     65 C           0.5168  -14.3753  -46.3837 C.2       1 UNK         0.5000 
     66 O           1.2082  -15.3894  -46.4937 O.2       1 UNK        -0.5000 
     67 C          -4.1150  -23.2912  -44.7377 C.2       11 UNK         0.5000 
     68 O          -4.3616  -24.2104  -45.5155 O.2       11 UNK        -0.5000 
     69 N          -3.7060  -23.4900  -43.4765 N.am      12 UNK        -0.5000 
     70 CA         -3.4321  -24.8177  -42.9234 C.3       12 UNK         0.1400 
     71 CB         -3.5530  -24.7684  -41.3931 C.3       12 UNK        -0.1800 
     72 C          -2.0637  -25.3805  -43.3617 C.2       12 UNK         0.5000 
     73 O          -1.8566  -26.5894  -43.2493 O.2       12 UNK        -0.5000 
     74 N          -1.1633  -24.5160  -43.8525 N.am      13 UNK        -0.5000 
     75 CA          0.1500  -24.8921  -44.3717 C.3       13 UNK         0.1400 
     76 CB          1.2161  -23.9129  -43.8504 C.3       13 UNK        -0.1800 
     77 C           0.1462  -24.9287  -45.9065 C.2       13 UNK         0.5000 
     78 O           0.4698  -25.9636  -46.4904 O.2       13 UNK        -0.5000 
     79 N          -0.1929  -23.7937  -46.5315 N.am      14 UNK        -0.5000 
     80 CA         -0.1014  -23.6008  -47.9791 C.3       14 UNK         0.1400 
     81 CB          0.0323  -22.1015  -48.2714 C.3       14 UNK        -0.1800 
     82 C          -1.2892  -24.2019  -48.7465 C.2       14 UNK         0.5000 
     83 O          -1.0923  -24.7301  -49.8416 O.2       14 UNK        -0.5000 
     84 N          -2.4912  -24.1083  -48.1586 N.am      15 UNK        -0.5000 
     85 CA         -3.7694  -24.6238  -48.6608 C.3       15 UNK         0.1400 
     86 CB         -3.8468  -26.1452  -48.4033 C.3       15 UNK        -0.1800 
     87 C          -4.0445  -24.2183  -50.1244 C.2       15 UNK         0.5000 
     88 O          -4.2380  -23.0317  -50.3998 O.2       15 UNK        -0.5000 
     89 N          -4.0211  -25.2006  -51.0350 N.am      16 UNK        -0.5000 
     90 CA         -4.2320  -25.0439  -52.4727 C.3       16 UNK         0.1400 
     91 CB         -4.1975  -26.4272  -53.1386 C.3       16 UNK        -0.1800 
     92 C          -3.2322  -24.0942  -53.1578 C.2       16 UNK         0.5000 
     93 O          -3.6067  -23.4409  -54.1305 O.2       16 UNK        -0.5000 
     94 N          -1.9992  -24.0008  -52.6362 N.am      17 UNK        -0.5000 
     95 CA         -0.9747  -23.0879  -53.1463 C.3       17 UNK         0.1400 
     96 CB          0.3931  -23.4376  -52.5414 C.3       17 UNK        -0.1800 
     97 C          -1.3289  -21.6150  -52.8815 C.2       17 UNK         0.5000 
     98 O          -1.1310  -20.7784  -53.7617 O.2       17 UNK        -0.5000 
     99 N          -1.8909  -21.3323  -51.6976 N.am      18 UNK        -0.5000 
    100 CA        -2.3735  -20.0021  -51.3316 C.3       18 UNK         0.1400 
    101 CB        -2.5267  -19.8919  -49.8095 C.3       18 UNK        -0.1800 
    102 C         -3.6749  -19.6432  -52.0629 C.2       18 UNK         0.5000 
    103 O         -3.8188  -18.5096  -52.5162 O.2       18 UNK        -0.5000 
    104 N         -4.5720  -20.6264  -52.2269 N.am      19 UNK        -0.5000 
    105 CA        -5.7909  -20.4910  -53.0277 C.3       19 UNK         0.1400 
    106 CB        -6.6385  -21.7646  -52.9009 C.3       19 UNK        -0.1800 
    107 C         -5.4955  -20.1677  -54.5067 C.2       19 UNK         0.5000 
    108 O         -6.1713  -19.3171  -55.0858 O.2       19 UNK        -0.5000 
    109 N         -4.4667  -20.8171  -55.0720 N.am      20 UNK        -0.5000 
    110 CA        -3.9481  -20.5492  -56.4126 C.3       20 UNK         0.1400 
    111 CB        -2.9745  -21.6629  -56.8263 C.3       20 UNK        -0.1800 
    112 C         -3.2789  -19.1673  -56.5256 C.2       20 UNK         0.5000 
    113 O         -3.5259  -18.4617  -57.5046 O.2       20 UNK        -0.5000 
    114 N         -2.4754  -18.7860  -55.5195 N.am      21 UNK        -0.5000 
    115 CA        -1.7902  -17.4894  -55.4400 C.3       21 UNK         0.1400 
    116 CB        -0.8721  -17.4540  -54.2082 C.3       21 UNK        -0.1800 
    117 C         -2.7503  -16.2839  -55.4318 C.2       21 UNK         0.5000 
    118 O         -2.4232  -15.2461  -56.0092 O.2       21 UNK        -0.5000 
    119 N         -3.9266  -16.4573  -54.8184 N.am      22 UNK        -0.5000 
    120 CA        -5.0429  -15.4987  -54.8534 C.3       22 UNK         0.1400 
    121 C         -5.8169  -15.4474  -56.2067 C.2       22 UNK         0.5000 
    122 N         -5.5229  -16.2838  -57.1955 N.am      22 UNK        -0.7600 
    123 O         -6.7023  -14.6124  -56.3718 O.2       22 UNK        -0.5000 
    124 C124       -6.0157  -15.7090  -53.6663 C.3       23 UNK        -0.0398 
    125 S125       -5.1988  -15.4640  -52.0557 S.3       23 UNK        -0.2404 
    126 C126       -6.3003  -16.4241  -50.9712 C.3       23 UNK        -0.0205 
    127 H127        2.1963  -15.6324  -42.1204 H         1 UNK         0.0600 
    128 H128        0.4957  -16.0271  -41.8338 H         1 UNK         0.0600 
    129 H129        1.1918  -14.5670  -41.1318 H         1 UNK         0.0600 
    130 H130       -0.4883  -15.8463  -43.8431 H         1 UNK         0.3000 
    131 H131       -0.7790  -13.2651  -45.0710 H         1 UNK         0.0600 
    132 H132       -2.5483  -15.1577  -44.9553 H         1 UNK         0.0800 
    133 H133       -1.7117  -15.9340  -46.2730 H         1 UNK         0.0800 
    134 H134       -5.1574  -13.5353  -46.9944 H         1 UNK         0.0800 
    135 H135       -4.7053  -14.5356  -45.6431 H         1 UNK         0.0800 
    136 H136       -5.5308  -14.4691  -49.2243 H         1 UNK         0.1150 
    137 H137       -5.8301  -18.7286  -49.5959 H         1 UNK         0.1150 
    138 H138       -4.3033  -16.9944  -45.9855 H         1 UNK         0.1150 
    139 H139       -4.9925  -20.1628  -47.8971 H         1 UNK         0.0800 
    140 H140       -3.8524  -19.4770  -46.7571 H         1 UNK         0.0800 
    141 H141       -6.2894  -22.0760  -45.9641 H         1 UNK         0.0800 
    142 H142       -6.1978  -21.5575  -44.3033 H         1 UNK         0.0800 
    143 H143       -3.8692  -21.8438  -46.2646 H         1 UNK         0.0600 
    144 H144       -3.9400  -20.1817  -43.9726 H         1 UNK         0.3000 
    145 H145       -0.6379  -19.3414  -44.2299 H         1 UNK         0.0600 
    146 H146       -1.8554  -17.7450  -42.8213 H         1 UNK         0.0600 
    147 H147       -2.8496  -18.1573  -44.2061 H         1 UNK         0.0600 
    148 H148       -3.2032  -18.8542  -42.6227 H         1 UNK         0.0600 
    149 H149        0.1064  -19.8439  -42.2289 H         1 UNK         0.3000 
    150 H150       -1.1203  -21.1426  -39.3100 H         1 UNK         0.0600 
    151 H151       -0.7873  -23.4408  -40.2786 H         1 UNK         0.0600 
    152 H152        0.5558  -22.9558  -39.2621 H         1 UNK         0.0600 
    153 H153        0.7152  -22.9012  -41.0141 H         1 UNK         0.0600 
    154 H154        1.5600  -20.7563  -40.3761 H         1 UNK         0.3000 
    155 H155        1.6688  -17.2729  -40.0052 H         1 UNK         0.0600 
    156 H156        3.0080  -19.3388  -38.1813 H         1 UNK         0.0600 
    157 H157        2.0516  -17.9664  -37.6355 H         1 UNK         0.0600 
    158 H158        3.5684  -17.6920  -38.4763 H         1 UNK         0.0600 
    159 H159        3.7599  -19.0567  -40.5521 H         1 UNK         0.3000 
    160 H160        4.5474  -19.5123  -42.5283 H         1 UNK         0.0600 
    161 H161        2.3325  -20.2300  -44.5224 H         1 UNK         0.0600 
    162 H162        2.9626  -21.2813  -43.2621 H         1 UNK         0.0600 
    163 H163        3.9997  -20.7923  -44.5942 H         1 UNK         0.0600 
    164 H164        3.7331  -18.2462  -44.9810 H         1 UNK         0.3000 
    165 H165        4.3396  -15.1769  -44.5953 H         1 UNK         0.0600 
    166 H166        6.7053  -14.6349  -45.2364 H         1 UNK         0.0600 
    167 H167        6.5940  -14.9738  -43.5222 H         1 UNK         0.0600 
    168 H168        7.2397  -16.1945  -44.6137 H         1 UNK         0.0600 
    169 H169        4.8722  -17.5374  -46.1420 H         1 UNK         0.3000 
    170 H170        4.6175  -15.8980  -49.2969 H         1 UNK         0.0600 
    171 H171        6.6634  -17.1807  -48.6898 H         1 UNK         0.0600 
    172 H172        5.6858  -18.4467  -47.9638 H         1 UNK         0.0600 
    173 H173        5.5737  -18.1268  -49.6901 H         1 UNK         0.0600 
    174 H174        2.6245  -16.7796  -49.2338 H         1 UNK         0.3000 
    175 H175        1.1773  -19.3599  -48.7086 H         1 UNK         0.0600 
    176 H176        0.5420  -18.0906  -45.9916 H         1 UNK         0.0600 
    177 H177       -0.5976  -19.0574  -46.9299 H         1 UNK         0.0600 
    178 H178        0.8691  -19.7907  -46.3084 H         1 UNK         0.0600 
    179 H179        0.3645  -16.5766  -48.0266 H         1 UNK         0.3000 
    180 H180       -0.1651  -15.6940  -51.3917 H         1 UNK         0.0600 
    181 H181       -2.4665  -15.0947  -50.6042 H         1 UNK         0.0600 
    182 H182       -2.3309  -16.2574  -49.2873 H         1 UNK         0.0600 
    183 H183       -2.3451  -16.8080  -50.9569 H         1 UNK         0.0600 
    184 H184       -0.7377  -14.3638  -48.9326 H         1 UNK         0.3000 
    185 H185        2.5129  -13.3711  -48.0144 H         1 UNK         0.0600 
    186 H186        1.6523  -11.0579  -48.2507 H         1 UNK         0.0600 
    187 H187        2.0549  -11.7129  -49.8293 H         1 UNK         0.0600 
    188 H188        0.3708  -11.6138  -49.3287 H         1 UNK         0.0600 
    189 H189       -0.0227  -12.5408  -47.0644 H         1 UNK         0.3000 
    190 H190       -3.4908  -22.6937  -42.8844 H         1 UNK         0.3000 
    191 H191       -4.1926  -25.5129  -43.2859 H         1 UNK         0.0600 
    192 H192       -3.3637  -25.7480  -40.9523 H         1 UNK         0.0600 
    193 H193       -4.5543  -24.4637  -41.0887 H         1 UNK         0.0600 
    194 H194       -2.8456  -24.0686  -40.9537 H         1 UNK         0.0600 
    195 H195       -1.4272  -23.5445  -43.9601 H         1 UNK         0.3000 
    196 H196        0.4282  -25.8893  -44.0239 H         1 UNK         0.0600 
    197 H197        0.9223  -22.8714  -43.9857 H         1 UNK         0.0600 
    198 H198        1.4026  -24.0782  -42.7910 H         1 UNK         0.0600 
    199 H199        2.1681  -24.0552  -44.3637 H         1 UNK         0.0600 
    200 H200       -0.4786  -22.9892  -45.9781 H         1 UNK         0.3000 
    201 H201        0.8038  -24.0916  -48.3439 H         1 UNK         0.0600 
    202 H202        0.9623  -21.7110  -47.8590 H         1 UNK         0.0600 
    203 H203       -0.7914  -21.5374  -47.8338 H         1 UNK         0.0600 
    204 H204        0.0446  -21.9032  -49.3438 H         1 UNK         0.0600 
    205 H205       -2.5304  -23.6721  -47.2499 H         1 UNK         0.3000 
    206 H206       -4.5573  -24.1466  -48.0783 H         1 UNK         0.0600 
    207 H207       -3.7592  -26.3590  -47.3378 H         1 UNK         0.0600 
    208 H208       -4.8025  -26.5561  -48.7315 H         1 UNK         0.0600 
    209 H209       -3.0503  -26.6907  -48.9109 H         1 UNK         0.0600 
    210 H210       -3.8177  -26.1357  -50.7136 H         1 UNK         0.3000 
    211 H211       -5.2306  -24.6270  -52.6105 H         1 UNK         0.0600 
    212 H212       -4.3791  -26.3489  -54.2115 H         1 UNK         0.0600 
    213 H213       -4.9653  -27.0831  -52.7280 H         1 UNK         0.0600 
    214 H214       -3.2308  -26.9142  -53.0039 H         1 UNK         0.0600 
    215 H215       -1.7701  -24.5280  -51.7996 H         1 UNK         0.3000 
    216 H216       -0.9084  -23.2260  -54.2277 H         1 UNK         0.0600 
    217 H217        0.4170  -23.2696  -51.4649 H         1 UNK         0.0600 
    218 H218        1.1793  -22.8241  -52.9830 H         1 UNK         0.0600 
    219 H219        0.6519  -24.4805  -52.7246 H         1 UNK         0.0600 
    220 H220       -2.0959  -22.0888  -51.0607 H         1 UNK         0.3000 
    221 H221       -1.6270  -19.2720  -51.6431 H         1 UNK         0.0600 
    222 H222       -1.5555  -19.9395  -49.3209 H         1 UNK         0.0600 
    223 H223       -3.1561  -20.6839  -49.4040 H         1 UNK         0.0600 
    224 H224       -2.9673  -18.9344  -49.5332 H         1 UNK         0.0600 
    225 H225       -4.4000  -21.5247  -51.7882 H         1 UNK         0.3000 
    226 H226       -6.3642  -19.6596  -52.6129 H         1 UNK         0.0600 
    227 H227       -6.1481  -22.6203  -53.3631 H         1 UNK         0.0600 
    228 H228       -6.8342  -22.0102  -51.8569 H         1 UNK         0.0600 
    229 H229       -7.6030  -21.6378  -53.3937 H         1 UNK         0.0600 
    230 H230       -4.0078  -21.5573  -54.5502 H         1 UNK         0.3000 
    231 H231       -4.7911  -20.5661  -57.1064 H         1 UNK         0.0600 
    232 H232       -2.1247  -21.7304  -56.1468 H         1 UNK         0.0600 
    233 H233       -2.5815  -21.4866  -57.8284 H         1 UNK         0.0600 
    234 H234       -3.4701  -22.6338  -56.8380 H         1 UNK         0.0600 
    235 H235       -2.2826  -19.4432  -54.7709 H         1 UNK         0.3000 
    236 H236       -1.1632  -17.4010  -56.3294 H         1 UNK         0.0600 
    237 H237       -1.4385  -17.5344  -53.2811 H         1 UNK         0.0600 
    238 H238       -0.1448  -18.2655  -54.2295 H         1 UNK         0.0600 
    239 H239       -0.3124  -16.5190  -54.1658 H         1 UNK         0.0600 
    240 H240       -4.0851  -17.3168  -54.3047 H         1 UNK         0.3000 
    241 H241       -4.6131  -14.5019  -54.7384 H         1 UNK         0.0600 
    242 H242       -6.0377  -16.2214  -58.0591 H         1 UNK         0.3800 
    243 H243       -4.7907  -16.9794  -57.1038 H         1 UNK         0.3800 
    244 H244       -6.4441  -16.7118  -53.7117 H         1 UNK         0.0800 
    245 H245       -6.8531  -15.0109  -53.7163 H         1 UNK         0.0800 
    246 H246       -7.2717  -15.9315  -50.9136 H         1 UNK         0.0800 
    247 H247       -6.4694  -17.4038  -51.4201 H         1 UNK         0.0800 
@<TRIPOS>BOND
     1    1    2 1    
     2    1  127 1    
     3    1  128 1    
     4    1  129 1    
     5    2    3 2    
     6    2    4 am   BACKBONE|DICT|INTERRES
     7    4    5 1    
     8    4  130 1    
     9    5    6 1    
    10    5   65 1    
    11    5  131 1    
    12    6    7 1    
    13    6  132 1    
    14    6  133 1    
    15    7    8 1    
    16    8    9 1    
    17    8  134 1    
    18    8  135 1    
    19    9   10 ar   
    20    9   14 ar   
    21   10   11 ar   
    22   10  136 1    
    23   11   12 ar   
    24   11  126 1    
    25   12   13 ar   
    26   12  137 1    
    27   13   14 ar   
    28   13   15 1    
    29   14  138 1    
    30   15   16 1    
    31   15  139 1    
    32   15  140 1    
    33   16   17 1    
    34   17   18 1    
    35   17  141 1    
    36   17  142 1    
    37   18   19 1    
    38   18   67 1    
    39   18  143 1    
    40   19   20 am   BACKBONE|DICT|INTERRES
    41   19  144 1    
    42   20   21 2    
    43   20   22 1    
    44   22   23 1    
    45   22   24 1    
    46   22  145 1    
    47   23  146 1    
    48   23  147 1    
    49   23  148 1    
    50   24   25 am   BACKBONE|DICT|INTERRES
    51   24  149 1    
    52   25   26 2    
    53   25   27 1    
    54   27   28 1    
    55   27   29 1    
    56   27  150 1    
    57   28  151 1    
    58   28  152 1    
    59   28  153 1    
    60   29   30 am   BACKBONE|DICT|INTERRES
    61   29  154 1    
    62   30   31 2    
    63   30   32 1    
    64   32   33 1    
    65   32   34 1    
    66   32  155 1    
    67   33  156 1    
    68   33  157 1    
    69   33  158 1    
    70   34   35 am   BACKBONE|DICT|INTERRES
    71   34  159 1    
    72   35   36 2    
    73   35   37 1    
    74   37   38 1    
    75   37   39 1    
    76   37  160 1    
    77   38  161 1    
    78   38  162 1    
    79   38  163 1    
    80   39   40 am   BACKBONE|DICT|INTERRES
    81   39  164 1    
    82   40   41 2    
    83   40   42 1    
    84   42   43 1    
    85   42   44 1    
    86   42  165 1    
    87   43  166 1    
    88   43  167 1    
    89   43  168 1    
    90   44   45 am   BACKBONE|DICT|INTERRES
    91   44  169 1    
    92   45   46 2    
    93   45   47 1    
    94   47   48 1    
    95   47   49 1    
    96   47  170 1    
    97   48  171 1    
    98   48  172 1    
    99   48  173 1    
   100   49   50 am   BACKBONE|DICT|INTERRES
   101   49  174 1    
   102   50   51 2    
   103   50   52 1    
   104   52   53 1    
   105   52   54 1    
   106   52  175 1    
   107   53  176 1    
   108   53  177 1    
   109   53  178 1    
   110   54   55 am   BACKBONE|DICT|INTERRES
   111   54  179 1    
   112   55   56 2    
   113   55   57 1    
   114   57   58 1    
   115   57   59 1    
   116   57  180 1    
   117   58  181 1    
   118   58  182 1    
   119   58  183 1    
   120   59   60 am   BACKBONE|DICT|INTERRES
   121   59  184 1    
   122   60   61 2    
   123   60   62 1    
   124   62   63 1    
   125   62   64 1    
   126   62  185 1    
   127   63  186 1    
   128   63  187 1    
   129   63  188 1    
   130   64   65 am   BACKBONE|DICT|INTERRES
   131   64  189 1    
   132   65   66 2    
   133   67   68 2    
   134   67   69 am   BACKBONE|DICT|INTERRES
   135   69   70 1    
   136   69  190 1    
   137   70   71 1    
   138   70   72 1    
   139   70  191 1    
   140   71  192 1    
   141   71  193 1    
   142   71  194 1    
   143   72   73 2    
   144   72   74 am   BACKBONE|DICT|INTERRES
   145   74   75 1    
   146   74  195 1    
   147   75   76 1    
   148   75   77 1    
   149   75  196 1    
   150   76  197 1    
   151   76  198 1    
   152   76  199 1    
   153   77   78 2    
   154   77   79 am   BACKBONE|DICT|INTERRES
   155   79   80 1    
   156   79  200 1    
   157   80   81 1    
   158   80   82 1    
   159   80  201 1    
   160   81  202 1    
   161   81  203 1    
   162   81  204 1    
   163   82   83 2    
   164   82   84 am   BACKBONE|DICT|INTERRES
   165   84   85 1    
   166   84  205 1    
   167   85   86 1    
   168   85   87 1    
   169   85  206 1    
   170   86  207 1    
   171   86  208 1    
   172   86  209 1    
   173   87   88 2    
   174   87   89 am   BACKBONE|DICT|INTERRES
   175   89   90 1    
   176   89  210 1    
   177   90   91 1    
   178   90   92 1    
   179   90  211 1    
   180   91  212 1    
   181   91  213 1    
   182   91  214 1    
   183   92   93 2    
   184   92   94 am   BACKBONE|DICT|INTERRES
   185   94   95 1    
   186   94  215 1    
   187   95   96 1    
   188   95   97 1    
   189   95  216 1    
   190   96  217 1    
   191   96  218 1    
   192   96  219 1    
   193   97   98 2    
   194   97   99 am   BACKBONE|DICT|INTERRES
   195   99  100 1    
   196   99  220 1    
   197  100  101 1    
   198  100  102 1    
   199  100  221 1    
   200  101  222 1    
   201  101  223 1    
   202  101  224 1    
   203  102  103 2    
   204  102  104 am   BACKBONE|DICT|INTERRES
   205  104  105 1    
   206  104  225 1    
   207  105  106 1    
   208  105  107 1    
   209  105  226 1    
   210  106  227 1    
   211  106  228 1    
   212  106  229 1    
   213  107  108 2    
   214  107  109 am   BACKBONE|DICT|INTERRES
   215  109  110 1    
   216  109  230 1    
   217  110  111 1    
   218  110  112 1    
   219  110  231 1    
   220  111  232 1    
   221  111  233 1    
   222  111  234 1    
   223  112  113 2    
   224  112  114 am   BACKBONE|DICT|INTERRES
   225  114  115 1    
   226  114  235 1    
   227  115  116 1    
   228  115  117 1    
   229  115  236 1    
   230  116  237 1    
   231  116  238 1    
   232  116  239 1    
   233  117  118 2    
   234  117  119 am   BACKBONE|DICT|INTERRES
   235  119  120 1    
   236  119  240 1    
   237  120  121 1    
   238  120  124 1    
   239  120  241 1    
   240  121  122 am   BACKBONE|DICT|INTERRES
   241  121  123 2    
   242  122  242 1    
   243  122  243 1    
   244  124  125 1    
   245  124  244 1    
   246  124  245 1    
   247  125  126 1    
   248  126  246 1    
   249  126  247 1    
@<TRIPOS>SUBSTRUCTURE
     1 UNK         1 GROUP             0       ****    0 ROOT    
