@<TRIPOS>MOLECULE
3R540
247   249    1
SMALL
USER_CHARGES


@<TRIPOS>ATOM
      1 CA         -3.1664  -17.5567  -42.8039 C.3       0 UNK        -0.1800 
      2 C          -3.8193  -16.3088  -43.3805 C.2       0 UNK         0.5000 
      3 O          -4.6481  -15.6928  -42.7095 O.2       0 UNK        -0.5000 
      4 N          -3.4484  -15.9308  -44.6118 N.am      1 UNK        -0.5000 
      5 CA         -3.8404  -14.6621  -45.2354 C.3       1 UNK         0.1400 
      6 C6         -3.9430  -14.7673  -46.7819 C.3       23 UNK        -0.0398 
      7 S7         -2.3621  -15.0040  -47.6624 S.3       23 UNK        -0.2404 
      8 C8         -2.6873  -16.5068  -48.6363 C.3       23 UNK        -0.0205 
      9 C9         -1.4828  -16.8615  -49.4952 C.ar      23 UNK        -0.0193 
     10 C10        -1.3839  -16.3680  -50.7983 C.ar      23 UNK        -0.1150 
     11 C11        -0.2554  -16.6375  -51.5827 C.ar      23 UNK        -0.0193 
     12 C12         0.7807  -17.4029  -51.0376 C.ar      23 UNK        -0.1150 
     13 C13         0.7041  -17.8963  -49.7314 C.ar      23 UNK        -0.0193 
     14 C14        -0.4438  -17.6382  -48.9749 C.ar      23 UNK        -0.1150 
     15 C15         1.9117  -18.6147  -49.1303 C.3       23 UNK        -0.0205 
     16 S16         1.5073  -20.0117  -48.0318 S.3       23 UNK        -0.2404 
     17 C17         0.9028  -21.2456  -49.2337 C.3       23 UNK        -0.0398 
     18 CA         -0.1189  -22.2460  -48.6423 C.3       11 UNK         0.1400 
     19 N           0.4125  -22.9786  -47.4888 N.am      11 UNK        -0.5000 
     20 C          -0.2093  -23.9844  -46.8576 C.2       10 UNK         0.5000 
     21 O          -1.2951  -24.4475  -47.2103 O.2       10 UNK        -0.5000 
     22 CA          0.4592  -24.5287  -45.5815 C.3       10 UNK         0.1400 
     23 CB          1.3221  -25.7539  -45.9143 C.3       10 UNK        -0.1800 
     24 N           1.2697  -23.5492  -44.8465 N.am      10 UNK        -0.5000 
     25 C           0.8279  -22.3810  -44.3606 C.2       9 UNK         0.5000 
     26 O          -0.3072  -21.9412  -44.5631 O.2       9 UNK        -0.5000 
     27 CA          1.8362  -21.5510  -43.5526 C.3       9 UNK         0.1400 
     28 CB          2.6434  -20.6373  -44.4835 C.3       9 UNK        -0.1800 
     29 N           1.1355  -20.7301  -42.5686 N.am      9 UNK        -0.5000 
     30 C           0.7928  -21.1455  -41.3422 C.2       8 UNK         0.5000 
     31 O           1.1069  -22.2505  -40.8954 O.2       8 UNK        -0.5000 
     32 CA         -0.0597  -20.1913  -40.4736 C.3       8 UNK         0.1400 
     33 CB          0.2651  -20.3079  -38.9694 C.3       8 UNK        -0.1800 
     34 N          -0.0363  -18.7889  -40.9070 N.am      8 UNK        -0.5000 
     35 C           1.0114  -17.9517  -40.9310 C.2       7 UNK         0.5000 
     36 O           2.1460  -18.2409  -40.5469 O.2       7 UNK        -0.5000 
     37 CA          0.7331  -16.5575  -41.5295 C.3       7 UNK         0.1400 
     38 CB          1.3450  -15.4396  -40.6693 C.3       7 UNK        -0.1800 
     39 N           1.2231  -16.4137  -42.9002 N.am      7 UNK        -0.5000 
     40 C           0.9646  -17.2239  -43.9364 C.2       6 UNK         0.5000 
     41 O           0.2833  -18.2460  -43.8620 O.2       6 UNK        -0.5000 
     42 CA          1.5302  -16.8086  -45.3016 C.3       6 UNK         0.1400 
     43 CB          0.4650  -16.0216  -46.0683 C.3       6 UNK        -0.1800 
     44 N           2.7343  -15.9881  -45.1908 N.am      6 UNK        -0.5000 
     45 C           3.9832  -16.4720  -45.1600 C.2       5 UNK         0.5000 
     46 O           4.2532  -17.6713  -45.2143 O.2       5 UNK        -0.5000 
     47 CA          5.1325  -15.4480  -45.0749 C.3       5 UNK         0.1400 
     48 CB          5.7282  -15.1994  -46.4695 C.3       5 UNK        -0.1800 
     49 N           4.7169  -14.1658  -44.5054 N.am      5 UNK        -0.5000 
     50 C           4.5026  -13.9476  -43.2011 C.2       4 UNK         0.5000 
     51 O           4.6906  -14.7917  -42.3255 O.2       4 UNK        -0.5000 
     52 CA          3.9563  -12.5589  -42.8159 C.3       4 UNK         0.1400 
     53 CB          5.1092  -11.5988  -42.4862 C.3       4 UNK        -0.1800 
     54 N           3.1031  -11.9534  -43.8459 N.am      4 UNK        -0.5000 
     55 C           1.9306  -12.4582  -44.2497 C.2       3 UNK         0.5000 
     56 O           1.4728  -13.5260  -43.8377 O.2       3 UNK        -0.5000 
     57 CA          1.1616  -11.6641  -45.3123 C.3       3 UNK         0.1400 
     58 CB          1.4356  -12.2117  -46.7234 C.3       3 UNK        -0.1800 
     59 N          -0.2615  -11.7440  -45.0057 N.am      3 UNK        -0.5000 
     60 C          -1.1818  -10.8289  -45.3206 C.2       2 UNK         0.5000 
     61 O          -0.9429   -9.8476  -46.0278 O.2       2 UNK        -0.5000 
     62 CA         -2.5959  -11.0340  -44.7283 C.3       2 UNK         0.1400 
     63 CB         -3.5422   -9.8591  -45.0379 C.3       2 UNK        -0.1800 
     64 N          -3.2455  -12.2750  -45.1591 N.am      2 UNK        -0.5000 
     65 C          -2.9362  -13.5073  -44.7358 C.2       1 UNK         0.5000 
     66 O          -1.9987  -13.7368  -43.9654 O.2       1 UNK        -0.5000 
     67 C          -1.4796  -21.5719  -48.3558 C.2       11 UNK         0.5000 
     68 O          -2.3245  -21.5172  -49.2485 O.2       11 UNK        -0.5000 
     69 N          -1.6774  -21.1135  -47.1137 N.am      12 UNK        -0.5000 
     70 CA         -2.9222  -20.5272  -46.6343 C.3       12 UNK         0.1400 
     71 CB         -2.5893  -19.3143  -45.7549 C.3       12 UNK        -0.1800 
     72 C          -3.7367  -21.5500  -45.8280 C.2       12 UNK         0.5000 
     73 O          -4.9486  -21.6432  -46.0159 O.2       12 UNK        -0.5000 
     74 N          -3.0643  -22.2822  -44.9301 N.am      13 UNK        -0.5000 
     75 CA         -3.6921  -23.1462  -43.9315 C.3       13 UNK         0.1400 
     76 CB         -2.6688  -23.4640  -42.8297 C.3       13 UNK        -0.1800 
     77 C          -4.2957  -24.4431  -44.4987 C.2       13 UNK         0.5000 
     78 O          -5.2722  -24.9361  -43.9320 O.2       13 UNK        -0.5000 
     79 N          -3.7117  -24.9793  -45.5785 N.am      14 UNK        -0.5000 
     80 CA         -4.1319  -26.2372  -46.1981 C.3       14 UNK         0.1400 
     81 CB         -2.9945  -27.2673  -46.0909 C.3       14 UNK        -0.1800 
     82 C          -4.5483  -26.0271  -47.6598 C.2       14 UNK         0.5000 
     83 O          -5.6198  -26.4868  -48.0562 O.2       14 UNK        -0.5000 
     84 N          -3.7014  -25.3407  -48.4379 N.am      15 UNK        -0.5000 
     85 CA         -3.8939  -25.1326  -49.8753 C.3       15 UNK         0.1400 
     86 CB         -2.5237  -24.8912  -50.5186 C.3       15 UNK        -0.1800 
     87 C          -4.8708  -23.9883  -50.2144 C.2       15 UNK         0.5000 
     88 O          -5.3121  -23.8987  -51.3624 O.2       15 UNK        -0.5000 
     89 N          -5.1853  -23.1408  -49.2217 N.am      16 UNK        -0.5000 
     90 CA         -6.1576  -22.0414  -49.2650 C.3       16 UNK         0.1400 
     91 CB         -7.5902  -22.6125  -49.2986 C.3       16 UNK        -0.1800 
     92 C          -5.8986  -21.0193  -50.3921 C.2       16 UNK         0.5000 
     93 O          -6.8482  -20.5223  -51.0006 O.2       16 UNK        -0.5000 
     94 N          -4.6151  -20.7557  -50.6793 N.am      17 UNK        -0.5000 
     95 CA         -4.0531  -19.9014  -51.7340 C.3       17 UNK         0.1400 
     96 CB         -4.5317  -18.4469  -51.5765 C.3       17 UNK        -0.1800 
     97 C          -4.2856  -20.4215  -53.1698 C.2       17 UNK         0.5000 
     98 O          -3.3861  -20.3148  -54.0046 O.2       17 UNK        -0.5000 
     99 N          -5.4676  -20.9901  -53.4331 N.am      18 UNK        -0.5000 
    100 CA        -5.9058  -21.5273  -54.7182 C.3       18 UNK         0.1400 
    101 CB        -7.3824  -21.9394  -54.6176 C.3       18 UNK        -0.1800 
    102 C         -5.0399  -22.6988  -55.2080 C.2       18 UNK         0.5000 
    103 O         -4.5262  -22.6436  -56.3259 O.2       18 UNK        -0.5000 
    104 N         -4.8479  -23.7179  -54.3566 N.am      19 UNK        -0.5000 
    105 CA        -4.0256  -24.8901  -54.6802 C.3       19 UNK         0.1400 
    106 CB        -4.4455  -26.0835  -53.8092 C.3       19 UNK        -0.1800 
    107 C         -2.5131  -24.6073  -54.5764 C.2       19 UNK         0.5000 
    108 O         -1.7155  -25.3832  -55.1029 O.2       19 UNK        -0.5000 
    109 N         -2.1468  -23.4836  -53.9421 N.am      20 UNK        -0.5000 
    110 CA        -0.7901  -22.9316  -53.9290 C.3       20 UNK         0.1400 
    111 CB        -0.6179  -22.0478  -52.6820 C.3       20 UNK        -0.1800 
    112 C         -0.4634  -22.1402  -55.2150 C.2       20 UNK         0.5000 
    113 O          0.6821  -21.7207  -55.3823 O.2       20 UNK        -0.5000 
    114 N         -1.4647  -21.9515  -56.0906 N.am      21 UNK        -0.5000 
    115 CA        -1.4211  -21.2362  -57.3678 C.3       21 UNK         0.1400 
    116 CB        -0.4686  -21.9324  -58.3631 C.3       21 UNK        -0.1800 
    117 C         -1.1446  -19.7276  -57.2076 C.2       21 UNK         0.5000 
    118 O         -0.4682  -19.1314  -58.0484 O.2       21 UNK        -0.5000 
    119 N         -1.6820  -19.1323  -56.1347 N.am      22 UNK        -0.5000 
    120 CA        -1.6618  -17.6856  -55.8890 C.3       22 UNK         0.1400 
    121 C         -2.5248  -16.9105  -56.9277 C.2       22 UNK         0.5000 
    122 N         -2.0213  -15.8123  -57.4746 N.am      22 UNK        -0.7600 
    123 O         -3.6591  -17.2839  -57.2197 O.2       22 UNK        -0.5000 
    124 C124       -2.0999  -17.3791  -54.4363 C.3       23 UNK        -0.0398 
    125 S125       -1.6217  -15.7061  -53.8915 S.3       23 UNK        -0.2404 
    126 C126       -0.0762  -16.0447  -52.9808 C.3       23 UNK        -0.0205 
    127 H127       -2.9626  -17.4185  -41.7422 H         1 UNK         0.0600 
    128 H128       -3.8259  -18.4170  -42.9168 H         1 UNK         0.0600 
    129 H129       -2.2226  -17.7733  -43.3004 H         1 UNK         0.0600 
    130 H130       -2.7279  -16.4445  -45.0960 H         1 UNK         0.3000 
    131 H131       -4.8464  -14.4176  -44.8873 H         1 UNK         0.0600 
    132 H132       -4.6218  -15.5820  -47.0377 H         1 UNK         0.0800 
    133 H133       -4.4136  -13.8712  -47.1885 H         1 UNK         0.0800 
    134 H134       -3.5599  -16.3360  -49.2677 H         1 UNK         0.0800 
    135 H135       -2.9398  -17.3359  -47.9761 H         1 UNK         0.0800 
    136 H136       -2.1779  -15.7452  -51.1837 H         1 UNK         0.1150 
    137 H137        1.6729  -17.5805  -51.6217 H         1 UNK         0.1150 
    138 H138       -0.5080  -18.0057  -47.9628 H         1 UNK         0.1150 
    139 H139        2.5761  -18.9746  -49.9175 H         1 UNK         0.0800 
    140 H140        2.4845  -17.8857  -48.5555 H         1 UNK         0.0800 
    141 H141        0.4716  -20.7344  -50.0965 H         1 UNK         0.0800 
    142 H142        1.7668  -21.7901  -49.6165 H         1 UNK         0.0800 
    143 H143       -0.2940  -22.9949  -49.4134 H         1 UNK         0.0600 
    144 H144        1.2866  -22.6418  -47.1127 H         1 UNK         0.3000 
    145 H145       -0.3428  -24.8533  -44.9164 H         1 UNK         0.0600 
    146 H146        1.7134  -26.2192  -45.0095 H         1 UNK         0.0600 
    147 H147        0.7392  -26.5116  -46.4403 H         1 UNK         0.0600 
    148 H148        2.1678  -25.4897  -46.5504 H         1 UNK         0.0600 
    149 H149        2.2225  -23.8226  -44.6530 H         1 UNK         0.3000 
    150 H150        2.5288  -22.2242  -43.0431 H         1 UNK         0.0600 
    151 H151        3.2322  -21.2180  -45.1943 H         1 UNK         0.0600 
    152 H152        3.3360  -20.0120  -43.9200 H         1 UNK         0.0600 
    153 H153        1.9939  -19.9795  -45.0597 H         1 UNK         0.0600 
    154 H154        0.7824  -19.8379  -42.9045 H         1 UNK         0.3000 
    155 H155       -1.0905  -20.5222  -40.6077 H         1 UNK         0.0600 
    156 H156       -0.3576  -19.6369  -38.3777 H         1 UNK         0.0600 
    157 H157        1.3084  -20.0705  -38.7601 H         1 UNK         0.0600 
    158 H158        0.0830  -21.3199  -38.6059 H         1 UNK         0.0600 
    159 H159       -0.9029  -18.4583  -41.3053 H         1 UNK         0.3000 
    160 H160       -0.3468  -16.3995  -41.5558 H         1 UNK         0.0600 
    161 H161        2.4344  -15.4928  -40.6558 H         1 UNK         0.0600 
    162 H162        0.9985  -15.5057  -39.6373 H         1 UNK         0.0600 
    163 H163        1.0642  -14.4552  -41.0453 H         1 UNK         0.0600 
    164 H164        1.7362  -15.5637  -43.0943 H         1 UNK         0.3000 
    165 H165        1.7516  -17.7158  -45.8670 H         1 UNK         0.0600 
    166 H166        0.1942  -15.0960  -45.5602 H         1 UNK         0.0600 
    167 H167        0.8001  -15.7719  -47.0750 H         1 UNK         0.0600 
    168 H168       -0.4469  -16.6100  -46.1590 H         1 UNK         0.0600 
    169 H169        2.5904  -14.9935  -45.0841 H         1 UNK         0.3000 
    170 H170        5.9124  -15.8772  -44.4421 H         1 UNK         0.0600 
    171 H171        6.0767  -16.1312  -46.9171 H         1 UNK         0.0600 
    172 H172        4.9949  -14.7633  -47.1491 H         1 UNK         0.0600 
    173 H173        6.5834  -14.5252  -46.4190 H         1 UNK         0.0600 
    174 H174        4.5500  -13.4102  -45.1534 H         1 UNK         0.3000 
    175 H175        3.3511  -12.6865  -41.9157 H         1 UNK         0.0600 
    176 H176        5.7363  -11.4076  -43.3579 H         1 UNK         0.0600 
    177 H177        4.7344  -10.6411  -42.1244 H         1 UNK         0.0600 
    178 H178        5.7496  -12.0110  -41.7051 H         1 UNK         0.0600 
    179 H179        3.4232  -11.0784  -44.2362 H         1 UNK         0.3000 
    180 H180        1.4819  -10.6212  -45.2624 H         1 UNK         0.0600 
    181 H181        1.0912  -13.2399  -46.8314 H         1 UNK         0.0600 
    182 H182        2.5018  -12.1944  -46.9520 H         1 UNK         0.0600 
    183 H183        0.9316  -11.6132  -47.4823 H         1 UNK         0.0600 
    184 H184       -0.5406  -12.5442  -44.4402 H         1 UNK         0.3000 
    185 H185       -2.4758  -11.0740  -43.6435 H         1 UNK         0.0600 
    186 H186       -3.7292   -9.7633  -46.1082 H         1 UNK         0.0600 
    187 H187       -4.5035   -9.9842  -44.5390 H         1 UNK         0.0600 
    188 H188       -3.1215   -8.9143  -44.6910 H         1 UNK         0.0600 
    189 H189       -4.0072  -12.1613  -45.8113 H         1 UNK         0.3000 
    190 H190       -0.9448  -21.2403  -46.4247 H         1 UNK         0.3000 
    191 H191       -3.5307  -20.1831  -47.4736 H         1 UNK         0.0600 
    192 H192       -3.5012  -18.8031  -45.4467 H         1 UNK         0.0600 
    193 H193       -1.9695  -18.5938  -46.2841 H         1 UNK         0.0600 
    194 H194       -2.0468  -19.6069  -44.8548 H         1 UNK         0.0600 
    195 H195       -2.0616  -22.1358  -44.8274 H         1 UNK         0.3000 
    196 H196       -4.5084  -22.5839  -43.4730 H         1 UNK         0.0600 
    197 H197       -3.1208  -24.0594  -42.0355 H         1 UNK         0.0600 
    198 H198       -2.2837  -22.5519  -42.3732 H         1 UNK         0.0600 
    199 H199       -1.8198  -24.0263  -43.2179 H         1 UNK         0.0600 
    200 H200       -2.9190  -24.5090  -46.0000 H         1 UNK         0.3000 
    201 H201       -4.9985  -26.6537  -45.6806 H         1 UNK         0.0600 
    202 H202       -2.7422  -27.4644  -45.0489 H         1 UNK         0.0600 
    203 H203       -2.0878  -26.9320  -46.5947 H         1 UNK         0.0600 
    204 H204       -3.2861  -28.2176  -46.5399 H         1 UNK         0.0600 
    205 H205       -2.8226  -25.0117  -48.0436 H         1 UNK         0.3000 
    206 H206       -4.3067  -26.0480  -50.3041 H         1 UNK         0.0600 
    207 H207       -1.8181  -25.6839  -50.2695 H         1 UNK         0.0600 
    208 H208       -2.5960  -24.8499  -51.6026 H         1 UNK         0.0600 
    209 H209       -2.1024  -23.9473  -50.1893 H         1 UNK         0.0600 
    210 H210       -4.7417  -23.2942  -48.3279 H         1 UNK         0.3000 
    211 H211       -6.0479  -21.4865  -48.3345 H         1 UNK         0.0600 
    212 H212       -7.7914  -23.1409  -50.2312 H         1 UNK         0.0600 
    213 H213       -8.3329  -21.8196  -49.2029 H         1 UNK         0.0600 
    214 H214       -7.7548  -23.3093  -48.4766 H         1 UNK         0.0600 
    215 H215       -3.9051  -21.2241  -50.1180 H         1 UNK         0.3000 
    216 H216       -2.9753  -19.9079  -51.5651 H         1 UNK         0.0600 
    217 H217       -5.5713  -18.3229  -51.8812 H         1 UNK         0.0600 
    218 H218       -3.9301  -17.7680  -52.1786 H         1 UNK         0.0600 
    219 H219       -4.4467  -18.1186  -50.5418 H         1 UNK         0.0600 
    220 H220       -6.1441  -21.0058  -52.6750 H         1 UNK         0.3000 
    221 H221       -5.8255  -20.7255  -55.4551 H         1 UNK         0.0600 
    222 H222       -7.5384  -22.6991  -53.8503 H         1 UNK         0.0600 
    223 H223       -8.0127  -21.0844  -54.3722 H         1 UNK         0.0600 
    224 H224       -7.7412  -22.3467  -55.5637 H         1 UNK         0.0600 
    225 H225       -5.2516  -23.6835  -53.4249 H         1 UNK         0.3000 
    226 H226       -4.2204  -25.1688  -55.7182 H         1 UNK         0.0600 
    227 H227       -5.5004  -26.3193  -53.9497 H         1 UNK         0.0600 
    228 H228       -3.8763  -26.9764  -54.0702 H         1 UNK         0.0600 
    229 H229       -4.2865  -25.8951  -52.7507 H         1 UNK         0.0600 
    230 H230       -2.8739  -22.8994  -53.5558 H         1 UNK         0.3000 
    231 H231       -0.0755  -23.7543  -53.8597 H         1 UNK         0.0600 
    232 H232       -1.2310  -21.1493  -52.7317 H         1 UNK         0.0600 
    233 H233       -0.8841  -22.5864  -51.7740 H         1 UNK         0.0600 
    234 H234        0.4184  -21.7251  -52.5759 H         1 UNK         0.0600 
    235 H235       -2.3774  -22.3130  -55.8448 H         1 UNK         0.3000 
    236 H236       -2.4279  -21.3082  -57.7816 H         1 UNK         0.0600 
    237 H237       -0.7013  -22.9933  -58.4545 H         1 UNK         0.0600 
    238 H238       -0.5570  -21.4954  -59.3583 H         1 UNK         0.0600 
    239 H239        0.5747  -21.8418  -58.0596 H         1 UNK         0.0600 
    240 H240       -2.2438  -19.6850  -55.4937 H         1 UNK         0.3000 
    241 H241       -0.6229  -17.3679  -55.9994 H         1 UNK         0.0600 
    242 H242       -1.1000  -15.4798  -57.2351 H         1 UNK         0.3800 
    243 H243       -2.5755  -15.2967  -58.1406 H         1 UNK         0.3800 
    244 H244       -3.1808  -17.4861  -54.3368 H         1 UNK         0.0800 
    245 H245       -1.6628  -18.1026  -53.7461 H         1 UNK         0.0800 
    246 H246        0.4686  -15.1056  -52.8775 H         1 UNK         0.0800 
    247 H247        0.5515  -16.6973  -53.5899 H         1 UNK         0.0800 
@<TRIPOS>BOND
     1    1    2 1    
     2    1  127 1    
     3    1  128 1    
     4    1  129 1    
     5    2    3 2    
     6    2    4 am   BACKBONE|DICT|INTERRES
     7    4    5 1    
     8    4  130 1    
     9    5    6 1    
    10    5   65 1    
    11    5  131 1    
    12    6    7 1    
    13    6  132 1    
    14    6  133 1    
    15    7    8 1    
    16    8    9 1    
    17    8  134 1    
    18    8  135 1    
    19    9   10 ar   
    20    9   14 ar   
    21   10   11 ar   
    22   10  136 1    
    23   11   12 ar   
    24   11  126 1    
    25   12   13 ar   
    26   12  137 1    
    27   13   14 ar   
    28   13   15 1    
    29   14  138 1    
    30   15   16 1    
    31   15  139 1    
    32   15  140 1    
    33   16   17 1    
    34   17   18 1    
    35   17  141 1    
    36   17  142 1    
    37   18   19 1    
    38   18   67 1    
    39   18  143 1    
    40   19   20 am   BACKBONE|DICT|INTERRES
    41   19  144 1    
    42   20   21 2    
    43   20   22 1    
    44   22   23 1    
    45   22   24 1    
    46   22  145 1    
    47   23  146 1    
    48   23  147 1    
    49   23  148 1    
    50   24   25 am   BACKBONE|DICT|INTERRES
    51   24  149 1    
    52   25   26 2    
    53   25   27 1    
    54   27   28 1    
    55   27   29 1    
    56   27  150 1    
    57   28  151 1    
    58   28  152 1    
    59   28  153 1    
    60   29   30 am   BACKBONE|DICT|INTERRES
    61   29  154 1    
    62   30   31 2    
    63   30   32 1    
    64   32   33 1    
    65   32   34 1    
    66   32  155 1    
    67   33  156 1    
    68   33  157 1    
    69   33  158 1    
    70   34   35 am   BACKBONE|DICT|INTERRES
    71   34  159 1    
    72   35   36 2    
    73   35   37 1    
    74   37   38 1    
    75   37   39 1    
    76   37  160 1    
    77   38  161 1    
    78   38  162 1    
    79   38  163 1    
    80   39   40 am   BACKBONE|DICT|INTERRES
    81   39  164 1    
    82   40   41 2    
    83   40   42 1    
    84   42   43 1    
    85   42   44 1    
    86   42  165 1    
    87   43  166 1    
    88   43  167 1    
    89   43  168 1    
    90   44   45 am   BACKBONE|DICT|INTERRES
    91   44  169 1    
    92   45   46 2    
    93   45   47 1    
    94   47   48 1    
    95   47   49 1    
    96   47  170 1    
    97   48  171 1    
    98   48  172 1    
    99   48  173 1    
   100   49   50 am   BACKBONE|DICT|INTERRES
   101   49  174 1    
   102   50   51 2    
   103   50   52 1    
   104   52   53 1    
   105   52   54 1    
   106   52  175 1    
   107   53  176 1    
   108   53  177 1    
   109   53  178 1    
   110   54   55 am   BACKBONE|DICT|INTERRES
   111   54  179 1    
   112   55   56 2    
   113   55   57 1    
   114   57   58 1    
   115   57   59 1    
   116   57  180 1    
   117   58  181 1    
   118   58  182 1    
   119   58  183 1    
   120   59   60 am   BACKBONE|DICT|INTERRES
   121   59  184 1    
   122   60   61 2    
   123   60   62 1    
   124   62   63 1    
   125   62   64 1    
   126   62  185 1    
   127   63  186 1    
   128   63  187 1    
   129   63  188 1    
   130   64   65 am   BACKBONE|DICT|INTERRES
   131   64  189 1    
   132   65   66 2    
   133   67   68 2    
   134   67   69 am   BACKBONE|DICT|INTERRES
   135   69   70 1    
   136   69  190 1    
   137   70   71 1    
   138   70   72 1    
   139   70  191 1    
   140   71  192 1    
   141   71  193 1    
   142   71  194 1    
   143   72   73 2    
   144   72   74 am   BACKBONE|DICT|INTERRES
   145   74   75 1    
   146   74  195 1    
   147   75   76 1    
   148   75   77 1    
   149   75  196 1    
   150   76  197 1    
   151   76  198 1    
   152   76  199 1    
   153   77   78 2    
   154   77   79 am   BACKBONE|DICT|INTERRES
   155   79   80 1    
   156   79  200 1    
   157   80   81 1    
   158   80   82 1    
   159   80  201 1    
   160   81  202 1    
   161   81  203 1    
   162   81  204 1    
   163   82   83 2    
   164   82   84 am   BACKBONE|DICT|INTERRES
   165   84   85 1    
   166   84  205 1    
   167   85   86 1    
   168   85   87 1    
   169   85  206 1    
   170   86  207 1    
   171   86  208 1    
   172   86  209 1    
   173   87   88 2    
   174   87   89 am   BACKBONE|DICT|INTERRES
   175   89   90 1    
   176   89  210 1    
   177   90   91 1    
   178   90   92 1    
   179   90  211 1    
   180   91  212 1    
   181   91  213 1    
   182   91  214 1    
   183   92   93 2    
   184   92   94 am   BACKBONE|DICT|INTERRES
   185   94   95 1    
   186   94  215 1    
   187   95   96 1    
   188   95   97 1    
   189   95  216 1    
   190   96  217 1    
   191   96  218 1    
   192   96  219 1    
   193   97   98 2    
   194   97   99 am   BACKBONE|DICT|INTERRES
   195   99  100 1    
   196   99  220 1    
   197  100  101 1    
   198  100  102 1    
   199  100  221 1    
   200  101  222 1    
   201  101  223 1    
   202  101  224 1    
   203  102  103 2    
   204  102  104 am   BACKBONE|DICT|INTERRES
   205  104  105 1    
   206  104  225 1    
   207  105  106 1    
   208  105  107 1    
   209  105  226 1    
   210  106  227 1    
   211  106  228 1    
   212  106  229 1    
   213  107  108 2    
   214  107  109 am   BACKBONE|DICT|INTERRES
   215  109  110 1    
   216  109  230 1    
   217  110  111 1    
   218  110  112 1    
   219  110  231 1    
   220  111  232 1    
   221  111  233 1    
   222  111  234 1    
   223  112  113 2    
   224  112  114 am   BACKBONE|DICT|INTERRES
   225  114  115 1    
   226  114  235 1    
   227  115  116 1    
   228  115  117 1    
   229  115  236 1    
   230  116  237 1    
   231  116  238 1    
   232  116  239 1    
   233  117  118 2    
   234  117  119 am   BACKBONE|DICT|INTERRES
   235  119  120 1    
   236  119  240 1    
   237  120  121 1    
   238  120  124 1    
   239  120  241 1    
   240  121  122 am   BACKBONE|DICT|INTERRES
   241  121  123 2    
   242  122  242 1    
   243  122  243 1    
   244  124  125 1    
   245  124  244 1    
   246  124  245 1    
   247  125  126 1    
   248  126  246 1    
   249  126  247 1    
@<TRIPOS>SUBSTRUCTURE
     1 UNK         1 GROUP             0       ****    0 ROOT    
