@<TRIPOS>MOLECULE
3R540
247   249    1
SMALL
USER_CHARGES


@<TRIPOS>ATOM
      1 CA          3.4448  -15.2088  -43.8233 C.3       0 UNK        -0.1800 
      2 C           2.4851  -14.4600  -44.7352 C.2       0 UNK         0.5000 
      3 O           1.6159  -13.7370  -44.2479 O.2       0 UNK        -0.5000 
      4 N           2.6421  -14.6187  -46.0576 N.am      1 UNK        -0.5000 
      5 CA          1.7676  -14.0498  -47.0938 C.3       1 UNK         0.1400 
      6 C6          2.1431  -14.5719  -48.5046 C.3       23 UNK        -0.0398 
      7 S7          0.7431  -14.5071  -49.6754 S.3       23 UNK        -0.2404 
      8 C8          0.0339  -16.1730  -49.4956 C.3       23 UNK        -0.0205 
      9 C9          0.6647  -17.1756  -50.4527 C.ar      23 UNK        -0.0193 
     10 C10         0.1198  -17.3666  -51.7258 C.ar      23 UNK        -0.1150 
     11 C11         0.6758  -18.3002  -52.6055 C.ar      23 UNK        -0.0193 
     12 C12         1.7898  -19.0437  -52.2064 C.ar      23 UNK        -0.1150 
     13 C13         2.3534  -18.8534  -50.9427 C.ar      23 UNK        -0.0193 
     14 C14         1.7811  -17.9235  -50.0681 C.ar      23 UNK        -0.1150 
     15 C15         3.6206  -19.5986  -50.5502 C.3       23 UNK        -0.0205 
     16 S16         3.4247  -20.5679  -49.0253 S.3       23 UNK        -0.2404 
     17 C17         2.8393  -22.1915  -49.6341 C.3       23 UNK        -0.0398 
     18 CA          1.7164  -22.8261  -48.7699 C.3       11 UNK         0.1400 
     19 N           1.9865  -22.7067  -47.3298 N.am      11 UNK        -0.5000 
     20 C           1.2743  -23.2536  -46.3379 C.2       10 UNK         0.5000 
     21 O           0.3142  -23.9977  -46.5267 O.2       10 UNK        -0.5000 
     22 CA          1.6405  -22.8579  -44.8963 C.3       10 UNK         0.1400 
     23 CB          2.7616  -23.7465  -44.3274 C.3       10 UNK        -0.1800 
     24 N           1.9268  -21.4278  -44.7309 N.am      10 UNK        -0.5000 
     25 C           2.9886  -20.7179  -45.1402 C.2       9 UNK         0.5000 
     26 O           3.9387  -21.1938  -45.7600 O.2       9 UNK        -0.5000 
     27 CA          2.9762  -19.2166  -44.7951 C.3       9 UNK         0.1400 
     28 CB          2.1171  -18.4392  -45.8057 C.3       9 UNK        -0.1800 
     29 N           2.4769  -18.9690  -43.4426 N.am      9 UNK        -0.5000 
     30 C           3.0928  -19.3649  -42.3183 C.2       8 UNK         0.5000 
     31 O           4.2107  -19.8806  -42.2906 O.2       8 UNK        -0.5000 
     32 CA          2.3103  -19.1859  -41.0069 C.3       8 UNK         0.1400 
     33 CB          2.5182  -17.7773  -40.4309 C.3       8 UNK        -0.1800 
     34 N           0.8817  -19.4390  -41.2026 N.am      8 UNK        -0.5000 
     35 C           0.3395  -20.6635  -41.2764 C.2       7 UNK         0.5000 
     36 O           0.9778  -21.7039  -41.1161 O.2       7 UNK        -0.5000 
     37 CA         -1.1655  -20.7487  -41.5935 C.3       7 UNK         0.1400 
     38 CB         -1.9877  -20.7917  -40.2970 C.3       7 UNK        -0.1800 
     39 N          -1.6414  -19.6421  -42.4244 N.am      7 UNK        -0.5000 
     40 C          -1.3686  -19.4970  -43.7275 C.2       6 UNK         0.5000 
     41 O          -0.7103  -20.3033  -44.3865 O.2       6 UNK        -0.5000 
     42 CA         -1.8916  -18.2148  -44.4017 C.3       6 UNK         0.1400 
     43 CB         -3.3047  -18.4408  -44.9617 C.3       6 UNK        -0.1800 
     44 N          -1.8870  -17.0286  -43.5417 N.am      6 UNK        -0.5000 
     45 C          -0.7998  -16.5198  -42.9479 C.2       5 UNK         0.5000 
     46 O           0.3142  -17.0446  -43.0029 O.2       5 UNK        -0.5000 
     47 CA         -0.9966  -15.1891  -42.2083 C.3       5 UNK         0.1400 
     48 CB          0.1250  -14.9017  -41.1954 C.3       5 UNK        -0.1800 
     49 N          -1.0275  -14.1095  -43.1857 N.am      5 UNK        -0.5000 
     50 C          -2.1239  -13.6226  -43.7800 C.2       4 UNK         0.5000 
     51 O          -3.2560  -14.0625  -43.5706 O.2       4 UNK        -0.5000 
     52 CA         -1.9122  -12.4599  -44.7774 C.3       4 UNK         0.1400 
     53 CB         -3.1579  -11.5632  -44.9308 C.3       4 UNK        -0.1800 
     54 N          -0.7178  -11.6590  -44.4816 N.am      4 UNK        -0.5000 
     55 C          -0.4582  -10.9499  -43.3703 C.2       3 UNK         0.5000 
     56 O          -1.2783  -10.7631  -42.4706 O.2       3 UNK        -0.5000 
     57 CA          0.9689  -10.3867  -43.2089 C.3       3 UNK         0.1400 
     58 CB          1.6375  -10.9728  -41.9533 C.3       3 UNK        -0.1800 
     59 N           1.8170  -10.6949  -44.3614 N.am      3 UNK        -0.5000 
     60 C           2.1000   -9.8504  -45.3617 C.2       2 UNK         0.5000 
     61 O           1.7198   -8.6797  -45.3973 O.2       2 UNK        -0.5000 
     62 CA          2.9377  -10.4088  -46.5316 C.3       2 UNK         0.1400 
     63 CB          4.4195  -10.0463  -46.3498 C.3       2 UNK        -0.1800 
     64 N           2.8225  -11.8604  -46.7044 N.am      2 UNK        -0.5000 
     65 C           1.6998  -12.5064  -47.0523 C.2       1 UNK         0.5000 
     66 O           0.6290  -11.9381  -47.2662 O.2       1 UNK        -0.5000 
     67 C           0.3237  -22.2916  -49.1665 C.2       11 UNK         0.5000 
     68 O          -0.3142  -22.8532  -50.0575 O.2       11 UNK        -0.5000 
     69 N          -0.1372  -21.2457  -48.4693 N.am      12 UNK        -0.5000 
     70 CA         -1.4787  -20.6935  -48.6111 C.3       12 UNK         0.1400 
     71 CB         -1.5130  -19.2960  -47.9930 C.3       12 UNK        -0.1800 
     72 C          -2.5451  -21.5973  -47.9738 C.2       12 UNK         0.5000 
     73 O          -3.5589  -21.8635  -48.6165 O.2       12 UNK        -0.5000 
     74 N          -2.2981  -22.0686  -46.7424 N.am      13 UNK        -0.5000 
     75 CA         -3.1987  -22.9597  -46.0014 C.3       13 UNK         0.1400 
     76 CB         -2.7144  -23.0971  -44.5515 C.3       13 UNK        -0.1800 
     77 C          -3.3637  -24.3439  -46.6568 C.2       13 UNK         0.5000 
     78 O          -4.4592  -24.9051  -46.6306 O.2       13 UNK        -0.5000 
     79 N          -2.2914  -24.8461  -47.2848 N.am      14 UNK        -0.5000 
     80 CA         -2.2862  -26.0548  -48.1139 C.3       14 UNK         0.1400 
     81 CB         -0.8367  -26.3965  -48.4902 C.3       14 UNK        -0.1800 
     82 C          -3.1539  -25.9270  -49.3835 C.2       14 UNK         0.5000 
     83 O          -3.5976  -26.9422  -49.9197 O.2       14 UNK        -0.5000 
     84 N          -3.4035  -24.6854  -49.8167 N.am      15 UNK        -0.5000 
     85 CA         -4.2763  -24.3118  -50.9247 C.3       15 UNK         0.1400 
     86 CB         -3.5023  -23.3484  -51.8360 C.3       15 UNK        -0.1800 
     87 C          -5.5862  -23.6868  -50.4003 C.2       15 UNK         0.5000 
     88 O          -6.1241  -22.7666  -51.0254 O.2       15 UNK        -0.5000 
     89 N          -6.0499  -24.1779  -49.2418 N.am      16 UNK        -0.5000 
     90 CA         -7.1913  -23.7432  -48.4312 C.3       16 UNK         0.1400 
     91 CB         -8.5124  -23.7646  -49.2262 C.3       16 UNK        -0.1800 
     92 C          -6.9486  -22.3900  -47.7401 C.2       16 UNK         0.5000 
     93 O          -6.9189  -22.3301  -46.5106 O.2       16 UNK        -0.5000 
     94 N          -6.7661  -21.3393  -48.5423 N.am      17 UNK        -0.5000 
     95 CA         -6.4692  -19.9727  -48.1211 C.3       17 UNK         0.1400 
     96 CB         -7.7154  -19.3124  -47.4940 C.3       17 UNK        -0.1800 
     97 C          -5.9225  -19.1989  -49.3311 C.2       17 UNK         0.5000 
     98 O          -6.4420  -18.1351  -49.6715 O.2       17 UNK        -0.5000 
     99 N          -4.9139  -19.7886  -49.9918 N.am      18 UNK        -0.5000 
    100 CA        -4.3000  -19.3413  -51.2499 C.3       18 UNK         0.1400 
    101 CB        -3.5406  -18.0117  -51.0516 C.3       18 UNK        -0.1800 
    102 C         -5.3074  -19.2964  -52.4216 C.2       18 UNK         0.5000 
    103 O         -5.2338  -18.4088  -53.2729 O.2       18 UNK        -0.5000 
    104 N         -6.2508  -20.2468  -52.4240 N.am      19 UNK        -0.5000 
    105 CA        -7.3488  -20.3302  -53.3820 C.3       19 UNK         0.1400 
    106 CB        -8.6373  -20.7108  -52.6348 C.3       19 UNK        -0.1800 
    107 C         -7.0369  -21.3531  -54.4814 C.2       19 UNK         0.5000 
    108 O         -7.2076  -21.0510  -55.6636 O.2       19 UNK        -0.5000 
    109 N         -6.5684  -22.5430  -54.0813 N.am      20 UNK        -0.5000 
    110 CA        -6.2511  -23.6570  -54.9760 C.3       20 UNK         0.1400 
    111 CB        -6.4114  -24.9801  -54.2096 C.3       20 UNK        -0.1800 
    112 C         -4.8564  -23.4943  -55.6137 C.2       20 UNK         0.5000 
    113 O         -3.9479  -24.2792  -55.3364 O.2       20 UNK        -0.5000 
    114 N         -4.7150  -22.4514  -56.4412 N.am      21 UNK        -0.5000 
    115 CA        -3.5714  -22.0658  -57.2806 C.3       21 UNK         0.1400 
    116 CB        -3.2378  -23.1701  -58.3018 C.3       21 UNK        -0.1800 
    117 C         -2.2999  -21.6106  -56.5344 C.2       21 UNK         0.5000 
    118 O         -1.6414  -20.6897  -57.0174 O.2       21 UNK        -0.5000 
    119 N         -1.9709  -22.2634  -55.4118 N.am      22 UNK        -0.5000 
    120 CA        -0.8420  -22.0611  -54.4741 C.3       22 UNK         0.1400 
    121 C          0.6108  -21.9780  -55.0388 C.2       22 UNK         0.5000 
    122 N          0.8284  -21.7983  -56.3321 N.am      22 UNK        -0.7600 
    123 O          1.5678  -22.1183  -54.2824 O.2       22 UNK        -0.5000 
    124 C124       -1.1122  -20.9814  -53.3880 C.3       23 UNK        -0.0398 
    125 S125       -1.5216  -19.3074  -53.9899 S.3       23 UNK        -0.2404 
    126 C126        0.0980  -18.4791  -54.0014 C.3       23 UNK        -0.0205 
    127 H127        2.8975  -15.9445  -43.2352 H         1 UNK         0.0600 
    128 H128        4.2172  -15.7320  -44.3871 H         1 UNK         0.0600 
    129 H129        3.9307  -14.5150  -43.1377 H         1 UNK         0.0600 
    130 H130        3.3949  -15.2034  -46.3910 H         1 UNK         0.3000 
    131 H131        0.7646  -14.4126  -46.8570 H         1 UNK         0.0600 
    132 H132        2.9804  -14.0106  -48.9234 H         1 UNK         0.0800 
    133 H133        2.4893  -15.6028  -48.4449 H         1 UNK         0.0800 
    134 H134       -1.0394  -16.1158  -49.6839 H         1 UNK         0.0800 
    135 H135        0.1403  -16.5077  -48.4627 H         1 UNK         0.0800 
    136 H136       -0.7381  -16.7866  -52.0355 H         1 UNK         0.1150 
    137 H137        2.2316  -19.7553  -52.8903 H         1 UNK         0.1150 
    138 H138        2.2151  -17.7801  -49.0901 H         1 UNK         0.1150 
    139 H139        3.9695  -20.2459  -51.3562 H         1 UNK         0.0800 
    140 H140        4.4107  -18.8639  -50.3899 H         1 UNK         0.0800 
    141 H141        3.7024  -22.8583  -49.6352 H         1 UNK         0.0800 
    142 H142        2.5332  -22.1131  -50.6795 H         1 UNK         0.0800 
    143 H143        1.7003  -23.8947  -48.9937 H         1 UNK         0.0600 
    144 H144        2.7681  -22.1111  -47.0719 H         1 UNK         0.3000 
    145 H145        0.7514  -23.0383  -44.2904 H         1 UNK         0.0600 
    146 H146        2.9877  -23.4794  -43.2949 H         1 UNK         0.0600 
    147 H147        2.4635  -24.7955  -44.3350 H         1 UNK         0.0600 
    148 H148        3.6826  -23.6682  -44.9053 H         1 UNK         0.0600 
    149 H149        1.1632  -20.9054  -44.3126 H         1 UNK         0.3000 
    150 H150        4.0008  -18.8438  -44.8529 H         1 UNK         0.0600 
    151 H151        2.5261  -18.5296  -46.8119 H         1 UNK         0.0600 
    152 H152        2.0798  -17.3789  -45.5617 H         1 UNK         0.0600 
    153 H153        1.0918  -18.8068  -45.8342 H         1 UNK         0.0600 
    154 H154        1.5919  -18.4780  -43.3598 H         1 UNK         0.3000 
    155 H155        2.6988  -19.9040  -40.2814 H         1 UNK         0.0600 
    156 H156        2.2054  -17.0035  -41.1303 H         1 UNK         0.0600 
    157 H157        3.5709  -17.6031  -40.2051 H         1 UNK         0.0600 
    158 H158        1.9595  -17.6411  -39.5050 H         1 UNK         0.0600 
    159 H159        0.3064  -18.6349  -41.4109 H         1 UNK         0.3000 
    160 H160       -1.3329  -21.6831  -42.1328 H         1 UNK         0.0600 
    161 H161       -3.0486  -20.9284  -40.5077 H         1 UNK         0.0600 
    162 H162       -1.8747  -19.8748  -39.7172 H         1 UNK         0.0600 
    163 H163       -1.6740  -21.6221  -39.6630 H         1 UNK         0.0600 
    164 H164       -2.1928  -18.9313  -41.9667 H         1 UNK         0.3000 
    165 H165       -1.2208  -17.9884  -45.2303 H         1 UNK         0.0600 
    166 H166       -3.3467  -19.3373  -45.5819 H         1 UNK         0.0600 
    167 H167       -4.0375  -18.5645  -44.1635 H         1 UNK         0.0600 
    168 H168       -3.6217  -17.6021  -45.5819 H         1 UNK         0.0600 
    169 H169       -2.7535  -16.5112  -43.4760 H         1 UNK         0.3000 
    170 H170       -1.9404  -15.2328  -41.6609 H         1 UNK         0.0600 
    171 H171        0.1835  -15.6897  -40.4440 H         1 UNK         0.0600 
    172 H172       -0.0543  -13.9638  -40.6695 H         1 UNK         0.0600 
    173 H173        1.1003  -14.8281  -41.6777 H         1 UNK         0.0600 
    174 H174       -0.1192  -13.7638  -43.4857 H         1 UNK         0.3000 
    175 H175       -1.7248  -12.9281  -45.7447 H         1 UNK         0.0600 
    176 H176       -2.9762  -10.7550  -45.6393 H         1 UNK         0.0600 
    177 H177       -4.0075  -12.1355  -45.3048 H         1 UNK         0.0600 
    178 H178       -3.4580  -11.1179  -43.9821 H         1 UNK         0.0600 
    179 H179        0.0184  -11.7262  -45.1729 H         1 UNK         0.3000 
    180 H180        0.8821   -9.3064  -43.0774 H         1 UNK         0.0600 
    181 H181        1.7161  -12.0594  -42.0086 H         1 UNK         0.0600 
    182 H182        1.0684  -10.7309  -41.0548 H         1 UNK         0.0600 
    183 H183        2.6416  -10.5706  -41.8175 H         1 UNK         0.0600 
    184 H184        2.1357  -11.6544  -44.4257 H         1 UNK         0.3000 
    185 H185        2.5785   -9.9330  -47.4465 H         1 UNK         0.0600 
    186 H186        4.8417  -10.5140  -45.4594 H         1 UNK         0.0600 
    187 H187        5.0118  -10.3616  -47.2090 H         1 UNK         0.0600 
    188 H188        4.5485   -8.9680  -46.2466 H         1 UNK         0.0600 
    189 H189        3.6515  -12.4055  -46.5169 H         1 UNK         0.3000 
    190 H190        0.4599  -20.8405  -47.7647 H         1 UNK         0.3000 
    191 H191       -1.7094  -20.5995  -49.6747 H         1 UNK         0.0600 
    192 H192       -0.8819  -18.6154  -48.5575 H         1 UNK         0.0600 
    193 H193       -1.1464  -19.3177  -46.9705 H         1 UNK         0.0600 
    194 H194       -2.5223  -18.8824  -47.9851 H         1 UNK         0.0600 
    195 H195       -1.4442  -21.8008  -46.2741 H         1 UNK         0.3000 
    196 H196       -4.1852  -22.4922  -45.9823 H         1 UNK         0.0600 
    197 H197       -3.3378  -23.7973  -43.9940 H         1 UNK         0.0600 
    198 H198       -2.7667  -22.1409  -44.0334 H         1 UNK         0.0600 
    199 H199       -1.6869  -23.4575  -44.5002 H         1 UNK         0.0600 
    200 H200       -1.3998  -24.3672  -47.1804 H         1 UNK         0.3000 
    201 H201       -2.6913  -26.8750  -47.5179 H         1 UNK         0.0600 
    202 H202       -0.2279  -26.5653  -47.6017 H         1 UNK         0.0600 
    203 H203       -0.3733  -25.5947  -49.0663 H         1 UNK         0.0600 
    204 H204       -0.7908  -27.3046  -49.0927 H         1 UNK         0.0600 
    205 H205       -3.0291  -23.9094  -49.2851 H         1 UNK         0.3000 
    206 H206       -4.5449  -25.1970  -51.5010 H         1 UNK         0.0600 
    207 H207       -2.5997  -23.8192  -52.2254 H         1 UNK         0.0600 
    208 H208       -4.0968  -23.0309  -52.6915 H         1 UNK         0.0600 
    209 H209       -3.2032  -22.4565  -51.2870 H         1 UNK         0.0600 
    210 H210       -5.4749  -24.8765  -48.7898 H         1 UNK         0.3000 
    211 H211       -7.2824  -24.4864  -47.6374 H         1 UNK         0.0600 
    212 H212       -8.5269  -23.0312  -50.0319 H         1 UNK         0.0600 
    213 H213       -9.3577  -23.5426  -48.5739 H         1 UNK         0.0600 
    214 H214       -8.6901  -24.7461  -49.6655 H         1 UNK         0.0600 
    215 H215       -6.7535  -21.5152  -49.5404 H         1 UNK         0.3000 
    216 H216       -5.6734  -20.0012  -47.3737 H         1 UNK         0.0600 
    217 H217       -7.5047  -18.2855  -47.1931 H         1 UNK         0.0600 
    218 H218       -8.0456  -19.8439  -46.6017 H         1 UNK         0.0600 
    219 H219       -8.5496  -19.2873  -48.1960 H         1 UNK         0.0600 
    220 H220       -4.5492  -20.6580  -49.6069 H         1 UNK         0.3000 
    221 H221       -3.5640  -20.0978  -51.5179 H         1 UNK         0.0600 
    222 H222       -2.7786  -18.1018  -50.2798 H         1 UNK         0.0600 
    223 H223       -3.0317  -17.7099  -51.9666 H         1 UNK         0.0600 
    224 H224       -4.2081  -17.1966  -50.7728 H         1 UNK         0.0600 
    225 H225       -6.2011  -20.9875  -51.7327 H         1 UNK         0.3000 
    226 H226       -7.5120  -19.3606  -53.8574 H         1 UNK         0.0600 
    227 H227       -8.8830  -19.9688  -51.8747 H         1 UNK         0.0600 
    228 H228       -9.4836  -20.7673  -53.3204 H         1 UNK         0.0600 
    229 H229       -8.5504  -21.6785  -52.1396 H         1 UNK         0.0600 
    230 H230       -6.4342  -22.7019  -53.0897 H         1 UNK         0.3000 
    231 H231       -6.9770  -23.6724  -55.7920 H         1 UNK         0.0600 
    232 H232       -7.4141  -25.0773  -53.7929 H         1 UNK         0.0600 
    233 H233       -5.6995  -25.0604  -53.3923 H         1 UNK         0.0600 
    234 H234       -6.2488  -25.8335  -54.8689 H         1 UNK         0.0600 
    235 H235       -5.5196  -21.8363  -56.5137 H         1 UNK         0.3000 
    236 H236       -3.9160  -21.1986  -57.8463 H         1 UNK         0.0600 
    237 H237       -2.4618  -22.8391  -58.9932 H         1 UNK         0.0600 
    238 H238       -2.8751  -24.0773  -57.8177 H         1 UNK         0.0600 
    239 H239       -4.1117  -23.4335  -58.8976 H         1 UNK         0.0600 
    240 H240       -2.5767  -23.0472  -55.1821 H         1 UNK         0.3000 
    241 H241       -0.8236  -23.0076  -53.9320 H         1 UNK         0.0600 
    242 H242        1.7699  -21.7613  -56.6883 H         1 UNK         0.3800 
    243 H243        0.0427  -21.5421  -56.9210 H         1 UNK         0.3800 
    244 H244       -1.9677  -21.2989  -52.7995 H         1 UNK         0.0800 
    245 H245       -0.2914  -20.9321  -52.6713 H         1 UNK         0.0800 
    246 H246       -0.0169  -17.4985  -54.4651 H         1 UNK         0.0800 
    247 H247        0.7846  -19.0353  -54.6408 H         1 UNK         0.0800 
@<TRIPOS>BOND
     1    1    2 1    
     2    1  127 1    
     3    1  128 1    
     4    1  129 1    
     5    2    3 2    
     6    2    4 am   BACKBONE|DICT|INTERRES
     7    4    5 1    
     8    4  130 1    
     9    5    6 1    
    10    5   65 1    
    11    5  131 1    
    12    6    7 1    
    13    6  132 1    
    14    6  133 1    
    15    7    8 1    
    16    8    9 1    
    17    8  134 1    
    18    8  135 1    
    19    9   10 ar   
    20    9   14 ar   
    21   10   11 ar   
    22   10  136 1    
    23   11   12 ar   
    24   11  126 1    
    25   12   13 ar   
    26   12  137 1    
    27   13   14 ar   
    28   13   15 1    
    29   14  138 1    
    30   15   16 1    
    31   15  139 1    
    32   15  140 1    
    33   16   17 1    
    34   17   18 1    
    35   17  141 1    
    36   17  142 1    
    37   18   19 1    
    38   18   67 1    
    39   18  143 1    
    40   19   20 am   BACKBONE|DICT|INTERRES
    41   19  144 1    
    42   20   21 2    
    43   20   22 1    
    44   22   23 1    
    45   22   24 1    
    46   22  145 1    
    47   23  146 1    
    48   23  147 1    
    49   23  148 1    
    50   24   25 am   BACKBONE|DICT|INTERRES
    51   24  149 1    
    52   25   26 2    
    53   25   27 1    
    54   27   28 1    
    55   27   29 1    
    56   27  150 1    
    57   28  151 1    
    58   28  152 1    
    59   28  153 1    
    60   29   30 am   BACKBONE|DICT|INTERRES
    61   29  154 1    
    62   30   31 2    
    63   30   32 1    
    64   32   33 1    
    65   32   34 1    
    66   32  155 1    
    67   33  156 1    
    68   33  157 1    
    69   33  158 1    
    70   34   35 am   BACKBONE|DICT|INTERRES
    71   34  159 1    
    72   35   36 2    
    73   35   37 1    
    74   37   38 1    
    75   37   39 1    
    76   37  160 1    
    77   38  161 1    
    78   38  162 1    
    79   38  163 1    
    80   39   40 am   BACKBONE|DICT|INTERRES
    81   39  164 1    
    82   40   41 2    
    83   40   42 1    
    84   42   43 1    
    85   42   44 1    
    86   42  165 1    
    87   43  166 1    
    88   43  167 1    
    89   43  168 1    
    90   44   45 am   BACKBONE|DICT|INTERRES
    91   44  169 1    
    92   45   46 2    
    93   45   47 1    
    94   47   48 1    
    95   47   49 1    
    96   47  170 1    
    97   48  171 1    
    98   48  172 1    
    99   48  173 1    
   100   49   50 am   BACKBONE|DICT|INTERRES
   101   49  174 1    
   102   50   51 2    
   103   50   52 1    
   104   52   53 1    
   105   52   54 1    
   106   52  175 1    
   107   53  176 1    
   108   53  177 1    
   109   53  178 1    
   110   54   55 am   BACKBONE|DICT|INTERRES
   111   54  179 1    
   112   55   56 2    
   113   55   57 1    
   114   57   58 1    
   115   57   59 1    
   116   57  180 1    
   117   58  181 1    
   118   58  182 1    
   119   58  183 1    
   120   59   60 am   BACKBONE|DICT|INTERRES
   121   59  184 1    
   122   60   61 2    
   123   60   62 1    
   124   62   63 1    
   125   62   64 1    
   126   62  185 1    
   127   63  186 1    
   128   63  187 1    
   129   63  188 1    
   130   64   65 am   BACKBONE|DICT|INTERRES
   131   64  189 1    
   132   65   66 2    
   133   67   68 2    
   134   67   69 am   BACKBONE|DICT|INTERRES
   135   69   70 1    
   136   69  190 1    
   137   70   71 1    
   138   70   72 1    
   139   70  191 1    
   140   71  192 1    
   141   71  193 1    
   142   71  194 1    
   143   72   73 2    
   144   72   74 am   BACKBONE|DICT|INTERRES
   145   74   75 1    
   146   74  195 1    
   147   75   76 1    
   148   75   77 1    
   149   75  196 1    
   150   76  197 1    
   151   76  198 1    
   152   76  199 1    
   153   77   78 2    
   154   77   79 am   BACKBONE|DICT|INTERRES
   155   79   80 1    
   156   79  200 1    
   157   80   81 1    
   158   80   82 1    
   159   80  201 1    
   160   81  202 1    
   161   81  203 1    
   162   81  204 1    
   163   82   83 2    
   164   82   84 am   BACKBONE|DICT|INTERRES
   165   84   85 1    
   166   84  205 1    
   167   85   86 1    
   168   85   87 1    
   169   85  206 1    
   170   86  207 1    
   171   86  208 1    
   172   86  209 1    
   173   87   88 2    
   174   87   89 am   BACKBONE|DICT|INTERRES
   175   89   90 1    
   176   89  210 1    
   177   90   91 1    
   178   90   92 1    
   179   90  211 1    
   180   91  212 1    
   181   91  213 1    
   182   91  214 1    
   183   92   93 2    
   184   92   94 am   BACKBONE|DICT|INTERRES
   185   94   95 1    
   186   94  215 1    
   187   95   96 1    
   188   95   97 1    
   189   95  216 1    
   190   96  217 1    
   191   96  218 1    
   192   96  219 1    
   193   97   98 2    
   194   97   99 am   BACKBONE|DICT|INTERRES
   195   99  100 1    
   196   99  220 1    
   197  100  101 1    
   198  100  102 1    
   199  100  221 1    
   200  101  222 1    
   201  101  223 1    
   202  101  224 1    
   203  102  103 2    
   204  102  104 am   BACKBONE|DICT|INTERRES
   205  104  105 1    
   206  104  225 1    
   207  105  106 1    
   208  105  107 1    
   209  105  226 1    
   210  106  227 1    
   211  106  228 1    
   212  106  229 1    
   213  107  108 2    
   214  107  109 am   BACKBONE|DICT|INTERRES
   215  109  110 1    
   216  109  230 1    
   217  110  111 1    
   218  110  112 1    
   219  110  231 1    
   220  111  232 1    
   221  111  233 1    
   222  111  234 1    
   223  112  113 2    
   224  112  114 am   BACKBONE|DICT|INTERRES
   225  114  115 1    
   226  114  235 1    
   227  115  116 1    
   228  115  117 1    
   229  115  236 1    
   230  116  237 1    
   231  116  238 1    
   232  116  239 1    
   233  117  118 2    
   234  117  119 am   BACKBONE|DICT|INTERRES
   235  119  120 1    
   236  119  240 1    
   237  120  121 1    
   238  120  124 1    
   239  120  241 1    
   240  121  122 am   BACKBONE|DICT|INTERRES
   241  121  123 2    
   242  122  242 1    
   243  122  243 1    
   244  124  125 1    
   245  124  244 1    
   246  124  245 1    
   247  125  126 1    
   248  126  246 1    
   249  126  247 1    
@<TRIPOS>SUBSTRUCTURE
     1 UNK         1 GROUP             0       ****    0 ROOT    
