@<TRIPOS>MOLECULE
3R540
247   249    1
SMALL
USER_CHARGES


@<TRIPOS>ATOM
      1 CA          4.2681  -16.2270  -42.8853 C.3       0 UNK        -0.1800 
      2 C           3.2406  -15.6326  -43.8353 C.2       0 UNK         0.5000 
      3 O           2.9956  -14.4280  -43.7947 O.2       0 UNK        -0.5000 
      4 N           2.6620  -16.4720  -44.7055 N.am      1 UNK        -0.5000 
      5 CA          1.6083  -16.1413  -45.6778 C.3       1 UNK         0.1400 
      6 C6          1.2029  -17.4003  -46.4866 C.3       23 UNK        -0.0398 
      7 S7         -0.3770  -17.2372  -47.3907 S.3       23 UNK        -0.2404 
      8 C8          0.1612  -16.8518  -49.0937 C.3       23 UNK        -0.0205 
      9 C9          0.5085  -18.0950  -49.9038 C.ar      23 UNK        -0.0193 
     10 C10        -0.4401  -18.6761  -50.7545 C.ar      23 UNK        -0.1150 
     11 C11        -0.1124  -19.8015  -51.5188 C.ar      23 UNK        -0.0193 
     12 C12         1.1616  -20.3620  -51.4059 C.ar      23 UNK        -0.1150 
     13 C13         2.1150  -19.7943  -50.5602 C.ar      23 UNK        -0.0193 
     14 C14         1.7909  -18.6469  -49.8323 C.ar      23 UNK        -0.1150 
     15 C15         3.4944  -20.4230  -50.4378 C.3       23 UNK        -0.0205 
     16 S16         3.4623  -21.9361  -49.4241 S.3       23 UNK        -0.2404 
     17 C17         3.0900  -21.2601  -47.7693 C.3       23 UNK        -0.0398 
     18 CA          2.3997  -22.2843  -46.8276 C.3       11 UNK         0.1400 
     19 N           2.4008  -21.8539  -45.4251 N.am      11 UNK        -0.5000 
     20 C           3.5161  -21.8137  -44.6766 C.2       10 UNK         0.5000 
     21 O           4.6152  -22.1895  -45.0866 O.2       10 UNK        -0.5000 
     22 CA          3.4339  -21.2396  -43.2478 C.3       10 UNK         0.1400 
     23 CB          3.8821  -19.7717  -43.2431 C.3       10 UNK        -0.1800 
     24 N           2.1082  -21.3200  -42.6462 N.am      10 UNK        -0.5000 
     25 C           1.5348  -22.4475  -42.2052 C.2       9 UNK         0.5000 
     26 O           2.0876  -23.5476  -42.2242 O.2       9 UNK        -0.5000 
     27 CA          0.0952  -22.3324  -41.6609 C.3       9 UNK         0.1400 
     28 CB          0.1059  -22.3023  -40.1251 C.3       9 UNK        -0.1800 
     29 N          -0.6509  -21.1671  -42.1479 N.am      9 UNK        -0.5000 
     30 C          -0.8693  -20.8514  -43.4321 C.2       8 UNK         0.5000 
     31 O          -0.4617  -21.5266  -44.3768 O.2       8 UNK        -0.5000 
     32 CA         -1.6195  -19.5385  -43.7129 C.3       8 UNK         0.1400 
     33 CB         -3.1117  -19.8185  -43.9430 C.3       8 UNK        -0.1800 
     34 N          -1.4752  -18.5313  -42.6611 N.am      8 UNK        -0.5000 
     35 C          -0.3285  -17.9508  -42.2818 C.2       7 UNK         0.5000 
     36 O           0.7722  -18.2594  -42.7439 O.2       7 UNK        -0.5000 
     37 CA         -0.4564  -16.8466  -41.2113 C.3       7 UNK         0.1400 
     38 CB          0.8704  -16.1231  -40.9292 C.3       7 UNK        -0.1800 
     39 N          -1.4659  -15.8585  -41.5968 N.am      7 UNK        -0.5000 
     40 C          -2.7819  -15.9655  -41.3589 C.2       6 UNK         0.5000 
     41 O          -3.2798  -16.9051  -40.7380 O.2       6 UNK        -0.5000 
     42 CA         -3.7053  -14.8797  -41.9489 C.3       6 UNK         0.1400 
     43 CB         -3.9555  -13.7695  -40.9172 C.3       6 UNK        -0.1800 
     44 N          -3.1805  -14.2795  -43.1751 N.am      6 UNK        -0.5000 
     45 C          -2.9761  -14.9285  -44.3305 C.2       5 UNK         0.5000 
     46 O          -3.3282  -16.0909  -44.5291 O.2       5 UNK        -0.5000 
     47 CA         -2.2310  -14.1614  -45.4433 C.3       5 UNK         0.1400 
     48 CB         -3.2037  -13.7426  -46.5559 C.3       5 UNK        -0.1800 
     49 N          -1.4876  -12.9779  -44.9902 N.am      5 UNK        -0.5000 
     50 C          -0.4683  -12.9916  -44.1213 C.2       4 UNK         0.5000 
     51 O          -0.1025  -13.9975  -43.5126 O.2       4 UNK        -0.5000 
     52 CA          0.2353  -11.6578  -43.8577 C.3       4 UNK         0.1400 
     53 CB          0.0302  -11.2001  -42.4025 C.3       4 UNK        -0.1800 
     54 N           1.6551  -11.8245  -44.1411 N.am      4 UNK        -0.5000 
     55 C           2.4865  -10.8390  -44.5000 C.2       3 UNK         0.5000 
     56 O           2.1507   -9.6569  -44.5863 O.2       3 UNK        -0.5000 
     57 CA          3.9283  -11.2413  -44.8492 C.3       3 UNK         0.1400 
     58 CB          4.7558  -11.4902  -43.5777 C.3       3 UNK        -0.1800 
     59 N           3.9470  -12.4353  -45.6934 N.am      3 UNK        -0.5000 
     60 C           3.8803  -12.4156  -47.0323 C.2       2 UNK         0.5000 
     61 O           3.8629  -11.3792  -47.6977 O.2       2 UNK        -0.5000 
     62 CA          3.8311  -13.7733  -47.7637 C.3       2 UNK         0.1400 
     63 CB          5.2352  -14.1808  -48.2357 C.3       2 UNK        -0.1800 
     64 N           3.2730  -14.8566  -46.9541 N.am      2 UNK        -0.5000 
     65 C           1.9823  -14.9611  -46.6068 C.2       1 UNK         0.5000 
     66 O           1.1163  -14.1645  -46.9682 O.2       1 UNK        -0.5000 
     67 C           0.9814  -22.6570  -47.2963 C.2       11 UNK         0.5000 
     68 O           0.7495  -23.8155  -47.6415 O.2       11 UNK        -0.5000 
     69 N           0.0570  -21.6850  -47.2950 N.am      12 UNK        -0.5000 
     70 CA         -1.3168  -21.7872  -47.8124 C.3       12 UNK         0.1400 
     71 CB         -2.0205  -20.4375  -47.6155 C.3       12 UNK        -0.1800 
     72 C          -2.1792  -22.9313  -47.2396 C.2       12 UNK         0.5000 
     73 O          -3.0931  -23.3978  -47.9186 O.2       12 UNK        -0.5000 
     74 N          -1.8740  -23.3793  -46.0161 N.am      13 UNK        -0.5000 
     75 CA         -2.4923  -24.5441  -45.3813 C.3       13 UNK         0.1400 
     76 CB         -2.0607  -24.5994  -43.9098 C.3       13 UNK        -0.1800 
     77 C          -2.1661  -25.8748  -46.0920 C.2       13 UNK         0.5000 
     78 O          -2.9830  -26.7955  -46.0457 O.2       13 UNK        -0.5000 
     79 N          -0.9938  -25.9507  -46.7362 N.am      14 UNK        -0.5000 
     80 CA         -0.5619  -27.0808  -47.5573 C.3       14 UNK         0.1400 
     81 CB          0.9248  -27.3635  -47.2891 C.3       14 UNK        -0.1800 
     82 C          -0.7984  -26.7900  -49.0484 C.2       14 UNK         0.5000 
     83 O          -1.2791  -27.6635  -49.7723 O.2       14 UNK        -0.5000 
     84 N          -0.4722  -25.5650  -49.4820 N.am      15 UNK        -0.5000 
     85 CA         -0.6661  -25.0622  -50.8391 C.3       15 UNK         0.1400 
     86 CB          0.3040  -23.8935  -51.0828 C.3       15 UNK        -0.1800 
     87 C          -2.1394  -24.6745  -51.0683 C.2       15 UNK         0.5000 
     88 O          -2.4843  -23.4911  -51.0587 O.2       15 UNK        -0.5000 
     89 N          -2.9798  -25.6996  -51.2707 N.am      16 UNK        -0.5000 
     90 CA         -4.4422  -25.6460  -51.4002 C.3       16 UNK         0.1400 
     91 CB         -4.9685  -27.0735  -51.6115 C.3       16 UNK        -0.1800 
     92 C          -4.9930  -24.7030  -52.4907 C.2       16 UNK         0.5000 
     93 O          -6.1666  -24.3333  -52.4294 O.2       16 UNK        -0.5000 
     94 N          -4.1341  -24.2754  -53.4284 N.am      17 UNK        -0.5000 
     95 CA         -4.3790  -23.2065  -54.4017 C.3       17 UNK         0.1400 
     96 CB         -3.1282  -23.0329  -55.2751 C.3       17 UNK        -0.1800 
     97 C          -4.7754  -21.8575  -53.7647 C.2       17 UNK         0.5000 
     98 O          -5.4010  -21.0360  -54.4354 O.2       17 UNK        -0.5000 
     99 N          -4.4650  -21.6653  -52.4731 N.am      18 UNK        -0.5000 
    100 CA        -4.9168  -20.5552  -51.6304 C.3       18 UNK         0.1400 
    101 CB        -4.3567  -20.7496  -50.2171 C.3       18 UNK        -0.1800 
    102 C         -6.4481  -20.3715  -51.5765 C.2       18 UNK         0.5000 
    103 O         -6.9057  -19.2501  -51.3568 O.2       18 UNK        -0.5000 
    104 N         -7.2156  -21.4402  -51.8437 N.am      19 UNK        -0.5000 
    105 CA        -8.6704  -21.4004  -52.0283 C.3       19 UNK         0.1400 
    106 CB        -9.1981  -22.8379  -52.1452 C.3       19 UNK        -0.1800 
    107 C         -9.1168  -20.5624  -53.2478 C.2       19 UNK         0.5000 
    108 O        -10.2413  -20.0611  -53.2568 O.2       19 UNK        -0.5000 
    109 N         -8.2229  -20.4021  -54.2326 N.am      20 UNK        -0.5000 
    110 CA        -8.3695  -19.5418  -55.4062 C.3       20 UNK         0.1400 
    111 CB        -8.1524  -20.3960  -56.6681 C.3       20 UNK        -0.1800 
    112 C         -7.3821  -18.3566  -55.3334 C.2       20 UNK         0.5000 
    113 O         -6.9412  -17.8579  -56.3712 O.2       20 UNK        -0.5000 
    114 N         -7.0137  -17.9509  -54.1063 N.am      21 UNK        -0.5000 
    115 CA        -6.0785  -16.8721  -53.7570 C.3       21 UNK         0.1400 
    116 CB        -6.6627  -15.5018  -54.1578 C.3       21 UNK        -0.1800 
    117 C         -4.6441  -17.0815  -54.2928 C.2       21 UNK         0.5000 
    118 O         -3.8902  -16.1157  -54.4211 O.2       21 UNK        -0.5000 
    119 N         -4.2931  -18.3373  -54.5987 N.am      22 UNK        -0.5000 
    120 CA        -3.0526  -18.7581  -55.2633 C.3       22 UNK         0.1400 
    121 C         -2.9378  -18.3167  -56.7559 C.2       22 UNK         0.5000 
    122 N         -4.0239  -17.9247  -57.4146 N.am      22 UNK        -0.7600 
    123 O         -1.8592  -18.3571  -57.3413 O.2       22 UNK        -0.5000 
    124 C124       -1.7774  -18.4783  -54.4094 C.3       23 UNK        -0.0398 
    125 S125       -0.7693  -19.9858  -54.2010 S.3       23 UNK        -0.2404 
    126 C126       -1.1200  -20.4264  -52.4694 C.3       23 UNK        -0.0205 
    127 H127        4.8689  -16.9882  -43.3825 H         1 UNK         0.0600 
    128 H128        3.7706  -16.6802  -42.0283 H         1 UNK         0.0600 
    129 H129        4.9427  -15.4527  -42.5195 H         1 UNK         0.0600 
    130 H130        2.9034  -17.4494  -44.6495 H         1 UNK         0.3000 
    131 H131        0.7419  -15.8323  -45.0925 H         1 UNK         0.0600 
    132 H132        2.0043  -17.7000  -47.1584 H         1 UNK         0.0800 
    133 H133        1.0695  -18.2383  -45.8005 H         1 UNK         0.0800 
    134 H134        1.0110  -16.1690  -49.0766 H         1 UNK         0.0800 
    135 H135       -0.6439  -16.3073  -49.5891 H         1 UNK         0.0800 
    136 H136       -1.4289  -18.2461  -50.8285 H         1 UNK         0.1150 
    137 H137        1.4147  -21.2399  -51.9835 H         1 UNK         0.1150 
    138 H138        2.5424  -18.1895  -49.2071 H         1 UNK         0.1150 
    139 H139        3.8660  -20.6723  -51.4327 H         1 UNK         0.0800 
    140 H140        4.2090  -19.7161  -50.0132 H         1 UNK         0.0800 
    141 H141        2.4855  -20.3582  -47.8493 H         1 UNK         0.0800 
    142 H142        4.0422  -20.9348  -47.3503 H         1 UNK         0.0800 
    143 H143        2.9778  -23.2106  -46.8710 H         1 UNK         0.0600 
    144 H144        1.5036  -21.6148  -45.0147 H         1 UNK         0.3000 
    145 H145        4.1273  -21.8082  -42.6245 H         1 UNK         0.0600 
    146 H146        3.8956  -19.3658  -42.2313 H         1 UNK         0.0600 
    147 H147        3.2153  -19.1537  -43.8434 H         1 UNK         0.0600 
    148 H148        4.8887  -19.6658  -43.6500 H         1 UNK         0.0600 
    149 H149        1.5814  -20.4571  -42.5959 H         1 UNK         0.3000 
    150 H150       -0.4413  -23.2265  -41.9775 H         1 UNK         0.0600 
    151 H151        0.6292  -23.1694  -39.7196 H         1 UNK         0.0600 
    152 H152       -0.9069  -22.3196  -39.7222 H         1 UNK         0.0600 
    153 H153        0.6049  -21.4100  -39.7448 H         1 UNK         0.0600 
    154 H154       -1.0148  -20.5424  -41.4439 H         1 UNK         0.3000 
    155 H155       -1.1991  -19.1120  -44.6250 H         1 UNK         0.0600 
    156 H156       -3.2582  -20.5831  -44.7073 H         1 UNK         0.0600 
    157 H157       -3.6320  -18.9212  -44.2786 H         1 UNK         0.0600 
    158 H158       -3.5995  -20.1697  -43.0329 H         1 UNK         0.0600 
    159 H159       -2.3288  -18.2109  -42.2209 H         1 UNK         0.3000 
    160 H160       -0.7618  -17.3367  -40.2848 H         1 UNK         0.0600 
    161 H161        1.2256  -15.5855  -41.8068 H         1 UNK         0.0600 
    162 H162        1.6485  -16.8267  -40.6312 H         1 UNK         0.0600 
    163 H163        0.7593  -15.4004  -40.1210 H         1 UNK         0.0600 
    164 H164       -1.1322  -15.0993  -42.1835 H         1 UNK         0.3000 
    165 H165       -4.6608  -15.3514  -42.1871 H         1 UNK         0.0600 
    166 H166       -4.6667  -13.0338  -41.2932 H         1 UNK         0.0600 
    167 H167       -4.3705  -14.1794  -39.9954 H         1 UNK         0.0600 
    168 H168       -3.0342  -13.2458  -40.6583 H         1 UNK         0.0600 
    169 H169       -2.8629  -13.3241  -43.1107 H         1 UNK         0.3000 
    170 H170       -1.5056  -14.8546  -45.8723 H         1 UNK         0.0600 
    171 H171       -3.9386  -13.0211  -46.1970 H         1 UNK         0.0600 
    172 H172       -2.6721  -13.2952  -47.3961 H         1 UNK         0.0600 
    173 H173       -3.7497  -14.6042  -46.9430 H         1 UNK         0.0600 
    174 H174       -1.7342  -12.1058  -45.4355 H         1 UNK         0.3000 
    175 H175       -0.1803  -10.9030  -44.5287 H         1 UNK         0.0600 
    176 H176        0.4598  -11.9104  -41.6947 H         1 UNK         0.0600 
    177 H177        0.4926  -10.2294  -42.2235 H         1 UNK         0.0600 
    178 H178       -1.0307  -11.1027  -42.1690 H         1 UNK         0.0600 
    179 H179        2.0035  -12.7793  -44.0763 H         1 UNK         0.3000 
    180 H180        4.3905  -10.4090  -45.3844 H         1 UNK         0.0600 
    181 H181        5.7850  -11.7518  -43.8234 H         1 UNK         0.0600 
    182 H182        4.3418  -12.2952  -42.9703 H         1 UNK         0.0600 
    183 H183        4.7873  -10.5954  -42.9549 H         1 UNK         0.0600 
    184 H184        3.8735  -13.3229  -45.2088 H         1 UNK         0.3000 
    185 H185        3.1992  -13.6477  -48.6456 H         1 UNK         0.0600 
    186 H186        5.2039  -15.0999  -48.8210 H         1 UNK         0.0600 
    187 H187        5.6737  -13.4086  -48.8693 H         1 UNK         0.0600 
    188 H188        5.9122  -14.3391  -47.3952 H         1 UNK         0.0600 
    189 H189        3.9251  -15.5405  -46.5992 H         1 UNK         0.3000 
    190 H190        0.3222  -20.7718  -46.9609 H         1 UNK         0.3000 
    191 H191       -1.2476  -21.9687  -48.8860 H         1 UNK         0.0600 
    192 H192       -1.6673  -19.7087  -48.3431 H         1 UNK         0.0600 
    193 H193       -1.8442  -20.0321  -46.6223 H         1 UNK         0.0600 
    194 H194       -3.1001  -20.5195  -47.7394 H         1 UNK         0.0600 
    195 H195       -1.1605  -22.8840  -45.4884 H         1 UNK         0.3000 
    196 H196       -3.5755  -24.4104  -45.4141 H         1 UNK         0.0600 
    197 H197       -2.3755  -23.7025  -43.3763 H         1 UNK         0.0600 
    198 H198       -0.9779  -24.6903  -43.8158 H         1 UNK         0.0600 
    199 H199       -2.5091  -25.4536  -43.4008 H         1 UNK         0.0600 
    200 H200       -0.4035  -25.1256  -46.7683 H         1 UNK         0.3000 
    201 H201       -1.1264  -27.9782  -47.2958 H         1 UNK         0.0600 
    202 H202        1.0931  -27.6160  -46.2422 H         1 UNK         0.0600 
    203 H203        1.5521  -26.5044  -47.5302 H         1 UNK         0.0600 
    204 H204        1.2757  -28.2052  -47.8875 H         1 UNK         0.0600 
    205 H205       -0.0713  -24.9068  -48.8177 H         1 UNK         0.3000 
    206 H206       -0.4108  -25.8519  -51.5489 H         1 UNK         0.0600 
    207 H207        0.1138  -23.0564  -50.4119 H         1 UNK         0.0600 
    208 H208        1.3389  -24.2030  -50.9363 H         1 UNK         0.0600 
    209 H209        0.2183  -23.5251  -52.1052 H         1 UNK         0.0600 
    210 H210       -2.5829  -26.6289  -51.1998 H         1 UNK         0.3000 
    211 H211       -4.8285  -25.2781  -50.4476 H         1 UNK         0.0600 
    212 H212       -4.5819  -27.5105  -52.5330 H         1 UNK         0.0600 
    213 H213       -6.0577  -27.0864  -51.6730 H         1 UNK         0.0600 
    214 H214       -4.6845  -27.7255  -50.7850 H         1 UNK         0.0600 
    215 H215       -3.1905  -24.6297  -53.3845 H         1 UNK         0.3000 
    216 H216       -5.2081  -23.5208  -55.0384 H         1 UNK         0.0600 
    217 H217       -3.2829  -22.2646  -56.0339 H         1 UNK         0.0600 
    218 H218       -2.8798  -23.9567  -55.7978 H         1 UNK         0.0600 
    219 H219       -2.2618  -22.7390  -54.6811 H         1 UNK         0.0600 
    220 H220       -3.9142  -22.3792  -52.0050 H         1 UNK         0.3000 
    221 H221       -4.4966  -19.6365  -52.0424 H         1 UNK         0.0600 
    222 H222       -4.7270  -21.6685  -49.7605 H         1 UNK         0.0600 
    223 H223       -3.2685  -20.8030  -50.2278 H         1 UNK         0.0600 
    224 H224       -4.6369  -19.9194  -49.5675 H         1 UNK         0.0600 
    225 H225       -6.7669  -22.3338  -52.0148 H         1 UNK         0.3000 
    226 H226       -9.1087  -20.9448  -51.1381 H         1 UNK         0.0600 
    227 H227       -8.9415  -23.4259  -51.2637 H         1 UNK         0.0600 
    228 H228      -10.2847  -22.8502  -52.2397 H         1 UNK         0.0600 
    229 H229       -8.7859  -23.3463  -53.0178 H         1 UNK         0.0600 
    230 H230       -7.3065  -20.8290  -54.1338 H         1 UNK         0.3000 
    231 H231       -9.3740  -19.1168  -55.4486 H         1 UNK         0.0600 
    232 H232       -8.3149  -19.8106  -57.5738 H         1 UNK         0.0600 
    233 H233       -8.8463  -21.2362  -56.6982 H         1 UNK         0.0600 
    234 H234       -7.1388  -20.7969  -56.7109 H         1 UNK         0.0600 
    235 H235       -7.3962  -18.4491  -53.3113 H         1 UNK         0.3000 
    236 H236       -5.9942  -16.8875  -52.6696 H         1 UNK         0.0600 
    237 H237       -6.7128  -15.3843  -55.2407 H         1 UNK         0.0600 
    238 H238       -7.6684  -15.3701  -53.7588 H         1 UNK         0.0600 
    239 H239       -6.0529  -14.6855  -53.7689 H         1 UNK         0.0600 
    240 H240       -4.9784  -19.0762  -54.4856 H         1 UNK         0.3000 
    241 H241       -3.1713  -19.8376  -55.3435 H         1 UNK         0.0600 
    242 H242       -3.9422  -17.6516  -58.3811 H         1 UNK         0.3800 
    243 H243       -4.9316  -17.8973  -56.9637 H         1 UNK         0.3800 
    244 H244       -2.0395  -18.0968  -53.4222 H         1 UNK         0.0800 
    245 H245       -1.1567  -17.6982  -54.8529 H         1 UNK         0.0800 
    246 H246       -1.0920  -21.5112  -52.3675 H         1 UNK         0.0800 
    247 H247       -2.1327  -20.1260  -52.2089 H         1 UNK         0.0800 
@<TRIPOS>BOND
     1    1    2 1    
     2    1  127 1    
     3    1  128 1    
     4    1  129 1    
     5    2    3 2    
     6    2    4 am   BACKBONE|DICT|INTERRES
     7    4    5 1    
     8    4  130 1    
     9    5    6 1    
    10    5   65 1    
    11    5  131 1    
    12    6    7 1    
    13    6  132 1    
    14    6  133 1    
    15    7    8 1    
    16    8    9 1    
    17    8  134 1    
    18    8  135 1    
    19    9   10 ar   
    20    9   14 ar   
    21   10   11 ar   
    22   10  136 1    
    23   11   12 ar   
    24   11  126 1    
    25   12   13 ar   
    26   12  137 1    
    27   13   14 ar   
    28   13   15 1    
    29   14  138 1    
    30   15   16 1    
    31   15  139 1    
    32   15  140 1    
    33   16   17 1    
    34   17   18 1    
    35   17  141 1    
    36   17  142 1    
    37   18   19 1    
    38   18   67 1    
    39   18  143 1    
    40   19   20 am   BACKBONE|DICT|INTERRES
    41   19  144 1    
    42   20   21 2    
    43   20   22 1    
    44   22   23 1    
    45   22   24 1    
    46   22  145 1    
    47   23  146 1    
    48   23  147 1    
    49   23  148 1    
    50   24   25 am   BACKBONE|DICT|INTERRES
    51   24  149 1    
    52   25   26 2    
    53   25   27 1    
    54   27   28 1    
    55   27   29 1    
    56   27  150 1    
    57   28  151 1    
    58   28  152 1    
    59   28  153 1    
    60   29   30 am   BACKBONE|DICT|INTERRES
    61   29  154 1    
    62   30   31 2    
    63   30   32 1    
    64   32   33 1    
    65   32   34 1    
    66   32  155 1    
    67   33  156 1    
    68   33  157 1    
    69   33  158 1    
    70   34   35 am   BACKBONE|DICT|INTERRES
    71   34  159 1    
    72   35   36 2    
    73   35   37 1    
    74   37   38 1    
    75   37   39 1    
    76   37  160 1    
    77   38  161 1    
    78   38  162 1    
    79   38  163 1    
    80   39   40 am   BACKBONE|DICT|INTERRES
    81   39  164 1    
    82   40   41 2    
    83   40   42 1    
    84   42   43 1    
    85   42   44 1    
    86   42  165 1    
    87   43  166 1    
    88   43  167 1    
    89   43  168 1    
    90   44   45 am   BACKBONE|DICT|INTERRES
    91   44  169 1    
    92   45   46 2    
    93   45   47 1    
    94   47   48 1    
    95   47   49 1    
    96   47  170 1    
    97   48  171 1    
    98   48  172 1    
    99   48  173 1    
   100   49   50 am   BACKBONE|DICT|INTERRES
   101   49  174 1    
   102   50   51 2    
   103   50   52 1    
   104   52   53 1    
   105   52   54 1    
   106   52  175 1    
   107   53  176 1    
   108   53  177 1    
   109   53  178 1    
   110   54   55 am   BACKBONE|DICT|INTERRES
   111   54  179 1    
   112   55   56 2    
   113   55   57 1    
   114   57   58 1    
   115   57   59 1    
   116   57  180 1    
   117   58  181 1    
   118   58  182 1    
   119   58  183 1    
   120   59   60 am   BACKBONE|DICT|INTERRES
   121   59  184 1    
   122   60   61 2    
   123   60   62 1    
   124   62   63 1    
   125   62   64 1    
   126   62  185 1    
   127   63  186 1    
   128   63  187 1    
   129   63  188 1    
   130   64   65 am   BACKBONE|DICT|INTERRES
   131   64  189 1    
   132   65   66 2    
   133   67   68 2    
   134   67   69 am   BACKBONE|DICT|INTERRES
   135   69   70 1    
   136   69  190 1    
   137   70   71 1    
   138   70   72 1    
   139   70  191 1    
   140   71  192 1    
   141   71  193 1    
   142   71  194 1    
   143   72   73 2    
   144   72   74 am   BACKBONE|DICT|INTERRES
   145   74   75 1    
   146   74  195 1    
   147   75   76 1    
   148   75   77 1    
   149   75  196 1    
   150   76  197 1    
   151   76  198 1    
   152   76  199 1    
   153   77   78 2    
   154   77   79 am   BACKBONE|DICT|INTERRES
   155   79   80 1    
   156   79  200 1    
   157   80   81 1    
   158   80   82 1    
   159   80  201 1    
   160   81  202 1    
   161   81  203 1    
   162   81  204 1    
   163   82   83 2    
   164   82   84 am   BACKBONE|DICT|INTERRES
   165   84   85 1    
   166   84  205 1    
   167   85   86 1    
   168   85   87 1    
   169   85  206 1    
   170   86  207 1    
   171   86  208 1    
   172   86  209 1    
   173   87   88 2    
   174   87   89 am   BACKBONE|DICT|INTERRES
   175   89   90 1    
   176   89  210 1    
   177   90   91 1    
   178   90   92 1    
   179   90  211 1    
   180   91  212 1    
   181   91  213 1    
   182   91  214 1    
   183   92   93 2    
   184   92   94 am   BACKBONE|DICT|INTERRES
   185   94   95 1    
   186   94  215 1    
   187   95   96 1    
   188   95   97 1    
   189   95  216 1    
   190   96  217 1    
   191   96  218 1    
   192   96  219 1    
   193   97   98 2    
   194   97   99 am   BACKBONE|DICT|INTERRES
   195   99  100 1    
   196   99  220 1    
   197  100  101 1    
   198  100  102 1    
   199  100  221 1    
   200  101  222 1    
   201  101  223 1    
   202  101  224 1    
   203  102  103 2    
   204  102  104 am   BACKBONE|DICT|INTERRES
   205  104  105 1    
   206  104  225 1    
   207  105  106 1    
   208  105  107 1    
   209  105  226 1    
   210  106  227 1    
   211  106  228 1    
   212  106  229 1    
   213  107  108 2    
   214  107  109 am   BACKBONE|DICT|INTERRES
   215  109  110 1    
   216  109  230 1    
   217  110  111 1    
   218  110  112 1    
   219  110  231 1    
   220  111  232 1    
   221  111  233 1    
   222  111  234 1    
   223  112  113 2    
   224  112  114 am   BACKBONE|DICT|INTERRES
   225  114  115 1    
   226  114  235 1    
   227  115  116 1    
   228  115  117 1    
   229  115  236 1    
   230  116  237 1    
   231  116  238 1    
   232  116  239 1    
   233  117  118 2    
   234  117  119 am   BACKBONE|DICT|INTERRES
   235  119  120 1    
   236  119  240 1    
   237  120  121 1    
   238  120  124 1    
   239  120  241 1    
   240  121  122 am   BACKBONE|DICT|INTERRES
   241  121  123 2    
   242  122  242 1    
   243  122  243 1    
   244  124  125 1    
   245  124  244 1    
   246  124  245 1    
   247  125  126 1    
   248  126  246 1    
   249  126  247 1    
@<TRIPOS>SUBSTRUCTURE
     1 UNK         1 GROUP             0       ****    0 ROOT    
