@<TRIPOS>MOLECULE
3R540
247   249    1
SMALL
USER_CHARGES


@<TRIPOS>ATOM
      1 CA         -3.1514  -16.9412  -45.9614 C.3       0 UNK        -0.1800 
      2 C          -2.6041  -15.5305  -46.1316 C.2       0 UNK         0.5000 
      3 O          -3.1701  -14.5853  -45.5832 O.2       0 UNK        -0.5000 
      4 N          -1.5139  -15.3835  -46.8950 N.am      1 UNK        -0.5000 
      5 CA         -0.8279  -14.1116  -47.1370 C.3       1 UNK         0.1400 
      6 C6          0.0683  -14.1590  -48.4030 C.3       23 UNK        -0.0398 
      7 S7         -0.8546  -13.8548  -49.9535 S.3       23 UNK        -0.2404 
      8 C8         -1.7895  -15.3909  -50.2561 C.3       23 UNK        -0.0205 
      9 C9         -0.9438  -16.5085  -50.8498 C.ar      23 UNK        -0.0193 
     10 C10        -1.0000  -16.7803  -52.2191 C.ar      23 UNK        -0.1150 
     11 C11        -0.2920  -17.8579  -52.7566 C.ar      23 UNK        -0.0193 
     12 C12         0.4887  -18.6559  -51.9162 C.ar      23 UNK        -0.1150 
     13 C13         0.5664  -18.3964  -50.5447 C.ar      23 UNK        -0.0193 
     14 C14        -0.1547  -17.3131  -50.0242 C.ar      23 UNK        -0.1150 
     15 C15         1.4251  -19.3311  -49.6860 C.3       23 UNK        -0.0205 
     16 S16         1.5346  -18.9508  -47.9002 S.3       23 UNK        -0.2404 
     17 C17        -0.1468  -19.3638  -47.3284 C.3       23 UNK        -0.0398 
     18 CA         -0.2991  -20.8435  -46.9176 C.3       11 UNK         0.1400 
     19 N           0.4034  -21.1710  -45.6727 N.am      11 UNK        -0.5000 
     20 C           0.5169  -22.4030  -45.1554 C.2       10 UNK         0.5000 
     21 O           0.0189  -23.4066  -45.6668 O.2       10 UNK        -0.5000 
     22 CA          1.2650  -22.5314  -43.8183 C.3       10 UNK         0.1400 
     23 CB          2.7787  -22.3517  -44.0084 C.3       10 UNK        -0.1800 
     24 N           0.7661  -21.5837  -42.8230 N.am      10 UNK        -0.5000 
     25 C          -0.4571  -21.6410  -42.2766 C.2       9 UNK         0.5000 
     26 O          -1.2612  -22.5471  -42.4969 O.2       9 UNK        -0.5000 
     27 CA         -0.8667  -20.4798  -41.3508 C.3       9 UNK         0.1400 
     28 CB         -0.3518  -20.7159  -39.9234 C.3       9 UNK        -0.1800 
     29 N          -0.4125  -19.1720  -41.8273 N.am      9 UNK        -0.5000 
     30 C          -0.7942  -18.6097  -42.9838 C.2       8 UNK         0.5000 
     31 O          -1.5916  -19.1249  -43.7666 O.2       8 UNK        -0.5000 
     32 CA         -0.1274  -17.2748  -43.3596 C.3       8 UNK         0.1400 
     33 CB         -0.7549  -16.1079  -42.5840 C.3       8 UNK        -0.1800 
     34 N           1.3181  -17.2932  -43.1416 N.am      8 UNK        -0.5000 
     35 C           2.1649  -18.1321  -43.7547 C.2       7 UNK         0.5000 
     36 O           1.8185  -18.9678  -44.5865 O.2       7 UNK        -0.5000 
     37 CA          3.6343  -18.0806  -43.3111 C.3       7 UNK         0.1400 
     38 CB          4.3572  -16.8729  -43.9266 C.3       7 UNK        -0.1800 
     39 N           3.7562  -18.0578  -41.8533 N.am      7 UNK        -0.5000 
     40 C           3.4210  -19.0814  -41.0535 C.2       6 UNK         0.5000 
     41 O           3.0109  -20.1661  -41.4652 O.2       6 UNK        -0.5000 
     42 CA          3.5303  -18.8414  -39.5373 C.3       6 UNK         0.1400 
     43 CB          4.9599  -19.1165  -39.0479 C.3       6 UNK        -0.1800 
     44 N           3.1395  -17.4849  -39.1536 N.am      6 UNK        -0.5000 
     45 C           1.8920  -17.0012  -39.2386 C.2       5 UNK         0.5000 
     46 O           0.9253  -17.6573  -39.6267 O.2       5 UNK        -0.5000 
     47 CA          1.7168  -15.5116  -38.8871 C.3       5 UNK         0.1400 
     48 CB          1.6323  -15.3153  -37.3660 C.3       5 UNK        -0.1800 
     49 N           2.7911  -14.6741  -39.4335 N.am      5 UNK        -0.5000 
     50 C           3.0201  -14.5262  -40.7437 C.2       4 UNK         0.5000 
     51 O           2.3382  -15.0726  -41.6171 O.2       4 UNK        -0.5000 
     52 CA          4.2201  -13.6623  -41.1576 C.3       4 UNK         0.1400 
     53 CB          5.5405  -14.4379  -40.9938 C.3       4 UNK        -0.1800 
     54 N           4.0007  -13.3083  -42.5514 N.am      4 UNK        -0.5000 
     55 C           4.6298  -12.3942  -43.2948 C.2       3 UNK         0.5000 
     56 O           5.5936  -11.7306  -42.9118 O.2       3 UNK        -0.5000 
     57 CA          4.0397  -12.1674  -44.7021 C.3       3 UNK         0.1400 
     58 CB          4.6933  -13.1103  -45.7239 C.3       3 UNK        -0.1800 
     59 N           2.5880  -12.3755  -44.7188 N.am      3 UNK        -0.5000 
     60 C           1.6973  -11.5555  -44.1472 C.2       2 UNK         0.5000 
     61 O           1.9945  -10.4487  -43.6939 O.2       2 UNK        -0.5000 
     62 CA          0.2459  -12.0728  -44.0439 C.3       2 UNK         0.1400 
     63 CB         -0.7226  -11.0182  -43.4783 C.3       2 UNK        -0.1800 
     64 N          -0.2962  -12.5696  -45.3101 N.am      2 UNK        -0.5000 
     65 C          -0.0146  -13.7468  -45.8809 C.2       1 UNK         0.5000 
     66 O           0.8377  -14.5296  -45.4552 O.2       1 UNK        -0.5000 
     67 C          -1.7908  -21.2221  -46.8847 C.2       11 UNK         0.5000 
     68 O          -2.3087  -21.6610  -47.9083 O.2       11 UNK        -0.5000 
     69 N          -2.4461  -21.0981  -45.7224 N.am      12 UNK        -0.5000 
     70 CA         -3.8395  -21.5003  -45.5115 C.3       12 UNK         0.1400 
     71 CB         -4.2748  -21.1014  -44.0936 C.3       12 UNK        -0.1800 
     72 C          -4.1098  -22.9992  -45.7649 C.2       12 UNK         0.5000 
     73 O          -5.2454  -23.3534  -46.0818 O.2       12 UNK        -0.5000 
     74 N          -3.0729  -23.8397  -45.6450 N.am      13 UNK        -0.5000 
     75 CA         -3.1071  -25.2555  -45.9988 C.3       13 UNK         0.1400 
     76 CB         -2.3512  -26.0612  -44.9299 C.3       13 UNK        -0.1800 
     77 C          -2.4989  -25.4919  -47.3923 C.2       13 UNK         0.5000 
     78 O          -3.1166  -26.1666  -48.2165 O.2       13 UNK        -0.5000 
     79 N          -1.2956  -24.9494  -47.6286 N.am      14 UNK        -0.5000 
     80 CA         -0.4810  -25.2048  -48.8200 C.3       14 UNK         0.1400 
     81 CB          0.9477  -24.6986  -48.5674 C.3       14 UNK        -0.1800 
     82 C          -1.0392  -24.5975  -50.1201 C.2       14 UNK         0.5000 
     83 O          -0.8167  -25.1623  -51.1914 O.2       14 UNK        -0.5000 
     84 N          -1.7446  -23.4686  -50.0083 N.am      15 UNK        -0.5000 
     85 CA         -2.3565  -22.7313  -51.1085 C.3       15 UNK         0.1400 
     86 CB         -1.4690  -21.5275  -51.4721 C.3       15 UNK        -0.1800 
     87 C          -3.7821  -22.3262  -50.6990 C.2       15 UNK         0.5000 
     88 O          -4.1645  -21.1650  -50.8501 O.2       15 UNK        -0.5000 
     89 N          -4.5297  -23.2936  -50.1467 N.am      16 UNK        -0.5000 
     90 CA         -5.8771  -23.1395  -49.5954 C.3       16 UNK         0.1400 
     91 CB         -6.3951  -24.5162  -49.1505 C.3       16 UNK        -0.1800 
     92 C          -6.8600  -22.4711  -50.5772 C.2       16 UNK         0.5000 
     93 O          -7.1240  -23.0242  -51.6456 O.2       16 UNK        -0.5000 
     94 N          -7.3487  -21.2835  -50.1921 N.am      17 UNK        -0.5000 
     95 CA         -8.2390  -20.3844  -50.9401 C.3       17 UNK         0.1400 
     96 CB         -9.5745  -21.0766  -51.2861 C.3       17 UNK        -0.1800 
     97 C          -7.5950  -19.7040  -52.1709 C.2       17 UNK         0.5000 
     98 O          -8.3067  -19.0219  -52.9109 O.2       17 UNK        -0.5000 
     99 N          -6.2726  -19.8543  -52.3470 N.am      18 UNK        -0.5000 
    100 CA        -5.4450  -19.3092  -53.4275 C.3       18 UNK         0.1400 
    101 CB        -5.2644  -17.7860  -53.2406 C.3       18 UNK        -0.1800 
    102 C         -5.9419  -19.7195  -54.8337 C.2       18 UNK         0.5000 
    103 O         -6.4441  -20.8344  -54.9959 O.2       18 UNK        -0.5000 
    104 N         -5.7798  -18.8295  -55.8257 N.am      19 UNK        -0.5000 
    105 CA        -6.2347  -18.9512  -57.2158 C.3       19 UNK         0.1400 
    106 CB        -7.7699  -18.7927  -57.2854 C.3       19 UNK        -0.1800 
    107 C         -5.7109  -20.2363  -57.8884 C.2       19 UNK         0.5000 
    108 O         -4.5191  -20.3153  -58.1900 O.2       19 UNK        -0.5000 
    109 N         -6.5838  -21.2365  -58.0662 N.am      20 UNK        -0.5000 
    110 CA        -6.2602  -22.5601  -58.6025 C.3       20 UNK         0.1400 
    111 CB        -7.5619  -23.3555  -58.7837 C.3       20 UNK        -0.1800 
    112 C         -5.2550  -23.3571  -57.7450 C.2       20 UNK         0.5000 
    113 O         -4.5535  -24.2118  -58.2871 O.2       20 UNK        -0.5000 
    114 N         -5.1819  -23.0594  -56.4388 N.am      21 UNK        -0.5000 
    115 CA        -4.1963  -23.6352  -55.5225 C.3       21 UNK         0.1400 
    116 CB        -4.7155  -23.5213  -54.0818 C.3       21 UNK        -0.1800 
    117 C         -2.8067  -22.9794  -55.6604 C.2       21 UNK         0.5000 
    118 O         -1.8110  -23.6106  -55.3054 O.2       21 UNK        -0.5000 
    119 N         -2.7583  -21.7442  -56.1770 N.am      22 UNK        -0.5000 
    120 CA        -1.5205  -21.0340  -56.5342 C.3       22 UNK         0.1400 
    121 C         -1.0669  -21.3754  -57.9781 C.2       22 UNK         0.5000 
    122 N         -1.9717  -21.3964  -58.9494 N.am      22 UNK        -0.7600 
    123 O          0.1109  -21.6250  -58.2186 O.2       22 UNK        -0.5000 
    124 C124       -1.6578  -19.5002  -56.3647 C.3       23 UNK        -0.0398 
    125 S125       -1.9427  -19.0245  -54.6298 S.3       23 UNK        -0.2404 
    126 C126       -0.3848  -18.1715  -54.2404 C.3       23 UNK        -0.0205 
    127 H127       -4.1681  -16.9974  -46.3500 H         1 UNK         0.0600 
    128 H128       -3.1771  -17.2088  -44.9053 H         1 UNK         0.0600 
    129 H129       -2.5490  -17.6817  -46.4859 H         1 UNK         0.0600 
    130 H130       -1.0608  -16.1997  -47.2734 H         1 UNK         0.3000 
    131 H131       -1.5835  -13.3367  -47.2866 H         1 UNK         0.0600 
    132 H132        0.8205  -13.3688  -48.3589 H         1 UNK         0.0800 
    133 H133        0.6386  -15.0850  -48.4627 H         1 UNK         0.0800 
    134 H134       -2.2801  -15.7341  -49.3475 H         1 UNK         0.0800 
    135 H135       -2.6033  -15.1517  -50.9425 H         1 UNK         0.0800 
    136 H136       -1.6168  -16.1719  -52.8657 H         1 UNK         0.1150 
    137 H137        1.0297  -19.4952  -52.3309 H         1 UNK         0.1150 
    138 H138       -0.1260  -17.0965  -48.9703 H         1 UNK         0.1150 
    139 H139        1.0617  -20.3530  -49.8029 H         1 UNK         0.0800 
    140 H140        2.4400  -19.3218  -50.0857 H         1 UNK         0.0800 
    141 H141       -0.3873  -18.7141  -46.4859 H         1 UNK         0.0800 
    142 H142       -0.8543  -19.1129  -48.1198 H         1 UNK         0.0800 
    143 H143        0.1498  -21.4558  -47.7018 H         1 UNK         0.0600 
    144 H144        0.8645  -20.3935  -45.2018 H         1 UNK         0.3000 
    145 H145        1.0940  -23.5409  -43.4385 H         1 UNK         0.0600 
    146 H146        3.3143  -22.5228  -43.0746 H         1 UNK         0.0600 
    147 H147        3.1664  -23.0606  -44.7409 H         1 UNK         0.0600 
    148 H148        3.0297  -21.3498  -44.3566 H         1 UNK         0.0600 
    149 H149        1.3929  -20.8334  -42.5528 H         1 UNK         0.3000 
    150 H150       -1.9580  -20.4563  -41.3179 H         1 UNK         0.0600 
    151 H151       -0.6941  -21.6771  -39.5379 H         1 UNK         0.0600 
    152 H152       -0.7124  -19.9453  -39.2419 H         1 UNK         0.0600 
    153 H153        0.7377  -20.7145  -39.8837 H         1 UNK         0.0600 
    154 H154        0.2244  -18.6639  -41.2215 H         1 UNK         0.3000 
    155 H155       -0.2966  -17.1039  -44.4246 H         1 UNK         0.0600 
    156 H156       -0.5922  -16.2021  -41.5099 H         1 UNK         0.0600 
    157 H157       -1.8309  -16.0583  -42.7545 H         1 UNK         0.0600 
    158 H158       -0.3315  -15.1563  -42.9022 H         1 UNK         0.0600 
    159 H159        1.6880  -16.6089  -42.4872 H         1 UNK         0.3000 
    160 H160        4.1244  -18.9861  -43.6756 H         1 UNK         0.0600 
    161 H161        3.9108  -15.9301  -43.6145 H         1 UNK         0.0600 
    162 H162        4.3094  -16.9084  -45.0157 H         1 UNK         0.0600 
    163 H163        5.4108  -16.8572  -43.6484 H         1 UNK         0.0600 
    164 H164        4.0424  -17.1887  -41.4312 H         1 UNK         0.3000 
    165 H165        2.8578  -19.5431  -39.0393 H         1 UNK         0.0600 
    166 H166        5.0305  -19.0221  -37.9642 H         1 UNK         0.0600 
    167 H167        5.2717  -20.1296  -39.3057 H         1 UNK         0.0600 
    168 H168        5.6793  -18.4281  -39.4932 H         1 UNK         0.0600 
    169 H169        3.8723  -16.8732  -38.8261 H         1 UNK         0.3000 
    170 H170        0.7737  -15.1784  -39.3259 H         1 UNK         0.0600 
    171 H171        0.8308  -15.9198  -36.9390 H         1 UNK         0.0600 
    172 H172        2.5598  -15.6009  -36.8684 H         1 UNK         0.0600 
    173 H173        1.4223  -14.2756  -37.1142 H         1 UNK         0.0600 
    174 H174        3.3839  -14.1997  -38.7674 H         1 UNK         0.3000 
    175 H175        4.2344  -12.7539  -40.5527 H         1 UNK         0.0600 
    176 H176        5.5566  -15.3416  -41.6029 H         1 UNK         0.0600 
    177 H177        6.3974  -13.8289  -41.2816 H         1 UNK         0.0600 
    178 H178        5.6951  -14.7369  -39.9565 H         1 UNK         0.0600 
    179 H179        3.2025  -13.7905  -42.9476 H         1 UNK         0.3000 
    180 H180        4.2512  -11.1373  -44.9965 H         1 UNK         0.0600 
    181 H181        4.4968  -14.1573  -45.4905 H         1 UNK         0.0600 
    182 H182        5.7755  -12.9749  -45.7434 H         1 UNK         0.0600 
    183 H183        4.3231  -12.9168  -46.7308 H         1 UNK         0.0600 
    184 H184        2.2462  -13.2655  -45.0704 H         1 UNK         0.3000 
    185 H185        0.2689  -12.9023  -43.3348 H         1 UNK         0.0600 
    186 H186       -0.3961  -10.6693  -42.4977 H         1 UNK         0.0600 
    187 H187       -0.7954  -10.1475  -44.1311 H         1 UNK         0.0600 
    188 H188       -1.7245  -11.4298  -43.3540 H         1 UNK         0.0600 
    189 H189       -0.9929  -11.9808  -45.7434 H         1 UNK         0.3000 
    190 H190       -1.9751  -20.6624  -44.9345 H         1 UNK         0.3000 
    191 H191       -4.4504  -20.9406  -46.2226 H         1 UNK         0.0600 
    192 H192       -3.6676  -21.5939  -43.3340 H         1 UNK         0.0600 
    193 H193       -5.3149  -21.3744  -43.9112 H         1 UNK         0.0600 
    194 H194       -4.1919  -20.0249  -43.9439 H         1 UNK         0.0600 
    195 H195       -2.1688  -23.4584  -45.3951 H         1 UNK         0.3000 
    196 H196       -4.1376  -25.6167  -46.0188 H         1 UNK         0.0600 
    197 H197       -2.3500  -27.1250  -45.1708 H         1 UNK         0.0600 
    198 H198       -2.8198  -25.9496  -43.9520 H         1 UNK         0.0600 
    199 H199       -1.3120  -25.7430  -44.8381 H         1 UNK         0.0600 
    200 H200       -0.8493  -24.4037  -46.8939 H         1 UNK         0.3000 
    201 H201       -0.4336  -26.2866  -48.9619 H         1 UNK         0.0600 
    202 H202        1.3864  -25.1753  -47.6905 H         1 UNK         0.0600 
    203 H203        0.9700  -23.6204  -48.4078 H         1 UNK         0.0600 
    204 H204        1.5970  -24.9182  -49.4158 H         1 UNK         0.0600 
    205 H205       -1.9059  -23.0637  -49.0884 H         1 UNK         0.3000 
    206 H206       -2.4443  -23.3685  -51.9892 H         1 UNK         0.0600 
    207 H207       -0.4665  -21.8457  -51.7573 H         1 UNK         0.0600 
    208 H208       -1.8861  -20.9758  -52.3149 H         1 UNK         0.0600 
    209 H209       -1.3775  -20.8324  -50.6366 H         1 UNK         0.0600 
    210 H210       -4.1192  -24.2119  -50.0563 H         1 UNK         0.3000 
    211 H211       -5.7865  -22.5118  -48.7068 H         1 UNK         0.0600 
    212 H212       -6.4543  -25.2140  -49.9867 H         1 UNK         0.0600 
    213 H213       -7.3923  -24.4359  -48.7161 H         1 UNK         0.0600 
    214 H214       -5.7469  -24.9556  -48.3920 H         1 UNK         0.0600 
    215 H215       -7.0339  -20.9159  -49.3049 H         1 UNK         0.3000 
    216 H216       -8.4709  -19.5714  -50.2508 H         1 UNK         0.0600 
    217 H217      -10.2999  -20.3572  -51.6677 H         1 UNK         0.0600 
    218 H218      -10.0172  -21.5452  -50.4072 H         1 UNK         0.0600 
    219 H219       -9.4489  -21.8436  -52.0506 H         1 UNK         0.0600 
    220 H220       -5.7636  -20.4337  -51.6858 H         1 UNK         0.3000 
    221 H221       -4.4677  -19.7771  -53.3078 H         1 UNK         0.0600 
    222 H222       -6.1940  -17.2426  -53.4142 H         1 UNK         0.0600 
    223 H223       -4.9295  -17.5562  -52.2289 H         1 UNK         0.0600 
    224 H224       -4.5095  -17.3849  -53.9174 H         1 UNK         0.0600 
    225 H225       -5.3195  -17.9595  -55.5998 H         1 UNK         0.3000 
    226 H226       -5.7917  -18.1192  -57.7650 H         1 UNK         0.0600 
    227 H227       -8.0740  -17.8152  -56.9107 H         1 UNK         0.0600 
    228 H228       -8.1286  -18.8668  -58.3129 H         1 UNK         0.0600 
    229 H229       -8.2923  -19.5444  -56.6925 H         1 UNK         0.0600 
    230 H230       -7.5322  -21.1003  -57.7479 H         1 UNK         0.3000 
    231 H231       -5.8065  -22.4170  -59.5854 H         1 UNK         0.0600 
    232 H232       -7.3630  -24.3397  -59.2101 H         1 UNK         0.0600 
    233 H233       -8.2475  -22.8432  -59.4590 H         1 UNK         0.0600 
    234 H234       -8.0752  -23.5070  -57.8332 H         1 UNK         0.0600 
    235 H235       -5.7885  -22.3382  -56.0564 H         1 UNK         0.3000 
    236 H236       -4.0879  -24.6970  -55.7535 H         1 UNK         0.0600 
    237 H237       -5.7381  -23.8896  -53.9973 H         1 UNK         0.0600 
    238 H238       -4.1050  -24.1182  -53.4053 H         1 UNK         0.0600 
    239 H239       -4.7016  -22.4919  -53.7227 H         1 UNK         0.0600 
    240 H240       -3.6159  -21.3209  -56.5038 H         1 UNK         0.3000 
    241 H241       -0.7214  -21.3614  -55.8655 H         1 UNK         0.0600 
    242 H242       -1.6894  -21.6217  -59.8898 H         1 UNK         0.3800 
    243 H243       -2.9315  -21.1182  -58.7618 H         1 UNK         0.3800 
    244 H244       -0.7638  -18.9923  -56.7310 H         1 UNK         0.0800 
    245 H245       -2.4847  -19.1164  -56.9635 H         1 UNK         0.0800 
    246 H246        0.4574  -18.7932  -54.5484 H         1 UNK         0.0800 
    247 H247       -0.3198  -17.2484  -54.8184 H         1 UNK         0.0800 
@<TRIPOS>BOND
     1    1    2 1    
     2    1  127 1    
     3    1  128 1    
     4    1  129 1    
     5    2    3 2    
     6    2    4 am   BACKBONE|DICT|INTERRES
     7    4    5 1    
     8    4  130 1    
     9    5    6 1    
    10    5   65 1    
    11    5  131 1    
    12    6    7 1    
    13    6  132 1    
    14    6  133 1    
    15    7    8 1    
    16    8    9 1    
    17    8  134 1    
    18    8  135 1    
    19    9   10 ar   
    20    9   14 ar   
    21   10   11 ar   
    22   10  136 1    
    23   11   12 ar   
    24   11  126 1    
    25   12   13 ar   
    26   12  137 1    
    27   13   14 ar   
    28   13   15 1    
    29   14  138 1    
    30   15   16 1    
    31   15  139 1    
    32   15  140 1    
    33   16   17 1    
    34   17   18 1    
    35   17  141 1    
    36   17  142 1    
    37   18   19 1    
    38   18   67 1    
    39   18  143 1    
    40   19   20 am   BACKBONE|DICT|INTERRES
    41   19  144 1    
    42   20   21 2    
    43   20   22 1    
    44   22   23 1    
    45   22   24 1    
    46   22  145 1    
    47   23  146 1    
    48   23  147 1    
    49   23  148 1    
    50   24   25 am   BACKBONE|DICT|INTERRES
    51   24  149 1    
    52   25   26 2    
    53   25   27 1    
    54   27   28 1    
    55   27   29 1    
    56   27  150 1    
    57   28  151 1    
    58   28  152 1    
    59   28  153 1    
    60   29   30 am   BACKBONE|DICT|INTERRES
    61   29  154 1    
    62   30   31 2    
    63   30   32 1    
    64   32   33 1    
    65   32   34 1    
    66   32  155 1    
    67   33  156 1    
    68   33  157 1    
    69   33  158 1    
    70   34   35 am   BACKBONE|DICT|INTERRES
    71   34  159 1    
    72   35   36 2    
    73   35   37 1    
    74   37   38 1    
    75   37   39 1    
    76   37  160 1    
    77   38  161 1    
    78   38  162 1    
    79   38  163 1    
    80   39   40 am   BACKBONE|DICT|INTERRES
    81   39  164 1    
    82   40   41 2    
    83   40   42 1    
    84   42   43 1    
    85   42   44 1    
    86   42  165 1    
    87   43  166 1    
    88   43  167 1    
    89   43  168 1    
    90   44   45 am   BACKBONE|DICT|INTERRES
    91   44  169 1    
    92   45   46 2    
    93   45   47 1    
    94   47   48 1    
    95   47   49 1    
    96   47  170 1    
    97   48  171 1    
    98   48  172 1    
    99   48  173 1    
   100   49   50 am   BACKBONE|DICT|INTERRES
   101   49  174 1    
   102   50   51 2    
   103   50   52 1    
   104   52   53 1    
   105   52   54 1    
   106   52  175 1    
   107   53  176 1    
   108   53  177 1    
   109   53  178 1    
   110   54   55 am   BACKBONE|DICT|INTERRES
   111   54  179 1    
   112   55   56 2    
   113   55   57 1    
   114   57   58 1    
   115   57   59 1    
   116   57  180 1    
   117   58  181 1    
   118   58  182 1    
   119   58  183 1    
   120   59   60 am   BACKBONE|DICT|INTERRES
   121   59  184 1    
   122   60   61 2    
   123   60   62 1    
   124   62   63 1    
   125   62   64 1    
   126   62  185 1    
   127   63  186 1    
   128   63  187 1    
   129   63  188 1    
   130   64   65 am   BACKBONE|DICT|INTERRES
   131   64  189 1    
   132   65   66 2    
   133   67   68 2    
   134   67   69 am   BACKBONE|DICT|INTERRES
   135   69   70 1    
   136   69  190 1    
   137   70   71 1    
   138   70   72 1    
   139   70  191 1    
   140   71  192 1    
   141   71  193 1    
   142   71  194 1    
   143   72   73 2    
   144   72   74 am   BACKBONE|DICT|INTERRES
   145   74   75 1    
   146   74  195 1    
   147   75   76 1    
   148   75   77 1    
   149   75  196 1    
   150   76  197 1    
   151   76  198 1    
   152   76  199 1    
   153   77   78 2    
   154   77   79 am   BACKBONE|DICT|INTERRES
   155   79   80 1    
   156   79  200 1    
   157   80   81 1    
   158   80   82 1    
   159   80  201 1    
   160   81  202 1    
   161   81  203 1    
   162   81  204 1    
   163   82   83 2    
   164   82   84 am   BACKBONE|DICT|INTERRES
   165   84   85 1    
   166   84  205 1    
   167   85   86 1    
   168   85   87 1    
   169   85  206 1    
   170   86  207 1    
   171   86  208 1    
   172   86  209 1    
   173   87   88 2    
   174   87   89 am   BACKBONE|DICT|INTERRES
   175   89   90 1    
   176   89  210 1    
   177   90   91 1    
   178   90   92 1    
   179   90  211 1    
   180   91  212 1    
   181   91  213 1    
   182   91  214 1    
   183   92   93 2    
   184   92   94 am   BACKBONE|DICT|INTERRES
   185   94   95 1    
   186   94  215 1    
   187   95   96 1    
   188   95   97 1    
   189   95  216 1    
   190   96  217 1    
   191   96  218 1    
   192   96  219 1    
   193   97   98 2    
   194   97   99 am   BACKBONE|DICT|INTERRES
   195   99  100 1    
   196   99  220 1    
   197  100  101 1    
   198  100  102 1    
   199  100  221 1    
   200  101  222 1    
   201  101  223 1    
   202  101  224 1    
   203  102  103 2    
   204  102  104 am   BACKBONE|DICT|INTERRES
   205  104  105 1    
   206  104  225 1    
   207  105  106 1    
   208  105  107 1    
   209  105  226 1    
   210  106  227 1    
   211  106  228 1    
   212  106  229 1    
   213  107  108 2    
   214  107  109 am   BACKBONE|DICT|INTERRES
   215  109  110 1    
   216  109  230 1    
   217  110  111 1    
   218  110  112 1    
   219  110  231 1    
   220  111  232 1    
   221  111  233 1    
   222  111  234 1    
   223  112  113 2    
   224  112  114 am   BACKBONE|DICT|INTERRES
   225  114  115 1    
   226  114  235 1    
   227  115  116 1    
   228  115  117 1    
   229  115  236 1    
   230  116  237 1    
   231  116  238 1    
   232  116  239 1    
   233  117  118 2    
   234  117  119 am   BACKBONE|DICT|INTERRES
   235  119  120 1    
   236  119  240 1    
   237  120  121 1    
   238  120  124 1    
   239  120  241 1    
   240  121  122 am   BACKBONE|DICT|INTERRES
   241  121  123 2    
   242  122  242 1    
   243  122  243 1    
   244  124  125 1    
   245  124  244 1    
   246  124  245 1    
   247  125  126 1    
   248  126  246 1    
   249  126  247 1    
@<TRIPOS>SUBSTRUCTURE
     1 UNK         1 GROUP             0       ****    0 ROOT    
