@<TRIPOS>MOLECULE
3R540
247   249    1
SMALL
USER_CHARGES


@<TRIPOS>ATOM
      1 CA          2.6446  -16.1300  -51.4343 C.3       0 UNK        -0.1800 
      2 C           2.4850  -15.4962  -50.0591 C.2       0 UNK         0.5000 
      3 O           3.4401  -15.4678  -49.2829 O.2       0 UNK        -0.5000 
      4 N           1.2797  -15.0023  -49.7538 N.am      1 UNK        -0.5000 
      5 CA          0.9314  -14.3482  -48.4892 C.3       1 UNK         0.1400 
      6 C6         -0.5996  -14.1693  -48.3366 C.3       23 UNK        -0.0398 
      7 S7         -1.4865  -15.7561  -48.3504 S.3       23 UNK        -0.2404 
      8 C8         -3.1939  -15.1907  -48.1181 C.3       23 UNK        -0.0205 
      9 C9         -4.1502  -16.3681  -48.1732 C.ar      23 UNK        -0.0193 
     10 C10        -4.5402  -16.8897  -49.4076 C.ar      23 UNK        -0.1150 
     11 C11        -5.4006  -17.9868  -49.4780 C.ar      23 UNK        -0.0193 
     12 C12        -5.8902  -18.5542  -48.2981 C.ar      23 UNK        -0.1150 
     13 C13        -5.5097  -18.0373  -47.0548 C.ar      23 UNK        -0.0193 
     14 C14        -4.6366  -16.9460  -46.9986 C.ar      23 UNK        -0.1150 
     15 C15        -6.0466  -18.6510  -45.7705 C.3       23 UNK        -0.0205 
     16 S16        -5.3203  -20.2839  -45.4238 S.3       23 UNK        -0.2404 
     17 C17        -3.5442  -19.8940  -45.2466 C.3       23 UNK        -0.0398 
     18 CA         -2.6783  -20.5482  -46.3525 C.3       11 UNK         0.1400 
     19 N          -1.3543  -19.9262  -46.4587 N.am      11 UNK        -0.5000 
     20 C          -0.4416  -20.2155  -47.3982 C.2       10 UNK         0.5000 
     21 O          -0.6483  -20.9878  -48.3333 O.2       10 UNK        -0.5000 
     22 CA          0.9624  -19.6020  -47.2314 C.3       10 UNK         0.1400 
     23 CB          1.0306  -18.1810  -47.8000 C.3       10 UNK        -0.1800 
     24 N           1.4141  -19.5929  -45.8403 N.am      10 UNK        -0.5000 
     25 C           1.6563  -20.6980  -45.1225 C.2       9 UNK         0.5000 
     26 O           1.5781  -21.8376  -45.5791 O.2       9 UNK        -0.5000 
     27 CA          1.9982  -20.5030  -43.6357 C.3       9 UNK         0.1400 
     28 CB          3.4758  -20.1215  -43.4640 C.3       9 UNK        -0.1800 
     29 N           1.1471  -19.5036  -42.9883 N.am      9 UNK        -0.5000 
     30 C          -0.1804  -19.6181  -42.8371 C.2       8 UNK         0.5000 
     31 O          -0.8243  -20.6049  -43.1931 O.2       8 UNK        -0.5000 
     32 CA         -0.9220  -18.4099  -42.2342 C.3       8 UNK         0.1400 
     33 CB         -0.7738  -18.3799  -40.7064 C.3       8 UNK        -0.1800 
     34 N          -0.4777  -17.1354  -42.8014 N.am      8 UNK        -0.5000 
     35 C          -0.6146  -16.7951  -44.0910 C.2       7 UNK         0.5000 
     36 O          -1.1737  -17.5033  -44.9259 O.2       7 UNK        -0.5000 
     37 CA          0.0307  -15.4721  -44.5375 C.3       7 UNK         0.1400 
     38 CB         -0.8843  -14.2735  -44.2495 C.3       7 UNK        -0.1800 
     39 N           1.3410  -15.2665  -43.9193 N.am      7 UNK        -0.5000 
     40 C           2.4220  -16.0073  -44.2044 C.2       6 UNK         0.5000 
     41 O           2.4416  -16.8793  -45.0723 O.2       6 UNK        -0.5000 
     42 CA          3.6723  -15.7674  -43.3418 C.3       6 UNK         0.1400 
     43 CB          4.4992  -14.5935  -43.8833 C.3       6 UNK        -0.1800 
     44 N           3.3344  -15.5314  -41.9370 N.am      6 UNK        -0.5000 
     45 C           2.8896  -16.4903  -41.1121 C.2       5 UNK         0.5000 
     46 O           2.7389  -17.6617  -41.4544 O.2       5 UNK        -0.5000 
     47 CA          2.5179  -16.0800  -39.6758 C.3       5 UNK         0.1400 
     48 CB          3.7374  -16.2048  -38.7507 C.3       5 UNK        -0.1800 
     49 N           1.9674  -14.7296  -39.5654 N.am      5 UNK        -0.5000 
     50 C           0.8488  -14.2927  -40.1594 C.2       4 UNK         0.5000 
     51 O           0.1588  -14.9885  -40.9071 O.2       4 UNK        -0.5000 
     52 CA          0.4361  -12.8275  -39.8941 C.3       4 UNK         0.1400 
     53 CB          1.3637  -12.0804  -38.9088 C.3       4 UNK        -0.1800 
     54 N           0.2953  -12.0394  -41.1233 N.am      4 UNK        -0.5000 
     55 C           1.1946  -11.9106  -42.1078 C.2       3 UNK         0.5000 
     56 O           2.2570  -12.5372  -42.1693 O.2       3 UNK        -0.5000 
     57 CA          0.8524  -10.8918  -43.2027 C.3       3 UNK         0.1400 
     58 CB          1.1005   -9.4536  -42.7108 C.3       3 UNK        -0.1800 
     59 N           1.6793  -11.1696  -44.3712 N.am      3 UNK        -0.5000 
     60 C           1.4198  -10.7751  -45.6214 C.2       2 UNK         0.5000 
     61 O           0.4409  -10.0982  -45.9370 O.2       2 UNK        -0.5000 
     62 CA          2.3746  -11.2714  -46.7148 C.3       2 UNK         0.1400 
     63 CB          3.8502  -11.3207  -46.2754 C.3       2 UNK        -0.1800 
     64 N           1.9246  -12.6037  -47.1019 N.am      2 UNK        -0.5000 
     65 C           1.6234  -12.9776  -48.3492 C.2       1 UNK         0.5000 
     66 O           1.8119  -12.2761  -49.3467 O.2       1 UNK        -0.5000 
     67 C          -2.5688  -22.0751  -46.1486 C.2       11 UNK         0.5000 
     68 O          -3.2092  -22.8347  -46.8749 O.2       11 UNK        -0.5000 
     69 N          -1.7257  -22.4968  -45.1946 N.am      12 UNK        -0.5000 
     70 CA         -1.4536  -23.9015  -44.8854 C.3       12 UNK         0.1400 
     71 CB         -0.5862  -23.9874  -43.6208 C.3       12 UNK        -0.1800 
     72 C          -0.8013  -24.6691  -46.0512 C.2       12 UNK         0.5000 
     73 O          -1.1046  -25.8465  -46.2410 O.2       12 UNK        -0.5000 
     74 N           0.0616  -23.9909  -46.8193 N.am      13 UNK        -0.5000 
     75 CA          0.6782  -24.5194  -48.0347 C.3       13 UNK         0.1400 
     76 CB          1.8576  -23.6239  -48.4442 C.3       13 UNK        -0.1800 
     77 C          -0.3252  -24.6669  -49.1940 C.2       13 UNK         0.5000 
     78 O          -0.2483  -25.6499  -49.9302 O.2       13 UNK        -0.5000 
     79 N          -1.2390  -23.6965  -49.3388 N.am      14 UNK        -0.5000 
     80 CA         -2.2800  -23.6840  -50.3687 C.3       14 UNK         0.1400 
     81 CB         -2.8517  -22.2628  -50.4971 C.3       14 UNK        -0.1800 
     82 C          -3.4096  -24.6985  -50.1061 C.2       14 UNK         0.5000 
     83 O          -4.0006  -25.2111  -51.0580 O.2       14 UNK        -0.5000 
     84 N          -3.7014  -24.9673  -48.8256 N.am      15 UNK        -0.5000 
     85 CA         -4.7091  -25.9236  -48.3681 C.3       15 UNK         0.1400 
     86 CB         -4.7710  -25.9064  -46.8326 C.3       15 UNK        -0.1800 
     87 C          -4.4417  -27.3462  -48.8978 C.2       15 UNK         0.5000 
     88 O          -3.3816  -27.9121  -48.6237 O.2       15 UNK        -0.5000 
     89 N          -5.4090  -27.8756  -49.6609 N.am      16 UNK        -0.5000 
     90 CA         -5.3819  -29.1674  -50.3598 C.3       16 UNK         0.1400 
     91 CB         -5.3400  -30.3385  -49.3548 C.3       16 UNK        -0.1800 
     92 C          -4.2876  -29.2675  -51.4487 C.2       16 UNK         0.5000 
     93 O          -3.8344  -30.3704  -51.7619 O.2       16 UNK        -0.5000 
     94 N          -3.8958  -28.1232  -52.0210 N.am      17 UNK        -0.5000 
     95 CA         -2.9171  -27.9988  -53.0972 C.3       17 UNK         0.1400 
     96 CB         -1.5332  -27.6950  -52.4900 C.3       17 UNK        -0.1800 
     97 C          -3.3972  -26.9294  -54.0969 C.2       17 UNK         0.5000 
     98 O          -4.6056  -26.7205  -54.2372 O.2       17 UNK        -0.5000 
     99 N          -2.4530  -26.2805  -54.7914 N.am      18 UNK        -0.5000 
    100 CA        -2.7033  -25.1379  -55.6712 C.3       18 UNK         0.1400 
    101 CB        -1.4254  -24.8339  -56.4685 C.3       18 UNK        -0.1800 
    102 C         -3.1454  -23.8983  -54.8706 C.2       18 UNK         0.5000 
    103 O         -2.7160  -23.7237  -53.7299 O.2       18 UNK        -0.5000 
    104 N         -3.9727  -23.0488  -55.4931 N.am      19 UNK        -0.5000 
    105 CA        -4.5896  -21.8721  -54.8706 C.3       19 UNK         0.1400 
    106 CB        -5.6232  -21.2841  -55.8428 C.3       19 UNK        -0.1800 
    107 C         -3.5975  -20.7830  -54.4150 C.2       19 UNK         0.5000 
    108 O         -3.9323  -20.0102  -53.5162 O.2       19 UNK        -0.5000 
    109 N         -2.4070  -20.7408  -55.0337 N.am      20 UNK        -0.5000 
    110 CA        -1.2930  -19.8333  -54.7424 C.3       20 UNK         0.1400 
    111 CB        -0.6406  -20.2110  -53.3922 C.3       20 UNK        -0.1800 
    112 C         -1.7313  -18.3573  -54.8402 C.2       20 UNK         0.5000 
    113 O         -2.1017  -17.9120  -55.9281 O.2       20 UNK        -0.5000 
    114 N         -1.7347  -17.6410  -53.7084 N.am      21 UNK        -0.5000 
    115 CA        -2.1890  -16.2547  -53.5803 C.3       21 UNK         0.1400 
    116 CB        -1.8318  -15.7461  -52.1749 C.3       21 UNK        -0.1800 
    117 C         -3.6867  -16.0402  -53.8936 C.2       21 UNK         0.5000 
    118 O         -4.0679  -14.9170  -54.2258 O.2       21 UNK        -0.5000 
    119 N         -4.4973  -17.1051  -53.8198 N.am      22 UNK        -0.5000 
    120 CA        -5.8966  -17.1218  -54.2806 C.3       22 UNK         0.1400 
    121 C         -6.0472  -17.4476  -55.7976 C.2       22 UNK         0.5000 
    122 N         -4.9830  -17.7127  -56.5478 N.am      22 UNK        -0.7600 
    123 O         -7.1604  -17.4460  -56.3156 O.2       22 UNK        -0.5000 
    124 C124       -6.7862  -18.0517  -53.4120 C.3       23 UNK        -0.0398 
    125 S125       -6.9446  -17.4557  -51.6964 S.3       23 UNK        -0.2404 
    126 C126       -5.7776  -18.5524  -50.8359 C.3       23 UNK        -0.0205 
    127 H127        3.4319  -15.6229  -51.9920 H         1 UNK         0.0600 
    128 H128        1.7256  -16.0745  -52.0179 H         1 UNK         0.0600 
    129 H129        2.9189  -17.1801  -51.3327 H         1 UNK         0.0600 
    130 H130        0.5380  -15.0441  -50.4358 H         1 UNK         0.3000 
    131 H131        1.2884  -14.9913  -47.6817 H         1 UNK         0.0600 
    132 H132       -0.9963  -13.5419  -49.1373 H         1 UNK         0.0800 
    133 H133       -0.8385  -13.6627  -47.3994 H         1 UNK         0.0800 
    134 H134       -3.2799  -14.6700  -47.1632 H         1 UNK         0.0800 
    135 H135       -3.4514  -14.4692  -48.8951 H         1 UNK         0.0800 
    136 H136       -4.1733  -16.4427  -50.3193 H         1 UNK         0.1150 
    137 H137       -6.5598  -19.4016  -48.3434 H         1 UNK         0.1150 
    138 H138       -4.3306  -16.5480  -46.0412 H         1 UNK         0.1150 
    139 H139       -5.8673  -17.9915  -44.9199 H         1 UNK         0.0800 
    140 H140       -7.1294  -18.7567  -45.8501 H         1 UNK         0.0800 
    141 H141       -3.2184  -20.2011  -44.2522 H         1 UNK         0.0800 
    142 H142       -3.4198  -18.8123  -45.2693 H         1 UNK         0.0800 
    143 H143       -3.1723  -20.3779  -47.3119 H         1 UNK         0.0600 
    144 H144       -1.1289  -19.2209  -45.7626 H         1 UNK         0.3000 
    145 H145        1.6565  -20.2211  -47.8033 H         1 UNK         0.0600 
    146 H146        2.0592  -17.8220  -47.8394 H         1 UNK         0.0600 
    147 H147        0.6284  -18.1368  -48.8130 H         1 UNK         0.0600 
    148 H148        0.4635  -17.4857  -47.1835 H         1 UNK         0.0600 
    149 H149        1.5453  -18.6838  -45.4092 H         1 UNK         0.3000 
    150 H150        1.8341  -21.4568  -43.1304 H         1 UNK         0.0600 
    151 H151        4.1273  -20.8555  -43.9399 H         1 UNK         0.0600 
    152 H152        3.7510  -20.0784  -42.4102 H         1 UNK         0.0600 
    153 H153        3.6951  -19.1497  -43.9073 H         1 UNK         0.0600 
    154 H154        1.6181  -18.6862  -42.6103 H         1 UNK         0.3000 
    155 H155       -1.9829  -18.5220  -42.4676 H         1 UNK         0.0600 
    156 H156       -1.3143  -17.5383  -40.2727 H         1 UNK         0.0600 
    157 H157       -1.1744  -19.2907  -40.2597 H         1 UNK         0.0600 
    158 H158        0.2697  -18.3002  -40.4042 H         1 UNK         0.0600 
    159 H159       -0.0555  -16.4682  -42.1623 H         1 UNK         0.3000 
    160 H160        0.1702  -15.5307  -45.6178 H         1 UNK         0.0600 
    161 H161       -1.0469  -14.1342  -43.1806 H         1 UNK         0.0600 
    162 H162       -1.8613  -14.4119  -44.7146 H         1 UNK         0.0600 
    163 H163       -0.4640  -13.3516  -44.6502 H         1 UNK         0.0600 
    164 H164        1.3941  -14.6141  -43.1485 H         1 UNK         0.3000 
    165 H165        4.2905  -16.6659  -43.4010 H         1 UNK         0.0600 
    166 H166        5.4365  -14.4885  -43.3369 H         1 UNK         0.0600 
    167 H167        4.7500  -14.7421  -44.9346 H         1 UNK         0.0600 
    168 H168        3.9599  -13.6516  -43.8029 H         1 UNK         0.0600 
    169 H169        3.3764  -14.5759  -41.6067 H         1 UNK         0.3000 
    170 H170        1.7537  -16.7745  -39.3228 H         1 UNK         0.0600 
    171 H171        4.1573  -17.2108  -38.7916 H         1 UNK         0.0600 
    172 H172        4.5280  -15.5073  -39.0304 H         1 UNK         0.0600 
    173 H173        3.4676  -16.0093  -37.7126 H         1 UNK         0.0600 
    174 H174        2.4822  -14.0818  -38.9870 H         1 UNK         0.3000 
    175 H175       -0.5554  -12.8753  -39.4418 H         1 UNK         0.0600 
    176 H176        1.4175  -12.5904  -37.9461 H         1 UNK         0.0600 
    177 H177        2.3783  -11.9802  -39.2969 H         1 UNK         0.0600 
    178 H178        0.9896  -11.0755  -38.7120 H         1 UNK         0.0600 
    179 H179       -0.5626  -11.5103  -41.1923 H         1 UNK         0.3000 
    180 H180       -0.1997  -11.0145  -43.4687 H         1 UNK         0.0600 
    181 H181        2.1476   -9.2961  -42.4491 H         1 UNK         0.0600 
    182 H182        0.5034   -9.2301  -41.8260 H         1 UNK         0.0600 
    183 H183        0.8328   -8.7206  -43.4718 H         1 UNK         0.0600 
    184 H184        2.4862  -11.7466  -44.1702 H         1 UNK         0.3000 
    185 H185        2.2934  -10.5709  -47.5489 H         1 UNK         0.0600 
    186 H186        4.4952  -11.5631  -47.1201 H         1 UNK         0.0600 
    187 H187        4.1755  -10.3548  -45.8867 H         1 UNK         0.0600 
    188 H188        4.0301  -12.0677  -45.5041 H         1 UNK         0.0600 
    189 H189        1.7122  -13.2289  -46.3382 H         1 UNK         0.3000 
    190 H190       -1.2556  -21.8059  -44.6151 H         1 UNK         0.3000 
    191 H191       -2.4111  -24.3815  -44.6728 H         1 UNK         0.0600 
    192 H192        0.3816  -23.5063  -43.7630 H         1 UNK         0.0600 
    193 H193       -0.3995  -25.0260  -43.3450 H         1 UNK         0.0600 
    194 H194       -1.0761  -23.5080  -42.7731 H         1 UNK         0.0600 
    195 H195        0.3263  -23.0510  -46.5416 H         1 UNK         0.3000 
    196 H196        1.0736  -25.5121  -47.8091 H         1 UNK         0.0600 
    197 H197        2.3565  -24.0177  -49.3305 H         1 UNK         0.0600 
    198 H198        2.6021  -23.5649  -47.6502 H         1 UNK         0.0600 
    199 H199        1.5328  -22.6092  -48.6742 H         1 UNK         0.0600 
    200 H200       -1.1958  -22.8864  -48.7285 H         1 UNK         0.3000 
    201 H201       -1.8116  -23.9498  -51.3175 H         1 UNK         0.0600 
    202 H202       -2.0691  -21.5447  -50.7401 H         1 UNK         0.0600 
    203 H203       -3.3306  -21.9352  -49.5736 H         1 UNK         0.0600 
    204 H204       -3.5959  -22.2118  -51.2932 H         1 UNK         0.0600 
    205 H205       -3.2132  -24.4456  -48.1055 H         1 UNK         0.3000 
    206 H206       -5.6743  -25.5803  -48.7454 H         1 UNK         0.0600 
    207 H207       -5.0279  -24.9154  -46.4580 H         1 UNK         0.0600 
    208 H208       -5.5281  -26.5999  -46.4648 H         1 UNK         0.0600 
    209 H209       -3.8179  -26.1955  -46.3890 H         1 UNK         0.0600 
    210 H210       -6.2305  -27.3141  -49.8379 H         1 UNK         0.3000 
    211 H211       -6.3308  -29.2355  -50.8934 H         1 UNK         0.0600 
    212 H212       -4.3839  -30.3925  -48.8335 H         1 UNK         0.0600 
    213 H213       -5.4890  -31.2935  -49.8600 H         1 UNK         0.0600 
    214 H214       -6.1262  -30.2444  -48.6058 H         1 UNK         0.0600 
    215 H215       -4.3133  -27.2473  -51.7238 H         1 UNK         0.3000 
    216 H216       -2.8580  -28.9367  -53.6526 H         1 UNK         0.0600 
    217 H217       -1.5082  -26.7008  -52.0427 H         1 UNK         0.0600 
    218 H218       -0.7445  -27.7457  -53.2410 H         1 UNK         0.0600 
    219 H219       -1.2769  -28.4135  -51.7111 H         1 UNK         0.0600 
    220 H220       -1.4853  -26.4883  -54.5958 H         1 UNK         0.3000 
    221 H221       -3.4976  -25.4097  -56.3697 H         1 UNK         0.0600 
    222 H222       -1.1134  -25.6960  -57.0583 H         1 UNK         0.0600 
    223 H223       -0.5984  -24.5577  -55.8129 H         1 UNK         0.0600 
    224 H224       -1.5839  -24.0075  -57.1625 H         1 UNK         0.0600 
    225 H225       -4.2610  -23.2545  -56.4389 H         1 UNK         0.3000 
    226 H226       -5.1185  -22.2139  -53.9784 H         1 UNK         0.0600 
    227 H227       -6.3704  -22.0263  -56.1242 H         1 UNK         0.0600 
    228 H228       -6.1572  -20.4494  -55.3895 H         1 UNK         0.0600 
    229 H229       -5.1533  -20.9151  -56.7554 H         1 UNK         0.0600 
    230 H230       -2.2498  -21.4010  -55.7807 H         1 UNK         0.3000 
    231 H231       -0.5492  -19.9863  -55.5255 H         1 UNK         0.0600 
    232 H232       -1.3295  -20.1012  -52.5544 H         1 UNK         0.0600 
    233 H233        0.2353  -19.5932  -53.1898 H         1 UNK         0.0600 
    234 H234       -0.3053  -21.2484  -53.4015 H         1 UNK         0.0600 
    235 H235       -1.4523  -18.1014  -52.8558 H         1 UNK         0.3000 
    236 H236       -1.6313  -15.6572  -54.3044 H         1 UNK         0.0600 
    237 H237       -0.7520  -15.6799  -52.0496 H         1 UNK         0.0600 
    238 H238       -2.2403  -14.7510  -51.9931 H         1 UNK         0.0600 
    239 H239       -2.2131  -16.4089  -51.3993 H         1 UNK         0.0600 
    240 H240       -4.1084  -18.0087  -53.5697 H         1 UNK         0.3000 
    241 H241       -6.3028  -16.1143  -54.1737 H         1 UNK         0.0600 
    242 H242       -5.1148  -17.9057  -57.5276 H         1 UNK         0.3800 
    243 H243       -4.0423  -17.7024  -56.1682 H         1 UNK         0.3800 
    244 H244       -6.4089  -19.0743  -53.4178 H         1 UNK         0.0800 
    245 H245       -7.7980  -18.1041  -53.8177 H         1 UNK         0.0800 
    246 H246       -6.2140  -19.5476  -50.7399 H         1 UNK         0.0800 
    247 H247       -4.8699  -18.6674  -51.4287 H         1 UNK         0.0800 
@<TRIPOS>BOND
     1    1    2 1    
     2    1  127 1    
     3    1  128 1    
     4    1  129 1    
     5    2    3 2    
     6    2    4 am   BACKBONE|DICT|INTERRES
     7    4    5 1    
     8    4  130 1    
     9    5    6 1    
    10    5   65 1    
    11    5  131 1    
    12    6    7 1    
    13    6  132 1    
    14    6  133 1    
    15    7    8 1    
    16    8    9 1    
    17    8  134 1    
    18    8  135 1    
    19    9   10 ar   
    20    9   14 ar   
    21   10   11 ar   
    22   10  136 1    
    23   11   12 ar   
    24   11  126 1    
    25   12   13 ar   
    26   12  137 1    
    27   13   14 ar   
    28   13   15 1    
    29   14  138 1    
    30   15   16 1    
    31   15  139 1    
    32   15  140 1    
    33   16   17 1    
    34   17   18 1    
    35   17  141 1    
    36   17  142 1    
    37   18   19 1    
    38   18   67 1    
    39   18  143 1    
    40   19   20 am   BACKBONE|DICT|INTERRES
    41   19  144 1    
    42   20   21 2    
    43   20   22 1    
    44   22   23 1    
    45   22   24 1    
    46   22  145 1    
    47   23  146 1    
    48   23  147 1    
    49   23  148 1    
    50   24   25 am   BACKBONE|DICT|INTERRES
    51   24  149 1    
    52   25   26 2    
    53   25   27 1    
    54   27   28 1    
    55   27   29 1    
    56   27  150 1    
    57   28  151 1    
    58   28  152 1    
    59   28  153 1    
    60   29   30 am   BACKBONE|DICT|INTERRES
    61   29  154 1    
    62   30   31 2    
    63   30   32 1    
    64   32   33 1    
    65   32   34 1    
    66   32  155 1    
    67   33  156 1    
    68   33  157 1    
    69   33  158 1    
    70   34   35 am   BACKBONE|DICT|INTERRES
    71   34  159 1    
    72   35   36 2    
    73   35   37 1    
    74   37   38 1    
    75   37   39 1    
    76   37  160 1    
    77   38  161 1    
    78   38  162 1    
    79   38  163 1    
    80   39   40 am   BACKBONE|DICT|INTERRES
    81   39  164 1    
    82   40   41 2    
    83   40   42 1    
    84   42   43 1    
    85   42   44 1    
    86   42  165 1    
    87   43  166 1    
    88   43  167 1    
    89   43  168 1    
    90   44   45 am   BACKBONE|DICT|INTERRES
    91   44  169 1    
    92   45   46 2    
    93   45   47 1    
    94   47   48 1    
    95   47   49 1    
    96   47  170 1    
    97   48  171 1    
    98   48  172 1    
    99   48  173 1    
   100   49   50 am   BACKBONE|DICT|INTERRES
   101   49  174 1    
   102   50   51 2    
   103   50   52 1    
   104   52   53 1    
   105   52   54 1    
   106   52  175 1    
   107   53  176 1    
   108   53  177 1    
   109   53  178 1    
   110   54   55 am   BACKBONE|DICT|INTERRES
   111   54  179 1    
   112   55   56 2    
   113   55   57 1    
   114   57   58 1    
   115   57   59 1    
   116   57  180 1    
   117   58  181 1    
   118   58  182 1    
   119   58  183 1    
   120   59   60 am   BACKBONE|DICT|INTERRES
   121   59  184 1    
   122   60   61 2    
   123   60   62 1    
   124   62   63 1    
   125   62   64 1    
   126   62  185 1    
   127   63  186 1    
   128   63  187 1    
   129   63  188 1    
   130   64   65 am   BACKBONE|DICT|INTERRES
   131   64  189 1    
   132   65   66 2    
   133   67   68 2    
   134   67   69 am   BACKBONE|DICT|INTERRES
   135   69   70 1    
   136   69  190 1    
   137   70   71 1    
   138   70   72 1    
   139   70  191 1    
   140   71  192 1    
   141   71  193 1    
   142   71  194 1    
   143   72   73 2    
   144   72   74 am   BACKBONE|DICT|INTERRES
   145   74   75 1    
   146   74  195 1    
   147   75   76 1    
   148   75   77 1    
   149   75  196 1    
   150   76  197 1    
   151   76  198 1    
   152   76  199 1    
   153   77   78 2    
   154   77   79 am   BACKBONE|DICT|INTERRES
   155   79   80 1    
   156   79  200 1    
   157   80   81 1    
   158   80   82 1    
   159   80  201 1    
   160   81  202 1    
   161   81  203 1    
   162   81  204 1    
   163   82   83 2    
   164   82   84 am   BACKBONE|DICT|INTERRES
   165   84   85 1    
   166   84  205 1    
   167   85   86 1    
   168   85   87 1    
   169   85  206 1    
   170   86  207 1    
   171   86  208 1    
   172   86  209 1    
   173   87   88 2    
   174   87   89 am   BACKBONE|DICT|INTERRES
   175   89   90 1    
   176   89  210 1    
   177   90   91 1    
   178   90   92 1    
   179   90  211 1    
   180   91  212 1    
   181   91  213 1    
   182   91  214 1    
   183   92   93 2    
   184   92   94 am   BACKBONE|DICT|INTERRES
   185   94   95 1    
   186   94  215 1    
   187   95   96 1    
   188   95   97 1    
   189   95  216 1    
   190   96  217 1    
   191   96  218 1    
   192   96  219 1    
   193   97   98 2    
   194   97   99 am   BACKBONE|DICT|INTERRES
   195   99  100 1    
   196   99  220 1    
   197  100  101 1    
   198  100  102 1    
   199  100  221 1    
   200  101  222 1    
   201  101  223 1    
   202  101  224 1    
   203  102  103 2    
   204  102  104 am   BACKBONE|DICT|INTERRES
   205  104  105 1    
   206  104  225 1    
   207  105  106 1    
   208  105  107 1    
   209  105  226 1    
   210  106  227 1    
   211  106  228 1    
   212  106  229 1    
   213  107  108 2    
   214  107  109 am   BACKBONE|DICT|INTERRES
   215  109  110 1    
   216  109  230 1    
   217  110  111 1    
   218  110  112 1    
   219  110  231 1    
   220  111  232 1    
   221  111  233 1    
   222  111  234 1    
   223  112  113 2    
   224  112  114 am   BACKBONE|DICT|INTERRES
   225  114  115 1    
   226  114  235 1    
   227  115  116 1    
   228  115  117 1    
   229  115  236 1    
   230  116  237 1    
   231  116  238 1    
   232  116  239 1    
   233  117  118 2    
   234  117  119 am   BACKBONE|DICT|INTERRES
   235  119  120 1    
   236  119  240 1    
   237  120  121 1    
   238  120  124 1    
   239  120  241 1    
   240  121  122 am   BACKBONE|DICT|INTERRES
   241  121  123 2    
   242  122  242 1    
   243  122  243 1    
   244  124  125 1    
   245  124  244 1    
   246  124  245 1    
   247  125  126 1    
   248  126  246 1    
   249  126  247 1    
@<TRIPOS>SUBSTRUCTURE
     1 UNK         1 GROUP             0       ****    0 ROOT    
