@<TRIPOS>MOLECULE
3R540
247   249    1
SMALL
USER_CHARGES


@<TRIPOS>ATOM
      1 CA         -2.0091  -19.7551  -41.0814 C.3       0 UNK        -0.1800 
      2 C          -2.5998  -18.3540  -41.1692 C.2       0 UNK         0.5000 
      3 O          -2.5698  -17.6205  -40.1815 O.2       0 UNK        -0.5000 
      4 N          -3.1408  -17.9804  -42.3379 N.am      1 UNK        -0.5000 
      5 CA         -3.7459  -16.6663  -42.6005 C.3       1 UNK         0.1400 
      6 C6         -4.5721  -16.6592  -43.9143 C.3       23 UNK        -0.0398 
      7 S7         -3.5846  -17.0627  -45.3970 S.3       23 UNK        -0.2404 
      8 C8         -4.8720  -17.4067  -46.6318 C.3       23 UNK        -0.0205 
      9 C9         -4.2470  -17.8494  -47.9465 C.ar      23 UNK        -0.0193 
     10 C10        -3.6356  -16.9081  -48.7780 C.ar      23 UNK        -0.1150 
     11 C11        -3.0255  -17.3007  -49.9707 C.ar      23 UNK        -0.0193 
     12 C12        -3.0714  -18.6428  -50.3549 C.ar      23 UNK        -0.1150 
     13 C13        -3.6798  -19.5990  -49.5351 C.ar      23 UNK        -0.0193 
     14 C14        -4.2622  -19.1947  -48.3288 C.ar      23 UNK        -0.1150 
     15 C15        -3.7085  -21.0698  -49.9401 C.3       23 UNK        -0.0205 
     16 S16        -2.0918  -21.7235  -50.4859 S.3       23 UNK        -0.2404 
     17 C17        -0.9899  -21.3038  -49.0945 C.3       23 UNK        -0.0398 
     18 CA         -0.7521  -22.4522  -48.0844 C.3       11 UNK         0.1400 
     19 N           0.3825  -22.1467  -47.2053 N.am      11 UNK        -0.5000 
     20 C           0.8800  -22.9566  -46.2595 C.2       10 UNK         0.5000 
     21 O           0.4667  -24.0945  -46.0432 O.2       10 UNK        -0.5000 
     22 CA          2.0012  -22.3851  -45.3736 C.3       10 UNK         0.1400 
     23 CB          3.3546  -22.4571  -46.0958 C.3       10 UNK        -0.1800 
     24 N           1.7407  -21.0103  -44.9444 N.am      10 UNK        -0.5000 
     25 C           0.7170  -20.6379  -44.1620 C.2       9 UNK         0.5000 
     26 O          -0.1001  -21.4221  -43.6833 O.2       9 UNK        -0.5000 
     27 CA          0.5289  -19.1278  -43.9280 C.3       9 UNK         0.1400 
     28 CB          1.5131  -18.5990  -42.8759 C.3       9 UNK        -0.1800 
     29 N           0.6451  -18.3500  -45.1613 N.am      9 UNK        -0.5000 
     30 C          -0.1489  -18.5195  -46.2296 C.2       8 UNK         0.5000 
     31 O          -1.0873  -19.3141  -46.2641 O.2       8 UNK        -0.5000 
     32 CA          0.1938  -17.6964  -47.4793 C.3       8 UNK         0.1400 
     33 CB         -0.3553  -16.2734  -47.3507 C.3       8 UNK        -0.1800 
     34 N           1.6352  -17.6390  -47.7172 N.am      8 UNK        -0.5000 
     35 C           2.3768  -18.6873  -48.0989 C.2       7 UNK         0.5000 
     36 O           1.9192  -19.8090  -48.3170 O.2       7 UNK        -0.5000 
     37 CA          3.8945  -18.4508  -48.1943 C.3       7 UNK         0.1400 
     38 CB          4.2542  -17.6931  -49.4804 C.3       7 UNK        -0.1800 
     39 N           4.4171  -17.7231  -47.0374 N.am      7 UNK        -0.5000 
     40 C           4.4275  -18.2057  -45.7871 C.2       6 UNK         0.5000 
     41 O           4.0102  -19.3218  -45.4826 O.2       6 UNK        -0.5000 
     42 CA          4.9643  -17.2815  -44.6798 C.3       6 UNK         0.1400 
     43 CB          6.4745  -17.4915  -44.4948 C.3       6 UNK        -0.1800 
     44 N           4.7007  -15.8566  -44.8903 N.am      6 UNK        -0.5000 
     45 C           3.4965  -15.2939  -45.0600 C.2       5 UNK         0.5000 
     46 O           2.4481  -15.9394  -45.1468 O.2       5 UNK        -0.5000 
     47 CA          3.4517  -13.7510  -45.1115 C.3       5 UNK         0.1400 
     48 CB          4.8177  -13.0879  -45.4019 C.3       5 UNK        -0.1800 
     49 N           2.4338  -13.2437  -46.0330 N.am      5 UNK        -0.5000 
     50 C           2.3586  -13.4474  -47.3569 C.2       4 UNK         0.5000 
     51 O           3.1477  -14.1474  -47.9937 O.2       4 UNK        -0.5000 
     52 CA          1.1688  -12.7692  -48.0586 C.3       4 UNK         0.1400 
     53 CB          0.9871  -13.1991  -49.5258 C.3       4 UNK        -0.1800 
     54 N          -0.0404  -13.0630  -47.2953 N.am      4 UNK        -0.5000 
     55 C          -0.9700  -12.1816  -46.9156 C.2       3 UNK         0.5000 
     56 O          -0.9933  -11.0045  -47.2757 O.2       3 UNK        -0.5000 
     57 CA         -2.0401  -12.7036  -45.9347 C.3       3 UNK         0.1400 
     58 CB         -3.2768  -13.1904  -46.7030 C.3       3 UNK        -0.1800 
     59 N          -1.5796  -13.7838  -45.0520 N.am      3 UNK        -0.5000 
     60 C          -0.5968  -13.6862  -44.1425 C.2       2 UNK         0.5000 
     61 O           0.1140  -12.6871  -44.0206 O.2       2 UNK        -0.5000 
     62 CA         -0.3473  -14.9173  -43.2412 C.3       2 UNK         0.1400 
     63 CB          0.2261  -14.5401  -41.8609 C.3       2 UNK        -0.1800 
     64 N          -1.5034  -15.8085  -43.0971 N.am      2 UNK        -0.5000 
     65 C          -2.7097  -15.5191  -42.5824 C.2       1 UNK         0.5000 
     66 O          -3.0249  -14.4197  -42.1260 O.2       1 UNK        -0.5000 
     67 C          -2.0272  -22.7784  -47.2775 C.2       11 UNK         0.5000 
     68 O          -2.6562  -23.8123  -47.5140 O.2       11 UNK        -0.5000 
     69 N          -2.3562  -21.9075  -46.3141 N.am      12 UNK        -0.5000 
     70 CA         -3.4853  -22.0613  -45.4015 C.3       12 UNK         0.1400 
     71 CB         -3.6929  -20.7517  -44.6317 C.3       12 UNK        -0.1800 
     72 C          -3.3306  -23.2521  -44.4391 C.2       12 UNK         0.5000 
     73 O          -4.3008  -23.9801  -44.2318 O.2       12 UNK        -0.5000 
     74 N          -2.1219  -23.4532  -43.8936 N.am      13 UNK        -0.5000 
     75 CA         -1.7884  -24.5681  -43.0015 C.3       13 UNK         0.1400 
     76 CB         -0.3971  -24.3476  -42.3896 C.3       13 UNK        -0.1800 
     77 C          -1.8642  -25.9398  -43.6971 C.2       13 UNK         0.5000 
     78 O          -2.3469  -26.9000  -43.0955 O.2       13 UNK        -0.5000 
     79 N          -1.4204  -26.0002  -44.9600 N.am      14 UNK        -0.5000 
     80 CA         -1.5412  -27.1715  -45.8308 C.3       14 UNK         0.1400 
     81 CB         -0.5839  -27.0054  -47.0218 C.3       14 UNK        -0.1800 
     82 C          -2.9785  -27.4043  -46.3386 C.2       14 UNK         0.5000 
     83 O          -3.2780  -28.5041  -46.8053 O.2       14 UNK        -0.5000 
     84 N          -3.8227  -26.3645  -46.2588 N.am      15 UNK        -0.5000 
     85 CA         -5.1870  -26.2680  -46.7845 C.3       15 UNK         0.1400 
     86 CB         -6.1373  -27.2243  -46.0347 C.3       15 UNK        -0.1800 
     87 C          -5.2282  -26.4360  -48.3175 C.2       15 UNK         0.5000 
     88 O          -6.1169  -27.1053  -48.8494 O.2       15 UNK        -0.5000 
     89 N          -4.2397  -25.8409  -48.9973 N.am      16 UNK        -0.5000 
     90 CA         -4.0916  -25.8769  -50.4490 C.3       16 UNK         0.1400 
     91 CB         -2.6496  -25.4942  -50.8103 C.3       16 UNK        -0.1800 
     92 C          -5.1157  -24.9642  -51.1497 C.2       16 UNK         0.5000 
     93 O          -5.5207  -23.9402  -50.5934 O.2       16 UNK        -0.5000 
     94 N          -5.5218  -25.3680  -52.3578 N.am      17 UNK        -0.5000 
     95 CA         -6.4873  -24.6561  -53.1924 C.3       17 UNK         0.1400 
     96 CB         -7.1297  -25.6649  -54.1592 C.3       17 UNK        -0.1800 
     97 C          -5.8368  -23.5014  -53.9765 C.2       17 UNK         0.5000 
     98 O          -4.6266  -23.5224  -54.2168 O.2       17 UNK        -0.5000 
     99 N          -6.6868  -22.5575  -54.4073 N.am      18 UNK        -0.5000 
    100 CA        -6.3929  -21.3610  -55.2065 C.3       18 UNK         0.1400 
    101 CB        -5.7485  -21.7437  -56.5571 C.3       18 UNK        -0.1800 
    102 C         -5.5648  -20.2964  -54.4572 C.2       18 UNK         0.5000 
    103 O         -5.1031  -20.5176  -53.3364 O.2       18 UNK        -0.5000 
    104 N         -5.3906  -19.1359  -55.1008 N.am      19 UNK        -0.5000 
    105 CA        -4.6346  -17.9851  -54.5996 C.3       19 UNK         0.1400 
    106 CB        -5.1964  -16.7122  -55.2602 C.3       19 UNK        -0.1800 
    107 C         -3.1139  -18.1482  -54.8213 C.2       19 UNK         0.5000 
    108 O         -2.4579  -17.2412  -55.3400 O.2       19 UNK        -0.5000 
    109 N         -2.5820  -19.3213  -54.4583 N.am      20 UNK        -0.5000 
    110 CA        -1.1837  -19.7017  -54.6263 C.3       20 UNK         0.1400 
    111 CB        -1.0275  -21.1996  -54.3231 C.3       20 UNK        -0.1800 
    112 C         -0.2578  -18.8457  -53.7448 C.2       20 UNK         0.5000 
    113 O         -0.3554  -18.9042  -52.5193 O.2       20 UNK        -0.5000 
    114 N          0.6142  -18.0663  -54.3977 N.am      21 UNK        -0.5000 
    115 CA         1.6055  -17.1625  -53.8045 C.3       21 UNK         0.1400 
    116 CB         2.6439  -17.9484  -52.9761 C.3       21 UNK        -0.1800 
    117 C          0.9995  -15.9703  -53.0301 C.2       21 UNK         0.5000 
    118 O          1.6683  -15.4151  -52.1578 O.2       21 UNK        -0.5000 
    119 N         -0.2309  -15.5636  -53.3791 N.am      22 UNK        -0.5000 
    120 CA        -0.8756  -14.3495  -52.8422 C.3       22 UNK         0.1400 
    121 C         -0.2881  -13.0164  -53.3997 C.2       22 UNK         0.5000 
    122 N          0.5101  -13.0247  -54.4609 N.am      22 UNK        -0.7600 
    123 O         -0.5605  -11.9510  -52.8539 O.2       22 UNK        -0.5000 
    124 C124       -2.4174  -14.3689  -53.0278 C.3       23 UNK        -0.0398 
    125 S125       -3.3830  -15.6463  -52.1395 S.3       23 UNK        -0.2404 
    126 C126       -2.2971  -16.2806  -50.8288 C.3       23 UNK        -0.0205 
    127 H127       -0.9299  -19.6998  -40.9405 H         1 UNK         0.0600 
    128 H128       -2.2045  -20.3436  -41.9759 H         1 UNK         0.0600 
    129 H129       -2.4354  -20.2884  -40.2317 H         1 UNK         0.0600 
    130 H130       -3.1518  -18.6228  -43.1166 H         1 UNK         0.3000 
    131 H131       -4.4428  -16.4674  -41.7833 H         1 UNK         0.0600 
    132 H132       -5.3854  -17.3816  -43.8323 H         1 UNK         0.0800 
    133 H133       -5.0497  -15.6890  -44.0635 H         1 UNK         0.0800 
    134 H134       -5.5493  -18.1731  -46.2523 H         1 UNK         0.0800 
    135 H135       -5.4717  -16.5096  -46.7923 H         1 UNK         0.0800 
    136 H136       -3.6167  -15.8702  -48.4839 H         1 UNK         0.1150 
    137 H137       -2.6156  -18.9486  -51.2856 H         1 UNK         0.1150 
    138 H138       -4.7265  -19.9281  -47.6853 H         1 UNK         0.1150 
    139 H139       -4.0770  -21.6899  -49.1219 H         1 UNK         0.0800 
    140 H140       -4.4226  -21.1922  -50.7554 H         1 UNK         0.0800 
    141 H141       -1.3417  -20.4049  -48.5913 H         1 UNK         0.0800 
    142 H142       -0.0400  -21.0240  -49.5503 H         1 UNK         0.0800 
    143 H143       -0.4818  -23.3492  -48.6453 H         1 UNK         0.0600 
    144 H144        0.8141  -21.2376  -47.3348 H         1 UNK         0.3000 
    145 H145        2.0641  -23.0057  -44.4777 H         1 UNK         0.0600 
    146 H146        4.1676  -22.1489  -45.4383 H         1 UNK         0.0600 
    147 H147        3.3764  -21.8146  -46.9768 H         1 UNK         0.0600 
    148 H148        3.5698  -23.4748  -46.4240 H         1 UNK         0.0600 
    149 H149        2.3986  -20.3054  -45.2670 H         1 UNK         0.3000 
    150 H150       -0.4828  -18.9790  -43.5475 H         1 UNK         0.0600 
    151 H151        1.3780  -19.1143  -41.9244 H         1 UNK         0.0600 
    152 H152        1.3693  -17.5346  -42.6928 H         1 UNK         0.0600 
    153 H153        2.5469  -18.7509  -43.1826 H         1 UNK         0.0600 
    154 H154        1.3929  -17.6653  -45.2120 H         1 UNK         0.3000 
    155 H155       -0.2839  -18.1712  -48.3392 H         1 UNK         0.0600 
    156 H156       -1.4216  -16.2813  -47.1337 H         1 UNK         0.0600 
    157 H157       -0.2242  -15.7274  -48.2823 H         1 UNK         0.0600 
    158 H158        0.1417  -15.7291  -46.5488 H         1 UNK         0.0600 
    159 H159        2.1033  -16.7699  -47.4999 H         1 UNK         0.3000 
    160 H160        4.3833  -19.4270  -48.2265 H         1 UNK         0.0600 
    161 H161        3.7780  -16.7122  -49.5224 H         1 UNK         0.0600 
    162 H162        3.9339  -18.2541  -50.3578 H         1 UNK         0.0600 
    163 H163        5.3311  -17.5478  -49.5661 H         1 UNK         0.0600 
    164 H164        4.7514  -16.7837  -47.1966 H         1 UNK         0.3000 
    165 H165        4.4700  -17.5651  -43.7497 H         1 UNK         0.0600 
    166 H166        6.8511  -16.9256  -43.6425 H         1 UNK         0.0600 
    167 H167        6.7036  -18.5422  -44.3112 H         1 UNK         0.0600 
    168 H168        7.0349  -17.1828  -45.3783 H         1 UNK         0.0600 
    169 H169        5.5041  -15.2470  -44.8447 H         1 UNK         0.3000 
    170 H170        3.1363  -13.4322  -44.1171 H         1 UNK         0.0600 
    171 H171        5.2448  -13.4290  -46.3458 H         1 UNK         0.0600 
    172 H172        4.7195  -12.0037  -45.4583 H         1 UNK         0.0600 
    173 H173        5.5400  -13.2961  -44.6118 H         1 UNK         0.0600 
    174 H174        1.6931  -12.7100  -45.5936 H         1 UNK         0.3000 
    175 H175        1.3697  -11.6960  -48.0412 H         1 UNK         0.0600 
    176 H176        0.8694  -14.2772  -49.6277 H         1 UNK         0.0600 
    177 H177        0.1141  -12.7210  -49.9701 H         1 UNK         0.0600 
    178 H178        1.8521  -12.9127  -50.1250 H         1 UNK         0.0600 
    179 H179       -0.1051  -13.9993  -46.9242 H         1 UNK         0.3000 
    180 H180       -2.3381  -11.8666  -45.3001 H         1 UNK         0.0600 
    181 H181       -4.0669  -13.5121  -46.0240 H         1 UNK         0.0600 
    182 H182       -3.0315  -14.0273  -47.3552 H         1 UNK         0.0600 
    183 H183       -3.6875  -12.3964  -47.3281 H         1 UNK         0.0600 
    184 H184       -2.1125  -14.6408  -45.0796 H         1 UNK         0.3000 
    185 H185        0.4078  -15.5081  -43.7545 H         1 UNK         0.0600 
    186 H186        0.4100  -15.4276  -41.2553 H         1 UNK         0.0600 
    187 H187        1.1768  -14.0151  -41.9606 H         1 UNK         0.0600 
    188 H188       -0.4512  -13.8900  -41.3064 H         1 UNK         0.0600 
    189 H189       -1.3781  -16.7427  -43.4582 H         1 UNK         0.3000 
    190 H190       -1.8002  -21.0615  -46.2078 H         1 UNK         0.3000 
    191 H191       -4.3786  -22.2433  -46.0028 H         1 UNK         0.0600 
    192 H192       -2.7656  -20.4146  -44.1714 H         1 UNK         0.0600 
    193 H193       -4.4436  -20.8600  -43.8477 H         1 UNK         0.0600 
    194 H194       -4.0326  -19.9649  -45.3022 H         1 UNK         0.0600 
    195 H195       -1.3822  -22.7771  -44.0669 H         1 UNK         0.3000 
    196 H196       -2.5168  -24.5710  -42.1881 H         1 UNK         0.0600 
    197 H197       -0.3639  -23.4254  -41.8094 H         1 UNK         0.0600 
    198 H198        0.3743  -24.2892  -43.1577 H         1 UNK         0.0600 
    199 H199       -0.1311  -25.1638  -41.7169 H         1 UNK         0.0600 
    200 H200       -0.9683  -25.1830  -45.3630 H         1 UNK         0.3000 
    201 H201       -1.2399  -28.0572  -45.2678 H         1 UNK         0.0600 
    202 H202        0.4476  -26.8962  -46.6866 H         1 UNK         0.0600 
    203 H203       -0.8366  -26.1280  -47.6191 H         1 UNK         0.0600 
    204 H204       -0.6216  -27.8736  -47.6809 H         1 UNK         0.0600 
    205 H205       -3.4550  -25.5058  -45.8714 H         1 UNK         0.3000 
    206 H206       -5.5183  -25.2484  -46.5822 H         1 UNK         0.0600 
    207 H207       -6.0818  -27.0673  -44.9574 H         1 UNK         0.0600 
    208 H208       -7.1728  -27.0581  -46.3337 H         1 UNK         0.0600 
    209 H209       -5.9037  -28.2703  -46.2344 H         1 UNK         0.0600 
    210 H210       -3.5941  -25.2437  -48.4881 H         1 UNK         0.3000 
    211 H211       -4.2621  -26.9025  -50.7840 H         1 UNK         0.0600 
    212 H212       -2.5145  -25.4264  -51.8905 H         1 UNK         0.0600 
    213 H213       -2.3747  -24.5329  -50.3810 H         1 UNK         0.0600 
    214 H214       -1.9427  -26.2355  -50.4373 H         1 UNK         0.0600 
    215 H215       -5.1051  -26.1918  -52.7659 H         1 UNK         0.3000 
    216 H216       -7.2706  -24.2440  -52.5520 H         1 UNK         0.0600 
    217 H217       -7.8896  -25.1878  -54.7793 H         1 UNK         0.0600 
    218 H218       -7.6182  -26.4750  -53.6173 H         1 UNK         0.0600 
    219 H219       -6.3909  -26.1065  -54.8294 H         1 UNK         0.0600 
    220 H220       -7.6546  -22.6450  -54.1308 H         1 UNK         0.3000 
    221 H221       -7.3617  -20.9060  -55.4180 H         1 UNK         0.0600 
    222 H222       -4.7210  -22.0880  -56.4355 H         1 UNK         0.0600 
    223 H223       -6.3106  -22.5357  -57.0522 H         1 UNK         0.0600 
    224 H224       -5.7249  -20.8946  -57.2405 H         1 UNK         0.0600 
    225 H225       -5.7774  -19.0349  -56.0280 H         1 UNK         0.3000 
    226 H226       -4.7944  -17.9012  -53.5227 H         1 UNK         0.0600 
    227 H227       -6.2599  -16.5965  -55.0508 H         1 UNK         0.0600 
    228 H228       -4.6973  -15.8185  -54.8852 H         1 UNK         0.0600 
    229 H229       -5.0662  -16.7298  -56.3428 H         1 UNK         0.0600 
    230 H230       -3.1864  -19.9901  -53.9945 H         1 UNK         0.3000 
    231 H231       -0.9200  -19.5465  -55.6746 H         1 UNK         0.0600 
    232 H232        0.0077  -21.5183  -54.4505 H         1 UNK         0.0600 
    233 H233       -1.6412  -21.8043  -54.9912 H         1 UNK         0.0600 
    234 H234       -1.3199  -21.4347  -53.3002 H         1 UNK         0.0600 
    235 H235        0.5878  -18.0699  -55.4081 H         1 UNK         0.3000 
    236 H236        2.1389  -16.7190  -54.6463 H         1 UNK         0.0600 
    237 H237        2.2062  -18.3597  -52.0662 H         1 UNK         0.0600 
    238 H238        3.0651  -18.7741  -53.5494 H         1 UNK         0.0600 
    239 H239        3.4738  -17.3067  -52.6780 H         1 UNK         0.0600 
    240 H240       -0.7401  -16.0742  -54.0888 H         1 UNK         0.3000 
    241 H241       -0.6714  -14.3116  -51.7723 H         1 UNK         0.0600 
    242 H242        0.8836  -12.1542  -54.8056 H         1 UNK         0.3800 
    243 H243        0.7388  -13.8868  -54.9282 H         1 UNK         0.3800 
    244 H244       -2.6561  -14.4559  -54.0890 H         1 UNK         0.0800 
    245 H245       -2.8420  -13.4140  -52.7121 H         1 UNK         0.0800 
    246 H246       -1.4121  -16.7456  -51.2623 H         1 UNK         0.0800 
    247 H247       -1.9496  -15.4541  -50.2075 H         1 UNK         0.0800 
@<TRIPOS>BOND
     1    1    2 1    
     2    1  127 1    
     3    1  128 1    
     4    1  129 1    
     5    2    3 2    
     6    2    4 am   BACKBONE|DICT|INTERRES
     7    4    5 1    
     8    4  130 1    
     9    5    6 1    
    10    5   65 1    
    11    5  131 1    
    12    6    7 1    
    13    6  132 1    
    14    6  133 1    
    15    7    8 1    
    16    8    9 1    
    17    8  134 1    
    18    8  135 1    
    19    9   10 ar   
    20    9   14 ar   
    21   10   11 ar   
    22   10  136 1    
    23   11   12 ar   
    24   11  126 1    
    25   12   13 ar   
    26   12  137 1    
    27   13   14 ar   
    28   13   15 1    
    29   14  138 1    
    30   15   16 1    
    31   15  139 1    
    32   15  140 1    
    33   16   17 1    
    34   17   18 1    
    35   17  141 1    
    36   17  142 1    
    37   18   19 1    
    38   18   67 1    
    39   18  143 1    
    40   19   20 am   BACKBONE|DICT|INTERRES
    41   19  144 1    
    42   20   21 2    
    43   20   22 1    
    44   22   23 1    
    45   22   24 1    
    46   22  145 1    
    47   23  146 1    
    48   23  147 1    
    49   23  148 1    
    50   24   25 am   BACKBONE|DICT|INTERRES
    51   24  149 1    
    52   25   26 2    
    53   25   27 1    
    54   27   28 1    
    55   27   29 1    
    56   27  150 1    
    57   28  151 1    
    58   28  152 1    
    59   28  153 1    
    60   29   30 am   BACKBONE|DICT|INTERRES
    61   29  154 1    
    62   30   31 2    
    63   30   32 1    
    64   32   33 1    
    65   32   34 1    
    66   32  155 1    
    67   33  156 1    
    68   33  157 1    
    69   33  158 1    
    70   34   35 am   BACKBONE|DICT|INTERRES
    71   34  159 1    
    72   35   36 2    
    73   35   37 1    
    74   37   38 1    
    75   37   39 1    
    76   37  160 1    
    77   38  161 1    
    78   38  162 1    
    79   38  163 1    
    80   39   40 am   BACKBONE|DICT|INTERRES
    81   39  164 1    
    82   40   41 2    
    83   40   42 1    
    84   42   43 1    
    85   42   44 1    
    86   42  165 1    
    87   43  166 1    
    88   43  167 1    
    89   43  168 1    
    90   44   45 am   BACKBONE|DICT|INTERRES
    91   44  169 1    
    92   45   46 2    
    93   45   47 1    
    94   47   48 1    
    95   47   49 1    
    96   47  170 1    
    97   48  171 1    
    98   48  172 1    
    99   48  173 1    
   100   49   50 am   BACKBONE|DICT|INTERRES
   101   49  174 1    
   102   50   51 2    
   103   50   52 1    
   104   52   53 1    
   105   52   54 1    
   106   52  175 1    
   107   53  176 1    
   108   53  177 1    
   109   53  178 1    
   110   54   55 am   BACKBONE|DICT|INTERRES
   111   54  179 1    
   112   55   56 2    
   113   55   57 1    
   114   57   58 1    
   115   57   59 1    
   116   57  180 1    
   117   58  181 1    
   118   58  182 1    
   119   58  183 1    
   120   59   60 am   BACKBONE|DICT|INTERRES
   121   59  184 1    
   122   60   61 2    
   123   60   62 1    
   124   62   63 1    
   125   62   64 1    
   126   62  185 1    
   127   63  186 1    
   128   63  187 1    
   129   63  188 1    
   130   64   65 am   BACKBONE|DICT|INTERRES
   131   64  189 1    
   132   65   66 2    
   133   67   68 2    
   134   67   69 am   BACKBONE|DICT|INTERRES
   135   69   70 1    
   136   69  190 1    
   137   70   71 1    
   138   70   72 1    
   139   70  191 1    
   140   71  192 1    
   141   71  193 1    
   142   71  194 1    
   143   72   73 2    
   144   72   74 am   BACKBONE|DICT|INTERRES
   145   74   75 1    
   146   74  195 1    
   147   75   76 1    
   148   75   77 1    
   149   75  196 1    
   150   76  197 1    
   151   76  198 1    
   152   76  199 1    
   153   77   78 2    
   154   77   79 am   BACKBONE|DICT|INTERRES
   155   79   80 1    
   156   79  200 1    
   157   80   81 1    
   158   80   82 1    
   159   80  201 1    
   160   81  202 1    
   161   81  203 1    
   162   81  204 1    
   163   82   83 2    
   164   82   84 am   BACKBONE|DICT|INTERRES
   165   84   85 1    
   166   84  205 1    
   167   85   86 1    
   168   85   87 1    
   169   85  206 1    
   170   86  207 1    
   171   86  208 1    
   172   86  209 1    
   173   87   88 2    
   174   87   89 am   BACKBONE|DICT|INTERRES
   175   89   90 1    
   176   89  210 1    
   177   90   91 1    
   178   90   92 1    
   179   90  211 1    
   180   91  212 1    
   181   91  213 1    
   182   91  214 1    
   183   92   93 2    
   184   92   94 am   BACKBONE|DICT|INTERRES
   185   94   95 1    
   186   94  215 1    
   187   95   96 1    
   188   95   97 1    
   189   95  216 1    
   190   96  217 1    
   191   96  218 1    
   192   96  219 1    
   193   97   98 2    
   194   97   99 am   BACKBONE|DICT|INTERRES
   195   99  100 1    
   196   99  220 1    
   197  100  101 1    
   198  100  102 1    
   199  100  221 1    
   200  101  222 1    
   201  101  223 1    
   202  101  224 1    
   203  102  103 2    
   204  102  104 am   BACKBONE|DICT|INTERRES
   205  104  105 1    
   206  104  225 1    
   207  105  106 1    
   208  105  107 1    
   209  105  226 1    
   210  106  227 1    
   211  106  228 1    
   212  106  229 1    
   213  107  108 2    
   214  107  109 am   BACKBONE|DICT|INTERRES
   215  109  110 1    
   216  109  230 1    
   217  110  111 1    
   218  110  112 1    
   219  110  231 1    
   220  111  232 1    
   221  111  233 1    
   222  111  234 1    
   223  112  113 2    
   224  112  114 am   BACKBONE|DICT|INTERRES
   225  114  115 1    
   226  114  235 1    
   227  115  116 1    
   228  115  117 1    
   229  115  236 1    
   230  116  237 1    
   231  116  238 1    
   232  116  239 1    
   233  117  118 2    
   234  117  119 am   BACKBONE|DICT|INTERRES
   235  119  120 1    
   236  119  240 1    
   237  120  121 1    
   238  120  124 1    
   239  120  241 1    
   240  121  122 am   BACKBONE|DICT|INTERRES
   241  121  123 2    
   242  122  242 1    
   243  122  243 1    
   244  124  125 1    
   245  124  244 1    
   246  124  245 1    
   247  125  126 1    
   248  126  246 1    
   249  126  247 1    
@<TRIPOS>SUBSTRUCTURE
     1 UNK         1 GROUP             0       ****    0 ROOT    
