@<TRIPOS>MOLECULE
3R540
247   249    1
SMALL
USER_CHARGES


@<TRIPOS>ATOM
      1 CA          2.1302   -8.6257  -46.9799 C.3       0 UNK        -0.1800 
      2 C           1.8245  -10.1158  -46.9725 C.2       0 UNK         0.5000 
      3 O           1.8845  -10.7429  -45.9148 O.2       0 UNK        -0.5000 
      4 N           1.4828  -10.6766  -48.1426 N.am      1 UNK        -0.5000 
      5 CA          1.1751  -12.0954  -48.3823 C.3       1 UNK         0.1400 
      6 C6          0.8030  -12.3335  -49.8719 C.3       23 UNK        -0.0398 
      7 S7          0.3264  -14.0483  -50.3012 S.3       23 UNK        -0.2404 
      8 C8         -1.4810  -13.8558  -50.4169 C.3       23 UNK        -0.0205 
      9 C9         -2.1949  -15.1966  -50.4178 C.ar      23 UNK        -0.0193 
     10 C10        -2.4608  -15.8516  -51.6230 C.ar      23 UNK        -0.1150 
     11 C11        -3.1499  -17.0676  -51.6316 C.ar      23 UNK        -0.0193 
     12 C12        -3.5670  -17.6311  -50.4226 C.ar      23 UNK        -0.1150 
     13 C13        -3.2984  -16.9911  -49.2091 C.ar      23 UNK        -0.0193 
     14 C14        -2.6164  -15.7698  -49.2139 C.ar      23 UNK        -0.1150 
     15 C15        -3.7557  -17.6164  -47.8995 C.3       23 UNK        -0.0205 
     16 S16        -2.3396  -18.0822  -46.8571 S.3       23 UNK        -0.2404 
     17 C17        -3.0213  -19.4608  -45.8864 C.3       23 UNK        -0.0398 
     18 CA         -2.4567  -20.8170  -46.3694 C.3       11 UNK         0.1400 
     19 N          -1.0147  -20.9495  -46.1301 N.am      11 UNK        -0.5000 
     20 C          -0.2593  -21.9595  -46.5877 C.2       10 UNK         0.5000 
     21 O          -0.6869  -22.8725  -47.2922 O.2       10 UNK        -0.5000 
     22 CA          1.2008  -21.9959  -46.1126 C.3       10 UNK         0.1400 
     23 CB          2.0831  -21.0686  -46.9613 C.3       10 UNK        -0.1800 
     24 N           1.3130  -21.6247  -44.7045 N.am      10 UNK        -0.5000 
     25 C           0.8545  -22.3529  -43.6779 C.2       9 UNK         0.5000 
     26 O           0.2985  -23.4423  -43.8215 O.2       9 UNK        -0.5000 
     27 CA          0.9897  -21.7398  -42.2682 C.3       9 UNK         0.1400 
     28 CB          1.2139  -22.8042  -41.1749 C.3       9 UNK        -0.1800 
     29 N           1.9906  -20.6696  -42.1873 N.am      9 UNK        -0.5000 
     30 C           3.3196  -20.7690  -42.3518 C.2       8 UNK         0.5000 
     31 O           3.9085  -21.8323  -42.5482 O.2       8 UNK        -0.5000 
     32 CA          4.1342  -19.4581  -42.3332 C.3       8 UNK         0.1400 
     33 CB          4.6687  -19.1514  -43.7415 C.3       8 UNK        -0.1800 
     34 N           3.3743  -18.2995  -41.8580 N.am      8 UNK        -0.5000 
     35 C           3.0270  -18.0799  -40.5826 C.2       7 UNK         0.5000 
     36 O           3.3736  -18.7997  -39.6456 O.2       7 UNK        -0.5000 
     37 CA          2.0998  -16.8794  -40.3174 C.3       7 UNK         0.1400 
     38 CB          2.9186  -15.5897  -40.1563 C.3       7 UNK        -0.1800 
     39 N           1.0890  -16.6893  -41.3621 N.am      7 UNK        -0.5000 
     40 C           0.1135  -17.5609  -41.6601 C.2       6 UNK         0.5000 
     41 O          -0.0447  -18.6339  -41.0788 O.2       6 UNK        -0.5000 
     42 CA         -0.8043  -17.2028  -42.8413 C.3       6 UNK         0.1400 
     43 CB         -1.8299  -16.1288  -42.4521 C.3       6 UNK        -0.1800 
     44 N          -0.0285  -16.7559  -43.9947 N.am      6 UNK        -0.5000 
     45 C           0.6855  -17.5730  -44.7808 C.2       5 UNK         0.5000 
     46 O           0.6722  -18.8007  -44.6764 O.2       5 UNK        -0.5000 
     47 CA          1.5949  -16.9139  -45.8338 C.3       5 UNK         0.1400 
     48 CB          0.9353  -16.9024  -47.2198 C.3       5 UNK        -0.1800 
     49 N           1.9861  -15.5518  -45.4664 N.am      5 UNK        -0.5000 
     50 C           2.8815  -15.2707  -44.5107 C.2       4 UNK         0.5000 
     51 O           3.4363  -16.1303  -43.8265 O.2       4 UNK        -0.5000 
     52 CA          3.1908  -13.7872  -44.2529 C.3       4 UNK         0.1400 
     53 CB          4.0893  -13.2186  -45.3615 C.3       4 UNK        -0.1800 
     54 N           2.0022  -12.9466  -44.1110 N.am      4 UNK        -0.5000 
     55 C           1.0765  -13.0767  -43.1506 C.2       3 UNK         0.5000 
     56 O           1.0550  -14.0041  -42.3430 O.2       3 UNK        -0.5000 
     57 CA         -0.0100  -11.9929  -43.0853 C.3       3 UNK         0.1400 
     58 CB          0.5677  -10.6644  -42.5717 C.3       3 UNK        -0.1800 
     59 N          -0.6067  -11.7892  -44.4008 N.am      3 UNK        -0.5000 
     60 C          -1.6988  -12.4287  -44.8396 C.2       2 UNK         0.5000 
     61 O          -2.3882  -13.1677  -44.1372 O.2       2 UNK        -0.5000 
     62 CA         -2.0861  -12.2253  -46.3183 C.3       2 UNK         0.1400 
     63 CB         -3.1762  -11.1512  -46.4484 C.3       2 UNK        -0.1800 
     64 N          -0.9638  -11.8709  -47.1906 N.am      2 UNK        -0.5000 
     65 C           0.1066  -12.6472  -47.4130 C.2       1 UNK         0.5000 
     66 O           0.2925  -13.7305  -46.8606 O.2       1 UNK        -0.5000 
     67 C          -3.2495  -21.9775  -45.7405 C.2       11 UNK         0.5000 
     68 O          -4.1819  -22.4754  -46.3695 O.2       11 UNK        -0.5000 
     69 N          -2.8486  -22.4055  -44.5349 N.am      12 UNK        -0.5000 
     70 CA         -3.4485  -23.5314  -43.8196 C.3       12 UNK         0.1400 
     71 CB         -2.9786  -23.5232  -42.3567 C.3       12 UNK        -0.1800 
     72 C          -3.1402  -24.8799  -44.4935 C.2       12 UNK         0.5000 
     73 O          -4.0404  -25.7094  -44.6227 O.2       12 UNK        -0.5000 
     74 N          -1.8870  -25.0601  -44.9347 N.am      13 UNK        -0.5000 
     75 CA         -1.4182  -26.2465  -45.6519 C.3       13 UNK         0.1400 
     76 CB          0.1126  -26.1982  -45.7735 C.3       13 UNK        -0.1800 
     77 C          -2.0713  -26.4050  -47.0373 C.2       13 UNK         0.5000 
     78 O          -2.4764  -27.5119  -47.3947 O.2       13 UNK        -0.5000 
     79 N          -2.1743  -25.2971  -47.7836 N.am      14 UNK        -0.5000 
     80 CA         -2.8069  -25.2439  -49.1024 C.3       14 UNK         0.1400 
     81 CB         -2.3555  -23.9589  -49.8146 C.3       14 UNK        -0.1800 
     82 C          -4.3456  -25.3042  -49.0417 C.2       14 UNK         0.5000 
     83 O          -4.9665  -25.7339  -50.0126 O.2       14 UNK        -0.5000 
     84 N          -4.9236  -24.8579  -47.9167 N.am      15 UNK        -0.5000 
     85 CA         -6.3492  -24.5925  -47.6911 C.3       15 UNK         0.1400 
     86 CB         -7.2030  -25.8705  -47.8311 C.3       15 UNK        -0.1800 
     87 C          -6.8534  -23.4089  -48.5471 C.2       15 UNK         0.5000 
     88 O          -7.9793  -23.4363  -49.0477 O.2       15 UNK        -0.5000 
     89 N          -5.9945  -22.3854  -48.6725 N.am      16 UNK        -0.5000 
     90 CA         -6.1736  -21.1312  -49.4073 C.3       16 UNK         0.1400 
     91 CB         -7.1173  -20.1935  -48.6227 C.3       16 UNK        -0.1800 
     92 C          -6.5658  -21.3472  -50.8875 C.2       16 UNK         0.5000 
     93 O          -5.8509  -22.0570  -51.5985 O.2       16 UNK        -0.5000 
     94 N          -7.6679  -20.7186  -51.3283 N.am      17 UNK        -0.5000 
     95 CA         -8.1984  -20.7071  -52.6955 C.3       17 UNK         0.1400 
     96 CB         -8.7458  -22.1022  -53.0773 C.3       17 UNK        -0.1800 
     97 C          -7.1572  -20.1378  -53.6812 C.2       17 UNK         0.5000 
     98 O          -6.8458  -18.9494  -53.5994 O.2       17 UNK        -0.5000 
     99 N          -6.6233  -20.9910  -54.5594 N.am      18 UNK        -0.5000 
    100 CA        -5.4698  -20.7194  -55.4163 C.3       18 UNK         0.1400 
    101 CB        -5.9576  -20.3589  -56.8311 C.3       18 UNK        -0.1800 
    102 C         -4.5063  -21.9242  -55.4127 C.2       18 UNK         0.5000 
    103 O         -3.7155  -22.0801  -56.3459 O.2       18 UNK        -0.5000 
    104 N         -4.6067  -22.7801  -54.3842 N.am      19 UNK        -0.5000 
    105 CA        -3.8128  -23.9971  -54.2335 C.3       19 UNK         0.1400 
    106 CB        -4.4649  -24.8830  -53.1650 C.3       19 UNK        -0.1800 
    107 C         -2.3464  -23.6889  -53.8848 C.2       19 UNK         0.5000 
    108 O         -2.0528  -22.6396  -53.3117 O.2       19 UNK        -0.5000 
    109 N         -1.4481  -24.6094  -54.2616 N.am      20 UNK        -0.5000 
    110 CA         0.0140  -24.5080  -54.1340 C.3       20 UNK         0.1400 
    111 CB         0.4398  -24.4661  -52.6502 C.3       20 UNK        -0.1800 
    112 C          0.6310  -23.3583  -54.9666 C.2       20 UNK         0.5000 
    113 O          1.7511  -22.9308  -54.6828 O.2       20 UNK        -0.5000 
    114 N         -0.1067  -22.8998  -55.9912 N.am      21 UNK        -0.5000 
    115 CA         0.2360  -21.8417  -56.9458 C.3       21 UNK         0.1400 
    116 CB         1.3967  -22.2914  -57.8585 C.3       21 UNK        -0.1800 
    117 C          0.4811  -20.4659  -56.2880 C.2       21 UNK         0.5000 
    118 O          1.3617  -19.7239  -56.7285 O.2       21 UNK        -0.5000 
    119 N         -0.3048  -20.1390  -55.2521 N.am      22 UNK        -0.5000 
    120 CA        -0.2454  -18.8469  -54.5446 C.3       22 UNK         0.1400 
    121 C         -0.7671  -17.6168  -55.3478 C.2       22 UNK         0.5000 
    122 N         -1.4631  -17.7942  -56.4647 N.am      22 UNK        -0.7600 
    123 O         -0.5275  -16.4791  -54.9533 O.2       22 UNK        -0.5000 
    124 C124       -0.8769  -18.9243  -53.1309 C.3       23 UNK        -0.0398 
    125 S125       -2.6483  -19.3766  -53.1148 S.3       23 UNK        -0.2404 
    126 C126       -3.4675  -17.7585  -52.9491 C.3       23 UNK        -0.0205 
    127 H127        2.0279   -8.1943  -47.9759 H         1 UNK         0.0600 
    128 H128        1.4496   -8.1011  -46.3094 H         1 UNK         0.0600 
    129 H129        3.1498   -8.4521  -46.6362 H         1 UNK         0.0600 
    130 H130        1.4540  -10.0862  -48.9619 H         1 UNK         0.3000 
    131 H131        2.0929  -12.6511  -48.1817 H         1 UNK         0.0600 
    132 H132        1.6551  -12.0695  -50.4997 H         1 UNK         0.0800 
    133 H133        0.0009  -11.6571  -50.1722 H         1 UNK         0.0800 
    134 H134       -1.7254  -13.2996  -51.3232 H         1 UNK         0.0800 
    135 H135       -1.8474  -13.2552  -49.5837 H         1 UNK         0.0800 
    136 H136       -2.1362  -15.4098  -52.5552 H         1 UNK         0.1150 
    137 H137       -4.0989  -18.5719  -50.4336 H         1 UNK         0.1150 
    138 H138       -2.4072  -15.2702  -48.2781 H         1 UNK         0.1150 
    139 H139       -4.3877  -16.9121  -47.3571 H         1 UNK         0.0800 
    140 H140       -4.3695  -18.4957  -48.0996 H         1 UNK         0.0800 
    141 H141       -2.7797  -19.2950  -44.8354 H         1 UNK         0.0800 
    142 H142       -4.1109  -19.4392  -45.9526 H         1 UNK         0.0800 
    143 H143       -2.6130  -20.8824  -47.4487 H         1 UNK         0.0600 
    144 H144       -0.5697  -20.2245  -45.5774 H         1 UNK         0.3000 
    145 H145        1.5681  -23.0179  -46.2266 H         1 UNK         0.0600 
    146 H146        3.1272  -21.1286  -46.6535 H         1 UNK         0.0600 
    147 H147        2.0373  -21.3455  -48.0153 H         1 UNK         0.0600 
    148 H148        1.7708  -20.0275  -46.8820 H         1 UNK         0.0600 
    149 H149        1.6435  -20.6880  -44.5101 H         1 UNK         0.3000 
    150 H150        0.0307  -21.2626  -42.0632 H         1 UNK         0.0600 
    151 H151        0.3767  -23.5014  -41.1294 H         1 UNK         0.0600 
    152 H152        1.3048  -22.3445  -40.1908 H         1 UNK         0.0600 
    153 H153        2.1140  -23.3916  -41.3569 H         1 UNK         0.0600 
    154 H154        1.6083  -19.7486  -42.0128 H         1 UNK         0.3000 
    155 H155        4.9864  -19.6103  -41.6679 H         1 UNK         0.0600 
    156 H156        5.2793  -19.9727  -44.1190 H         1 UNK         0.0600 
    157 H157        5.2936  -18.2581  -43.7408 H         1 UNK         0.0600 
    158 H158        3.8568  -18.9928  -44.4519 H         1 UNK         0.0600 
    159 H159        3.1202  -17.6072  -42.5570 H         1 UNK         0.3000 
    160 H160        1.5749  -17.0688  -39.3788 H         1 UNK         0.0600 
    161 H161        3.4337  -15.3229  -41.0799 H         1 UNK         0.0600 
    162 H162        2.2809  -14.7512  -39.8758 H         1 UNK         0.0600 
    163 H163        3.6737  -15.6991  -39.3770 H         1 UNK         0.0600 
    164 H164        1.1282  -15.8053  -41.8645 H         1 UNK         0.3000 
    165 H165       -1.3552  -18.1029  -43.1218 H         1 UNK         0.0600 
    166 H166       -2.5153  -15.9260  -43.2753 H         1 UNK         0.0600 
    167 H167       -2.4302  -16.4533  -41.6013 H         1 UNK         0.0600 
    168 H168       -1.3531  -15.1879  -42.1773 H         1 UNK         0.0600 
    169 H169        0.0549  -15.7598  -44.1358 H         1 UNK         0.3000 
    170 H170        2.4991  -17.5214  -45.9058 H         1 UNK         0.0600 
    171 H171        0.6784  -17.9121  -47.5413 H         1 UNK         0.0600 
    172 H172        0.0173  -16.3150  -47.2244 H         1 UNK         0.0600 
    173 H173        1.6018  -16.4808  -47.9722 H         1 UNK         0.0600 
    174 H174        1.5111  -14.7957  -45.9558 H         1 UNK         0.3000 
    175 H175        3.7425  -13.7293  -43.3123 H         1 UNK         0.0600 
    176 H176        3.5809  -13.2096  -46.3258 H         1 UNK         0.0600 
    177 H177        4.3939  -12.1965  -45.1360 H         1 UNK         0.0600 
    178 H178        4.9976  -13.8122  -45.4729 H         1 UNK         0.0600 
    179 H179        1.9365  -12.1564  -44.7488 H         1 UNK         0.3000 
    180 H180       -0.7707  -12.3211  -42.3736 H         1 UNK         0.0600 
    181 H181        1.0249  -10.7927  -41.5898 H         1 UNK         0.0600 
    182 H182        1.3313  -10.2647  -43.2399 H         1 UNK         0.0600 
    183 H183       -0.2135   -9.9110  -42.4705 H         1 UNK         0.0600 
    184 H184       -0.0676  -11.2424  -45.0602 H         1 UNK         0.3000 
    185 H185       -2.4950  -13.1722  -46.6771 H         1 UNK         0.0600 
    186 H186       -4.0423  -11.3965  -45.8321 H         1 UNK         0.0600 
    187 H187       -2.8149  -10.1718  -46.1321 H         1 UNK         0.0600 
    188 H188       -3.5259  -11.0657  -47.4774 H         1 UNK         0.0600 
    189 H189       -1.0166  -10.9762  -47.6553 H         1 UNK         0.3000 
    190 H190       -2.0483  -21.9676  -44.1058 H         1 UNK         0.3000 
    191 H191       -4.5325  -23.3969  -43.8255 H         1 UNK         0.0600 
    192 H192       -3.4491  -24.3303  -41.7937 H         1 UNK         0.0600 
    193 H193       -3.2409  -22.5876  -41.8627 H         1 UNK         0.0600 
    194 H194       -1.8999  -23.6551  -42.2750 H         1 UNK         0.0600 
    195 H195       -1.1894  -24.3502  -44.7325 H         1 UNK         0.3000 
    196 H196       -1.6829  -27.1232  -45.0570 H         1 UNK         0.0600 
    197 H197        0.4926  -27.0824  -46.2868 H         1 UNK         0.0600 
    198 H198        0.5846  -26.1635  -44.7914 H         1 UNK         0.0600 
    199 H199        0.4447  -25.3238  -46.3339 H         1 UNK         0.0600 
    200 H200       -1.7561  -24.4329  -47.4470 H         1 UNK         0.3000 
    201 H201       -2.4618  -26.0978  -49.6892 H         1 UNK         0.0600 
    202 H202       -1.2704  -23.9198  -49.9104 H         1 UNK         0.0600 
    203 H203       -2.6765  -23.0661  -49.2762 H         1 UNK         0.0600 
    204 H204       -2.7690  -23.8983  -50.8203 H         1 UNK         0.0600 
    205 H205       -4.3119  -24.5081  -47.1901 H         1 UNK         0.3000 
    206 H206       -6.4275  -24.2659  -46.6531 H         1 UNK         0.0600 
    207 H207       -6.7961  -26.6836  -47.2299 H         1 UNK         0.0600 
    208 H208       -8.2233  -25.6932  -47.4896 H         1 UNK         0.0600 
    209 H209       -7.2633  -26.2123  -48.8644 H         1 UNK         0.0600 
    210 H210       -5.1234  -22.4694  -48.1608 H         1 UNK         0.3000 
    211 H211       -5.1911  -20.6580  -49.4309 H         1 UNK         0.0600 
    212 H212       -8.1276  -20.5981  -48.5503 H         1 UNK         0.0600 
    213 H213       -7.1781  -19.2089  -49.0883 H         1 UNK         0.0600 
    214 H214       -6.7525  -20.0398  -47.6068 H         1 UNK         0.0600 
    215 H215       -8.1712  -20.1439  -50.6678 H         1 UNK         0.3000 
    216 H216       -9.0384  -20.0110  -52.7008 H         1 UNK         0.0600 
    217 H217       -9.5317  -22.4091  -52.3871 H         1 UNK         0.0600 
    218 H218       -7.9763  -22.8746  -53.0559 H         1 UNK         0.0600 
    219 H219       -9.1840  -22.0930  -54.0761 H         1 UNK         0.0600 
    220 H220       -6.9473  -21.9481  -54.5543 H         1 UNK         0.3000 
    221 H221       -4.9043  -19.8735  -55.0220 H         1 UNK         0.0600 
    222 H222       -6.4934  -21.1887  -57.2932 H         1 UNK         0.0600 
    223 H223       -6.6263  -19.4983  -56.8087 H         1 UNK         0.0600 
    224 H224       -5.1217  -20.1006  -57.4822 H         1 UNK         0.0600 
    225 H225       -5.1700  -22.5176  -53.5826 H         1 UNK         0.3000 
    226 H226       -3.8321  -24.5360  -55.1832 H         1 UNK         0.0600 
    227 H227       -4.5724  -24.3488  -52.2220 H         1 UNK         0.0600 
    228 H228       -5.4586  -25.2071  -53.4744 H         1 UNK         0.0600 
    229 H229       -3.8747  -25.7796  -52.9718 H         1 UNK         0.0600 
    230 H230       -1.7815  -25.4441  -54.7245 H         1 UNK         0.3000 
    231 H231        0.4153  -25.4285  -54.5601 H         1 UNK         0.0600 
    232 H232       -0.0195  -25.2763  -52.0838 H         1 UNK         0.0600 
    233 H233        1.5204  -24.5740  -52.5504 H         1 UNK         0.0600 
    234 H234        0.1631  -23.5254  -52.1734 H         1 UNK         0.0600 
    235 H235       -1.0219  -23.3087  -56.1165 H         1 UNK         0.3000 
    236 H236       -0.6437  -21.7136  -57.5783 H         1 UNK         0.0600 
    237 H237        1.1811  -23.2520  -58.3264 H         1 UNK         0.0600 
    238 H238        1.5651  -21.5729  -58.6616 H         1 UNK         0.0600 
    239 H239        2.3318  -22.3895  -57.3063 H         1 UNK         0.0600 
    240 H240       -0.9989  -20.7975  -54.9237 H         1 UNK         0.3000 
    241 H241        0.8144  -18.6392  -54.3838 H         1 UNK         0.0600 
    242 H242       -1.7872  -16.9908  -56.9795 H         1 UNK         0.3800 
    243 H243       -1.6702  -18.7212  -56.7979 H         1 UNK         0.3800 
    244 H244       -0.3488  -19.6793  -52.5471 H         1 UNK         0.0800 
    245 H245       -0.7235  -17.9891  -52.5911 H         1 UNK         0.0800 
    246 H246       -3.2011  -17.1269  -53.7971 H         1 UNK         0.0800 
    247 H247       -4.5450  -17.9055  -53.0112 H         1 UNK         0.0800 
@<TRIPOS>BOND
     1    1    2 1    
     2    1  127 1    
     3    1  128 1    
     4    1  129 1    
     5    2    3 2    
     6    2    4 am   BACKBONE|DICT|INTERRES
     7    4    5 1    
     8    4  130 1    
     9    5    6 1    
    10    5   65 1    
    11    5  131 1    
    12    6    7 1    
    13    6  132 1    
    14    6  133 1    
    15    7    8 1    
    16    8    9 1    
    17    8  134 1    
    18    8  135 1    
    19    9   10 ar   
    20    9   14 ar   
    21   10   11 ar   
    22   10  136 1    
    23   11   12 ar   
    24   11  126 1    
    25   12   13 ar   
    26   12  137 1    
    27   13   14 ar   
    28   13   15 1    
    29   14  138 1    
    30   15   16 1    
    31   15  139 1    
    32   15  140 1    
    33   16   17 1    
    34   17   18 1    
    35   17  141 1    
    36   17  142 1    
    37   18   19 1    
    38   18   67 1    
    39   18  143 1    
    40   19   20 am   BACKBONE|DICT|INTERRES
    41   19  144 1    
    42   20   21 2    
    43   20   22 1    
    44   22   23 1    
    45   22   24 1    
    46   22  145 1    
    47   23  146 1    
    48   23  147 1    
    49   23  148 1    
    50   24   25 am   BACKBONE|DICT|INTERRES
    51   24  149 1    
    52   25   26 2    
    53   25   27 1    
    54   27   28 1    
    55   27   29 1    
    56   27  150 1    
    57   28  151 1    
    58   28  152 1    
    59   28  153 1    
    60   29   30 am   BACKBONE|DICT|INTERRES
    61   29  154 1    
    62   30   31 2    
    63   30   32 1    
    64   32   33 1    
    65   32   34 1    
    66   32  155 1    
    67   33  156 1    
    68   33  157 1    
    69   33  158 1    
    70   34   35 am   BACKBONE|DICT|INTERRES
    71   34  159 1    
    72   35   36 2    
    73   35   37 1    
    74   37   38 1    
    75   37   39 1    
    76   37  160 1    
    77   38  161 1    
    78   38  162 1    
    79   38  163 1    
    80   39   40 am   BACKBONE|DICT|INTERRES
    81   39  164 1    
    82   40   41 2    
    83   40   42 1    
    84   42   43 1    
    85   42   44 1    
    86   42  165 1    
    87   43  166 1    
    88   43  167 1    
    89   43  168 1    
    90   44   45 am   BACKBONE|DICT|INTERRES
    91   44  169 1    
    92   45   46 2    
    93   45   47 1    
    94   47   48 1    
    95   47   49 1    
    96   47  170 1    
    97   48  171 1    
    98   48  172 1    
    99   48  173 1    
   100   49   50 am   BACKBONE|DICT|INTERRES
   101   49  174 1    
   102   50   51 2    
   103   50   52 1    
   104   52   53 1    
   105   52   54 1    
   106   52  175 1    
   107   53  176 1    
   108   53  177 1    
   109   53  178 1    
   110   54   55 am   BACKBONE|DICT|INTERRES
   111   54  179 1    
   112   55   56 2    
   113   55   57 1    
   114   57   58 1    
   115   57   59 1    
   116   57  180 1    
   117   58  181 1    
   118   58  182 1    
   119   58  183 1    
   120   59   60 am   BACKBONE|DICT|INTERRES
   121   59  184 1    
   122   60   61 2    
   123   60   62 1    
   124   62   63 1    
   125   62   64 1    
   126   62  185 1    
   127   63  186 1    
   128   63  187 1    
   129   63  188 1    
   130   64   65 am   BACKBONE|DICT|INTERRES
   131   64  189 1    
   132   65   66 2    
   133   67   68 2    
   134   67   69 am   BACKBONE|DICT|INTERRES
   135   69   70 1    
   136   69  190 1    
   137   70   71 1    
   138   70   72 1    
   139   70  191 1    
   140   71  192 1    
   141   71  193 1    
   142   71  194 1    
   143   72   73 2    
   144   72   74 am   BACKBONE|DICT|INTERRES
   145   74   75 1    
   146   74  195 1    
   147   75   76 1    
   148   75   77 1    
   149   75  196 1    
   150   76  197 1    
   151   76  198 1    
   152   76  199 1    
   153   77   78 2    
   154   77   79 am   BACKBONE|DICT|INTERRES
   155   79   80 1    
   156   79  200 1    
   157   80   81 1    
   158   80   82 1    
   159   80  201 1    
   160   81  202 1    
   161   81  203 1    
   162   81  204 1    
   163   82   83 2    
   164   82   84 am   BACKBONE|DICT|INTERRES
   165   84   85 1    
   166   84  205 1    
   167   85   86 1    
   168   85   87 1    
   169   85  206 1    
   170   86  207 1    
   171   86  208 1    
   172   86  209 1    
   173   87   88 2    
   174   87   89 am   BACKBONE|DICT|INTERRES
   175   89   90 1    
   176   89  210 1    
   177   90   91 1    
   178   90   92 1    
   179   90  211 1    
   180   91  212 1    
   181   91  213 1    
   182   91  214 1    
   183   92   93 2    
   184   92   94 am   BACKBONE|DICT|INTERRES
   185   94   95 1    
   186   94  215 1    
   187   95   96 1    
   188   95   97 1    
   189   95  216 1    
   190   96  217 1    
   191   96  218 1    
   192   96  219 1    
   193   97   98 2    
   194   97   99 am   BACKBONE|DICT|INTERRES
   195   99  100 1    
   196   99  220 1    
   197  100  101 1    
   198  100  102 1    
   199  100  221 1    
   200  101  222 1    
   201  101  223 1    
   202  101  224 1    
   203  102  103 2    
   204  102  104 am   BACKBONE|DICT|INTERRES
   205  104  105 1    
   206  104  225 1    
   207  105  106 1    
   208  105  107 1    
   209  105  226 1    
   210  106  227 1    
   211  106  228 1    
   212  106  229 1    
   213  107  108 2    
   214  107  109 am   BACKBONE|DICT|INTERRES
   215  109  110 1    
   216  109  230 1    
   217  110  111 1    
   218  110  112 1    
   219  110  231 1    
   220  111  232 1    
   221  111  233 1    
   222  111  234 1    
   223  112  113 2    
   224  112  114 am   BACKBONE|DICT|INTERRES
   225  114  115 1    
   226  114  235 1    
   227  115  116 1    
   228  115  117 1    
   229  115  236 1    
   230  116  237 1    
   231  116  238 1    
   232  116  239 1    
   233  117  118 2    
   234  117  119 am   BACKBONE|DICT|INTERRES
   235  119  120 1    
   236  119  240 1    
   237  120  121 1    
   238  120  124 1    
   239  120  241 1    
   240  121  122 am   BACKBONE|DICT|INTERRES
   241  121  123 2    
   242  122  242 1    
   243  122  243 1    
   244  124  125 1    
   245  124  244 1    
   246  124  245 1    
   247  125  126 1    
   248  126  246 1    
   249  126  247 1    
@<TRIPOS>SUBSTRUCTURE
     1 UNK         1 GROUP             0       ****    0 ROOT    
