@<TRIPOS>MOLECULE
3R540
247   249    1
SMALL
USER_CHARGES


@<TRIPOS>ATOM
      1 CA         -4.5124  -16.1204  -48.2607 C.3       0 UNK        -0.1800 
      2 C          -3.5092  -15.2502  -47.5200 C.2       0 UNK         0.5000 
      3 O          -3.9038  -14.3549  -46.7720 O.2       0 UNK        -0.5000 
      4 N          -2.2106  -15.5129  -47.7173 N.am      1 UNK        -0.5000 
      5 CA         -1.0983  -14.7475  -47.1378 C.3       1 UNK         0.1400 
      6 C6          0.2559  -15.0590  -47.8211 C.3       23 UNK        -0.0398 
      7 S7          0.2405  -14.7055  -49.6068 S.3       23 UNK        -0.2404 
      8 C8          1.4854  -15.8977  -50.2102 C.3       23 UNK        -0.0205 
      9 C9          1.0160  -17.3511  -50.2900 C.ar      23 UNK        -0.0193 
     10 C10        -0.3064  -17.6833  -50.6098 C.ar      23 UNK        -0.1150 
     11 C11        -0.6946  -19.0200  -50.7773 C.ar      23 UNK        -0.0193 
     12 C12         0.2661  -20.0226  -50.6209 C.ar      23 UNK        -0.1150 
     13 C13         1.5907  -19.7144  -50.3051 C.ar      23 UNK        -0.0193 
     14 C14         1.9535  -18.3763  -50.1284 C.ar      23 UNK        -0.1150 
     15 C15         2.6472  -20.8121  -50.2416 C.3       23 UNK        -0.0205 
     16 S16         2.6464  -21.7316  -48.6682 S.3       23 UNK        -0.2404 
     17 C17         1.4076  -23.0453  -48.9799 C.3       23 UNK        -0.0398 
     18 CA          0.2861  -23.1775  -47.9177 C.3       11 UNK         0.1400 
     19 N           0.7998  -23.5419  -46.5964 N.am      11 UNK        -0.5000 
     20 C           0.4659  -24.6585  -45.9350 C.2       10 UNK         0.5000 
     21 O          -0.1954  -25.5747  -46.4247 O.2       10 UNK        -0.5000 
     22 CA          0.9159  -24.7706  -44.4625 C.3       10 UNK         0.1400 
     23 CB          2.2525  -25.5220  -44.3684 C.3       10 UNK        -0.1800 
     24 N           1.0448  -23.4872  -43.7669 N.am      10 UNK        -0.5000 
     25 C           0.0890  -22.5536  -43.6545 C.2       9 UNK         0.5000 
     26 O          -1.0491  -22.6800  -44.1033 O.2       9 UNK        -0.5000 
     27 CA          0.4869  -21.2194  -42.9939 C.3       9 UNK         0.1400 
     28 CB          0.1166  -21.2268  -41.5042 C.3       9 UNK        -0.1800 
     29 N           1.8999  -20.8449  -43.1392 N.am      9 UNK        -0.5000 
     30 C           2.5891  -20.7735  -44.2867 C.2       8 UNK         0.5000 
     31 O           2.1277  -21.0999  -45.3818 O.2       8 UNK        -0.5000 
     32 CA          4.0250  -20.2283  -44.1953 C.3       8 UNK         0.1400 
     33 CB          4.9623  -20.9407  -45.1855 C.3       8 UNK        -0.1800 
     34 N           4.0537  -18.7918  -44.4660 N.am      8 UNK        -0.5000 
     35 C           3.6030  -17.8412  -43.6380 C.2       7 UNK         0.5000 
     36 O           3.1229  -18.0723  -42.5256 O.2       7 UNK        -0.5000 
     37 CA          3.6807  -16.3946  -44.1645 C.3       7 UNK         0.1400 
     38 CB          2.4645  -16.0784  -45.0457 C.3       7 UNK        -0.1800 
     39 N           3.7445  -15.4087  -43.0856 N.am      7 UNK        -0.5000 
     40 C           4.7986  -15.2202  -42.2803 C.2       6 UNK         0.5000 
     41 O           5.8567  -15.8426  -42.3872 O.2       6 UNK        -0.5000 
     42 CA          4.6701  -14.1379  -41.1892 C.3       6 UNK         0.1400 
     43 CB          5.4381  -12.8716  -41.5995 C.3       6 UNK        -0.1800 
     44 N           3.2876  -13.7630  -40.8859 N.am      6 UNK        -0.5000 
     45 C           2.4237  -14.4903  -40.1691 C.2       5 UNK         0.5000 
     46 O           2.7024  -15.5887  -39.6881 O.2       5 UNK        -0.5000 
     47 CA          1.0103  -13.9110  -39.9469 C.3       5 UNK         0.1400 
     48 CB          0.9306  -13.1506  -38.6097 C.3       5 UNK        -0.1800 
     49 N           0.4719  -13.0998  -41.0502 N.am      5 UNK        -0.5000 
     50 C           0.8772  -11.9055  -41.5124 C.2       4 UNK         0.5000 
     51 O           1.8580  -11.3052  -41.0726 O.2       4 UNK        -0.5000 
     52 CA          0.0904  -11.2849  -42.6858 C.3       4 UNK         0.1400 
     53 CB          0.9758  -11.2078  -43.9407 C.3       4 UNK        -0.1800 
     54 N          -1.1320  -12.0239  -43.0103 N.am      4 UNK        -0.5000 
     55 C          -2.3036  -11.8783  -42.3713 C.2       3 UNK         0.5000 
     56 O          -2.4931  -11.0446  -41.4851 O.2       3 UNK        -0.5000 
     57 CA         -3.4524  -12.8359  -42.7598 C.3       3 UNK         0.1400 
     58 CB         -4.4065  -12.1544  -43.7520 C.3       3 UNK        -0.1800 
     59 N          -2.9979  -14.1020  -43.3384 N.am      3 UNK        -0.5000 
     60 C          -2.2272  -15.0062  -42.7165 C.2       2 UNK         0.5000 
     61 O          -1.8929  -14.9160  -41.5357 O.2       2 UNK        -0.5000 
     62 CA         -1.6703  -16.1643  -43.5680 C.3       2 UNK         0.1400 
     63 CB         -2.4379  -17.4639  -43.2924 C.3       2 UNK        -0.1800 
     64 N          -1.6545  -15.8976  -45.0111 N.am      2 UNK        -0.5000 
     65 C          -0.9784  -14.9003  -45.6055 C.2       1 UNK         0.5000 
     66 O          -0.2899  -14.0949  -44.9794 O.2       1 UNK        -0.5000 
     67 C          -0.5947  -21.9179  -47.8199 C.2       11 UNK         0.5000 
     68 O          -1.6433  -21.8625  -48.4604 O.2       11 UNK        -0.5000 
     69 N          -0.1719  -20.9358  -47.0129 N.am      12 UNK        -0.5000 
     70 CA         -0.7514  -19.5971  -46.9586 C.3       12 UNK         0.1400 
     71 CB          0.2240  -18.6723  -46.2234 C.3       12 UNK        -0.1800 
     72 C          -2.1543  -19.5229  -46.3348 C.2       12 UNK         0.5000 
     73 O          -2.8867  -18.5838  -46.6458 O.2       12 UNK        -0.5000 
     74 N          -2.5052  -20.4853  -45.4695 N.am      13 UNK        -0.5000 
     75 CA         -3.8504  -20.6244  -44.9032 C.3       13 UNK         0.1400 
     76 CB         -3.7491  -21.0216  -43.4211 C.3       13 UNK        -0.1800 
     77 C          -4.6887  -21.6550  -45.6836 C.2       13 UNK         0.5000 
     78 O          -5.8999  -21.7269  -45.4773 O.2       13 UNK        -0.5000 
     79 N          -4.0506  -22.4162  -46.5832 N.am      14 UNK        -0.5000 
     80 CA         -4.6652  -23.4168  -47.4546 C.3       14 UNK         0.1400 
     81 CB         -3.7174  -24.6244  -47.5617 C.3       14 UNK        -0.1800 
     82 C          -4.9891  -22.7982  -48.8284 C.2       14 UNK         0.5000 
     83 O          -4.7403  -23.4160  -49.8674 O.2       14 UNK        -0.5000 
     84 N          -5.5359  -21.5753  -48.8084 N.am      15 UNK        -0.5000 
     85 CA         -5.7973  -20.6905  -49.9457 C.3       15 UNK         0.1400 
     86 CB         -5.9828  -19.2632  -49.4045 C.3       15 UNK        -0.1800 
     87 C          -6.9618  -21.1449  -50.8551 C.2       15 UNK         0.5000 
     88 O          -7.8397  -20.3517  -51.1974 O.2       15 UNK        -0.5000 
     89 N          -6.9308  -22.4213  -51.2359 N.am      16 UNK        -0.5000 
     90 CA         -7.8364  -23.0960  -52.1581 C.3       16 UNK         0.1400 
     91 CB         -9.1721  -23.4309  -51.4710 C.3       16 UNK        -0.1800 
     92 C          -7.1475  -24.3593  -52.6922 C.2       16 UNK         0.5000 
     93 O          -7.1933  -24.6149  -53.8952 O.2       16 UNK        -0.5000 
     94 N          -6.4812  -25.1020  -51.7938 N.am      17 UNK        -0.5000 
     95 CA         -5.6217  -26.2373  -52.1300 C.3       17 UNK         0.1400 
     96 CB         -5.3447  -27.0622  -50.8649 C.3       17 UNK        -0.1800 
     97 C          -4.3052  -25.7767  -52.7802 C.2       17 UNK         0.5000 
     98 O          -3.8675  -26.3762  -53.7630 O.2       17 UNK        -0.5000 
     99 N          -3.7267  -24.6824  -52.2635 N.am      18 UNK        -0.5000 
    100 CA        -2.5449  -24.0039  -52.7997 C.3       18 UNK         0.1400 
    101 CB        -1.8703  -23.2126  -51.6668 C.3       18 UNK        -0.1800 
    102 C         -2.8943  -23.1199  -54.0176 C.2       18 UNK         0.5000 
    103 O         -2.5543  -21.9344  -54.0546 O.2       18 UNK        -0.5000 
    104 N         -3.5755  -23.7188  -55.0029 N.am      19 UNK        -0.5000 
    105 CA        -4.0998  -23.0806  -56.2129 C.3       19 UNK         0.1400 
    106 CB        -4.9490  -24.1016  -56.9837 C.3       19 UNK        -0.1800 
    107 C         -3.0201  -22.4754  -57.1304 C.2       19 UNK         0.5000 
    108 O         -3.3188  -21.5545  -57.8903 O.2       19 UNK        -0.5000 
    109 N         -1.7796  -22.9687  -57.0213 N.am      20 UNK        -0.5000 
    110 CA        -0.6062  -22.4358  -57.7149 C.3       20 UNK         0.1400 
    111 CB         0.5666  -23.4099  -57.5239 C.3       20 UNK        -0.1800 
    112 C         -0.2081  -21.0174  -57.2544 C.2       20 UNK         0.5000 
    113 O          0.4342  -20.3000  -58.0226 O.2       20 UNK        -0.5000 
    114 N         -0.5867  -20.6439  -56.0240 N.am      21 UNK        -0.5000 
    115 CA        -0.2989  -19.3439  -55.4204 C.3       21 UNK         0.1400 
    116 CB         0.4477  -19.5675  -54.0971 C.3       21 UNK        -0.1800 
    117 C         -1.5799  -18.5232  -55.1947 C.2       21 UNK         0.5000 
    118 O         -1.5766  -17.3228  -55.4705 O.2       21 UNK        -0.5000 
    119 N         -2.6445  -19.1741  -54.7087 N.am      22 UNK        -0.5000 
    120 CA        -3.9225  -18.5427  -54.3325 C.3       22 UNK         0.1400 
    121 C         -5.0827  -18.8107  -55.3344 C.2       22 UNK         0.5000 
    122 N         -4.8587  -19.4503  -56.4738 N.am      22 UNK        -0.7600 
    123 O         -6.2151  -18.4041  -55.0901 O.2       22 UNK        -0.5000 
    124 C124       -4.3175  -18.9141  -52.8786 C.3       23 UNK        -0.0398 
    125 S125       -3.2369  -18.0931  -51.6573 S.3       23 UNK        -0.2404 
    126 C126       -2.1162  -19.4439  -51.1562 C.3       23 UNK        -0.0205 
    127 H127       -4.0145  -16.8133  -48.9389 H         1 UNK         0.0600 
    128 H128       -5.1921  -15.5014  -48.8459 H         1 UNK         0.0600 
    129 H129       -5.0999  -16.7017  -47.5501 H         1 UNK         0.0600 
    130 H130       -1.9499  -16.2653  -48.3383 H         1 UNK         0.3000 
    131 H131       -1.3140  -13.6914  -47.3139 H         1 UNK         0.0600 
    132 H132        1.0554  -14.4606  -47.3805 H         1 UNK         0.0800 
    133 H133        0.5362  -16.1009  -47.6739 H         1 UNK         0.0800 
    134 H134        1.7904  -15.5912  -51.2114 H         1 UNK         0.0800 
    135 H135        2.3747  -15.8193  -49.5827 H         1 UNK         0.0800 
    136 H136       -1.0220  -16.8896  -50.7565 H         1 UNK         0.1150 
    137 H137       -0.0201  -21.0512  -50.7706 H         1 UNK         0.1150 
    138 H138        2.9824  -18.1294  -49.9073 H         1 UNK         0.1150 
    139 H139        2.5193  -21.5004  -51.0782 H         1 UNK         0.0800 
    140 H140        3.6376  -20.3741  -50.3734 H         1 UNK         0.0800 
    141 H141        1.9481  -23.9907  -49.0405 H         1 UNK         0.0800 
    142 H142        0.9645  -22.9130  -49.9666 H         1 UNK         0.0800 
    143 H143       -0.3781  -23.9653  -48.2783 H         1 UNK         0.0600 
    144 H144        1.3545  -22.8380  -46.1212 H         1 UNK         0.3000 
    145 H145        0.1566  -25.3508  -43.9346 H         1 UNK         0.0600 
    146 H146        2.5359  -25.6970  -43.3303 H         1 UNK         0.0600 
    147 H147        2.1886  -26.4964  -44.8546 H         1 UNK         0.0600 
    148 H148        3.0592  -24.9672  -44.8494 H         1 UNK         0.0600 
    149 H149        1.9526  -23.2773  -43.3798 H         1 UNK         0.3000 
    150 H150       -0.1041  -20.4401  -43.4763 H         1 UNK         0.0600 
    151 H151        0.7052  -21.9570  -40.9476 H         1 UNK         0.0600 
    152 H152       -0.9363  -21.4761  -41.3636 H         1 UNK         0.0600 
    153 H153        0.2792  -20.2479  -41.0526 H         1 UNK         0.0600 
    154 H154        2.3510  -20.5031  -42.3017 H         1 UNK         0.3000 
    155 H155        4.4038  -20.4062  -43.1865 H         1 UNK         0.0600 
    156 H156        4.6702  -20.7624  -46.2215 H         1 UNK         0.0600 
    157 H157        4.9524  -22.0195  -45.0247 H         1 UNK         0.0600 
    158 H158        5.9920  -20.6038  -45.0656 H         1 UNK         0.0600 
    159 H159        4.3984  -18.5231  -45.3760 H         1 UNK         0.3000 
    160 H160        4.5842  -16.2913  -44.7692 H         1 UNK         0.0600 
    161 H161        2.4789  -15.0423  -45.3842 H         1 UNK         0.0600 
    162 H162        1.5301  -16.2444  -44.5092 H         1 UNK         0.0600 
    163 H163        2.4527  -16.7087  -45.9349 H         1 UNK         0.0600 
    164 H164        2.9075  -14.8763  -42.9041 H         1 UNK         0.3000 
    165 H165        5.1272  -14.5348  -40.2803 H         1 UNK         0.0600 
    166 H166        6.4853  -13.0968  -41.8057 H         1 UNK         0.0600 
    167 H167        5.0154  -12.4193  -42.4976 H         1 UNK         0.0600 
    168 H168        5.4179  -12.1239  -40.8064 H         1 UNK         0.0600 
    169 H169        2.9829  -12.8395  -41.1791 H         1 UNK         0.3000 
    170 H170        0.3415  -14.7697  -39.8696 H         1 UNK         0.0600 
    171 H171       -0.0839  -12.8028  -38.4145 H         1 UNK         0.0600 
    172 H172        1.5925  -12.2845  -38.5920 H         1 UNK         0.0600 
    173 H173        1.2184  -13.7954  -37.7784 H         1 UNK         0.0600 
    174 H174       -0.3456  -13.5074  -41.4890 H         1 UNK         0.3000 
    175 H175       -0.1755  -10.2654  -42.3990 H         1 UNK         0.0600 
    176 H176        0.4266  -10.8000  -44.7894 H         1 UNK         0.0600 
    177 H177        1.8371  -10.5606  -43.7708 H         1 UNK         0.0600 
    178 H178        1.3586  -12.1878  -44.2270 H         1 UNK         0.0600 
    179 H179       -1.0392  -12.7405  -43.7239 H         1 UNK         0.3000 
    180 H180       -4.0087  -13.0663  -41.8490 H         1 UNK         0.0600 
    181 H181       -3.9088  -11.9284  -44.6961 H         1 UNK         0.0600 
    182 H182       -4.7886  -11.2161  -43.3477 H         1 UNK         0.0600 
    183 H183       -5.2666  -12.7876  -43.9709 H         1 UNK         0.0600 
    184 H184       -3.2183  -14.2544  -44.3138 H         1 UNK         0.3000 
    185 H185       -0.6364  -16.3135  -43.2505 H         1 UNK         0.0600 
    186 H186       -2.5501  -17.6395  -42.2216 H         1 UNK         0.0600 
    187 H187       -3.4362  -17.4462  -43.7311 H         1 UNK         0.0600 
    188 H188       -1.9016  -18.3200  -43.6977 H         1 UNK         0.0600 
    189 H189       -2.2185  -16.5048  -45.5923 H         1 UNK         0.3000 
    190 H190        0.7113  -21.0483  -46.5203 H         1 UNK         0.3000 
    191 H191       -0.8423  -19.2351  -47.9834 H         1 UNK         0.0600 
    192 H192        1.2055  -18.6807  -46.6983 H         1 UNK         0.0600 
    193 H193       -0.1345  -17.6493  -46.2370 H         1 UNK         0.0600 
    194 H194        0.3495  -18.9534  -45.1794 H         1 UNK         0.0600 
    195 H195       -1.8459  -21.2212  -45.2366 H         1 UNK         0.3000 
    196 H196       -4.3773  -19.6693  -44.9526 H         1 UNK         0.0600 
    197 H197       -4.7242  -20.9537  -42.9376 H         1 UNK         0.0600 
    198 H198       -3.0700  -20.3677  -42.8748 H         1 UNK         0.0600 
    199 H199       -3.4014  -22.0469  -43.2969 H         1 UNK         0.0600 
    200 H200       -3.0779  -22.2158  -46.7749 H         1 UNK         0.3000 
    201 H201       -5.6049  -23.7641  -47.0210 H         1 UNK         0.0600 
    202 H202       -4.1917  -25.4461  -48.0972 H         1 UNK         0.0600 
    203 H203       -2.7996  -24.3723  -48.0931 H         1 UNK         0.0600 
    204 H204       -3.4397  -24.9994  -46.5764 H         1 UNK         0.0600 
    205 H205       -5.7465  -21.1867  -47.9005 H         1 UNK         0.3000 
    206 H206       -4.9010  -20.6946  -50.5665 H         1 UNK         0.0600 
    207 H207       -5.1175  -18.9585  -48.8161 H         1 UNK         0.0600 
    208 H208       -6.0930  -18.5414  -50.2145 H         1 UNK         0.0600 
    209 H209       -6.8657  -19.1848  -48.7692 H         1 UNK         0.0600 
    210 H210       -6.1367  -22.9655  -50.9080 H         1 UNK         0.3000 
    211 H211       -8.0282  -22.4357  -53.0066 H         1 UNK         0.0600 
    212 H212       -9.0261  -24.0539  -50.5879 H         1 UNK         0.0600 
    213 H213       -9.8347  -23.9696  -52.1494 H         1 UNK         0.0600 
    214 H214       -9.6945  -22.5266  -51.1588 H         1 UNK         0.0600 
    215 H215       -6.5066  -24.8372  -50.8202 H         1 UNK         0.3000 
    216 H216       -6.1484  -26.8735  -52.8446 H         1 UNK         0.0600 
    217 H217       -4.7309  -27.9339  -51.0952 H         1 UNK         0.0600 
    218 H218       -6.2708  -27.4252  -50.4191 H         1 UNK         0.0600 
    219 H219       -4.8150  -26.4782  -50.1125 H         1 UNK         0.0600 
    220 H220       -4.1457  -24.2525  -51.4433 H         1 UNK         0.3000 
    221 H221       -1.8333  -24.7566  -53.1447 H         1 UNK         0.0600 
    222 H222       -2.5273  -22.4384  -51.2699 H         1 UNK         0.0600 
    223 H223       -1.5930  -23.8650  -50.8387 H         1 UNK         0.0600 
    224 H224       -0.9591  -22.7307  -52.0210 H         1 UNK         0.0600 
    225 H225       -3.7984  -24.7007  -54.8774 H         1 UNK         0.3000 
    226 H226       -4.7520  -22.2653  -55.8944 H         1 UNK         0.0600 
    227 H227       -5.3852  -23.6538  -57.8776 H         1 UNK         0.0600 
    228 H228       -4.3555  -24.9600  -57.3008 H         1 UNK         0.0600 
    229 H229       -5.7726  -24.4706  -56.3720 H         1 UNK         0.0600 
    230 H230       -1.6236  -23.7314  -56.3792 H         1 UNK         0.3000 
    231 H231       -0.8380  -22.3824  -58.7807 H         1 UNK         0.0600 
    232 H232        0.8329  -23.5174  -56.4716 H         1 UNK         0.0600 
    233 H233        1.4545  -23.0612  -58.0530 H         1 UNK         0.0600 
    234 H234        0.3261  -24.3993  -57.9134 H         1 UNK         0.0600 
    235 H235       -1.1365  -21.2872  -55.4677 H         1 UNK         0.3000 
    236 H236        0.3502  -18.7517  -56.0687 H         1 UNK         0.0600 
    237 H237        0.5973  -18.6289  -53.5614 H         1 UNK         0.0600 
    238 H238       -0.1016  -20.2416  -53.4405 H         1 UNK         0.0600 
    239 H239        1.4312  -20.0040  -54.2703 H         1 UNK         0.0600 
    240 H240       -2.5729  -20.1674  -54.5035 H         1 UNK         0.3000 
    241 H241       -3.8065  -17.4579  -54.3597 H         1 UNK         0.0600 
    242 H242       -3.9420  -19.7923  -56.7240 H         1 UNK         0.3800 
    243 H243       -5.6251  -19.5910  -57.1122 H         1 UNK         0.3800 
    244 H244       -4.3045  -19.9962  -52.7426 H         1 UNK         0.0800 
    245 H245       -5.3357  -18.5929  -52.6530 H         1 UNK         0.0800 
    246 H246       -2.5607  -19.9742  -50.3130 H         1 UNK         0.0800 
    247 H247       -2.0487  -20.1594  -51.9755 H         1 UNK         0.0800 
@<TRIPOS>BOND
     1    1    2 1    
     2    1  127 1    
     3    1  128 1    
     4    1  129 1    
     5    2    3 2    
     6    2    4 am   BACKBONE|DICT|INTERRES
     7    4    5 1    
     8    4  130 1    
     9    5    6 1    
    10    5   65 1    
    11    5  131 1    
    12    6    7 1    
    13    6  132 1    
    14    6  133 1    
    15    7    8 1    
    16    8    9 1    
    17    8  134 1    
    18    8  135 1    
    19    9   10 ar   
    20    9   14 ar   
    21   10   11 ar   
    22   10  136 1    
    23   11   12 ar   
    24   11  126 1    
    25   12   13 ar   
    26   12  137 1    
    27   13   14 ar   
    28   13   15 1    
    29   14  138 1    
    30   15   16 1    
    31   15  139 1    
    32   15  140 1    
    33   16   17 1    
    34   17   18 1    
    35   17  141 1    
    36   17  142 1    
    37   18   19 1    
    38   18   67 1    
    39   18  143 1    
    40   19   20 am   BACKBONE|DICT|INTERRES
    41   19  144 1    
    42   20   21 2    
    43   20   22 1    
    44   22   23 1    
    45   22   24 1    
    46   22  145 1    
    47   23  146 1    
    48   23  147 1    
    49   23  148 1    
    50   24   25 am   BACKBONE|DICT|INTERRES
    51   24  149 1    
    52   25   26 2    
    53   25   27 1    
    54   27   28 1    
    55   27   29 1    
    56   27  150 1    
    57   28  151 1    
    58   28  152 1    
    59   28  153 1    
    60   29   30 am   BACKBONE|DICT|INTERRES
    61   29  154 1    
    62   30   31 2    
    63   30   32 1    
    64   32   33 1    
    65   32   34 1    
    66   32  155 1    
    67   33  156 1    
    68   33  157 1    
    69   33  158 1    
    70   34   35 am   BACKBONE|DICT|INTERRES
    71   34  159 1    
    72   35   36 2    
    73   35   37 1    
    74   37   38 1    
    75   37   39 1    
    76   37  160 1    
    77   38  161 1    
    78   38  162 1    
    79   38  163 1    
    80   39   40 am   BACKBONE|DICT|INTERRES
    81   39  164 1    
    82   40   41 2    
    83   40   42 1    
    84   42   43 1    
    85   42   44 1    
    86   42  165 1    
    87   43  166 1    
    88   43  167 1    
    89   43  168 1    
    90   44   45 am   BACKBONE|DICT|INTERRES
    91   44  169 1    
    92   45   46 2    
    93   45   47 1    
    94   47   48 1    
    95   47   49 1    
    96   47  170 1    
    97   48  171 1    
    98   48  172 1    
    99   48  173 1    
   100   49   50 am   BACKBONE|DICT|INTERRES
   101   49  174 1    
   102   50   51 2    
   103   50   52 1    
   104   52   53 1    
   105   52   54 1    
   106   52  175 1    
   107   53  176 1    
   108   53  177 1    
   109   53  178 1    
   110   54   55 am   BACKBONE|DICT|INTERRES
   111   54  179 1    
   112   55   56 2    
   113   55   57 1    
   114   57   58 1    
   115   57   59 1    
   116   57  180 1    
   117   58  181 1    
   118   58  182 1    
   119   58  183 1    
   120   59   60 am   BACKBONE|DICT|INTERRES
   121   59  184 1    
   122   60   61 2    
   123   60   62 1    
   124   62   63 1    
   125   62   64 1    
   126   62  185 1    
   127   63  186 1    
   128   63  187 1    
   129   63  188 1    
   130   64   65 am   BACKBONE|DICT|INTERRES
   131   64  189 1    
   132   65   66 2    
   133   67   68 2    
   134   67   69 am   BACKBONE|DICT|INTERRES
   135   69   70 1    
   136   69  190 1    
   137   70   71 1    
   138   70   72 1    
   139   70  191 1    
   140   71  192 1    
   141   71  193 1    
   142   71  194 1    
   143   72   73 2    
   144   72   74 am   BACKBONE|DICT|INTERRES
   145   74   75 1    
   146   74  195 1    
   147   75   76 1    
   148   75   77 1    
   149   75  196 1    
   150   76  197 1    
   151   76  198 1    
   152   76  199 1    
   153   77   78 2    
   154   77   79 am   BACKBONE|DICT|INTERRES
   155   79   80 1    
   156   79  200 1    
   157   80   81 1    
   158   80   82 1    
   159   80  201 1    
   160   81  202 1    
   161   81  203 1    
   162   81  204 1    
   163   82   83 2    
   164   82   84 am   BACKBONE|DICT|INTERRES
   165   84   85 1    
   166   84  205 1    
   167   85   86 1    
   168   85   87 1    
   169   85  206 1    
   170   86  207 1    
   171   86  208 1    
   172   86  209 1    
   173   87   88 2    
   174   87   89 am   BACKBONE|DICT|INTERRES
   175   89   90 1    
   176   89  210 1    
   177   90   91 1    
   178   90   92 1    
   179   90  211 1    
   180   91  212 1    
   181   91  213 1    
   182   91  214 1    
   183   92   93 2    
   184   92   94 am   BACKBONE|DICT|INTERRES
   185   94   95 1    
   186   94  215 1    
   187   95   96 1    
   188   95   97 1    
   189   95  216 1    
   190   96  217 1    
   191   96  218 1    
   192   96  219 1    
   193   97   98 2    
   194   97   99 am   BACKBONE|DICT|INTERRES
   195   99  100 1    
   196   99  220 1    
   197  100  101 1    
   198  100  102 1    
   199  100  221 1    
   200  101  222 1    
   201  101  223 1    
   202  101  224 1    
   203  102  103 2    
   204  102  104 am   BACKBONE|DICT|INTERRES
   205  104  105 1    
   206  104  225 1    
   207  105  106 1    
   208  105  107 1    
   209  105  226 1    
   210  106  227 1    
   211  106  228 1    
   212  106  229 1    
   213  107  108 2    
   214  107  109 am   BACKBONE|DICT|INTERRES
   215  109  110 1    
   216  109  230 1    
   217  110  111 1    
   218  110  112 1    
   219  110  231 1    
   220  111  232 1    
   221  111  233 1    
   222  111  234 1    
   223  112  113 2    
   224  112  114 am   BACKBONE|DICT|INTERRES
   225  114  115 1    
   226  114  235 1    
   227  115  116 1    
   228  115  117 1    
   229  115  236 1    
   230  116  237 1    
   231  116  238 1    
   232  116  239 1    
   233  117  118 2    
   234  117  119 am   BACKBONE|DICT|INTERRES
   235  119  120 1    
   236  119  240 1    
   237  120  121 1    
   238  120  124 1    
   239  120  241 1    
   240  121  122 am   BACKBONE|DICT|INTERRES
   241  121  123 2    
   242  122  242 1    
   243  122  243 1    
   244  124  125 1    
   245  124  244 1    
   246  124  245 1    
   247  125  126 1    
   248  126  246 1    
   249  126  247 1    
@<TRIPOS>SUBSTRUCTURE
     1 UNK         1 GROUP             0       ****    0 ROOT    
