@<TRIPOS>MOLECULE
3R540
247   249    1
SMALL
USER_CHARGES


@<TRIPOS>ATOM
      1 CA         -0.0629  -12.6181  -45.4943 C.3       0 UNK        -0.1800 
      2 C          -0.2398  -14.1354  -45.4892 C.2       0 UNK         0.5000 
      3 O          -0.8228  -14.6598  -44.5463 O.2       0 UNK        -0.5000 
      4 N           0.2161  -14.8816  -46.5049 N.am      1 UNK        -0.5000 
      5 CA          0.9379  -14.4477  -47.7081 C.3       1 UNK         0.1400 
      6 C6          1.1273  -15.5992  -48.7356 C.3       23 UNK        -0.0398 
      7 S7         -0.3031  -16.7161  -48.9281 S.3       23 UNK        -0.2404 
      8 C8         -1.5801  -15.6320  -49.6373 C.3       23 UNK        -0.0205 
      9 C9         -2.9555  -16.2116  -49.3559 C.ar      23 UNK        -0.0193 
     10 C10        -3.6854  -16.8585  -50.3567 C.ar      23 UNK        -0.1150 
     11 C11        -4.9205  -17.4512  -50.0660 C.ar      23 UNK        -0.0193 
     12 C12        -5.4215  -17.3830  -48.7613 C.ar      23 UNK        -0.1150 
     13 C13        -4.7093  -16.7196  -47.7583 C.ar      23 UNK        -0.0193 
     14 C14        -3.4841  -16.1250  -48.0670 C.ar      23 UNK        -0.1150 
     15 C15        -5.2601  -16.6390  -46.3422 C.3       23 UNK        -0.0205 
     16 S16        -4.0971  -17.3058  -45.1089 S.3       23 UNK        -0.2404 
     17 C17        -4.0975  -19.0859  -45.5010 C.3       23 UNK        -0.0398 
     18 CA         -2.8822  -19.5538  -46.3440 C.3       11 UNK         0.1400 
     19 N          -1.5877  -19.3332  -45.6849 N.am      11 UNK        -0.5000 
     20 C          -0.3922  -19.6069  -46.2330 C.2       10 UNK         0.5000 
     21 O          -0.2425  -20.0337  -47.3781 O.2       10 UNK        -0.5000 
     22 CA          0.8464  -19.4556  -45.3291 C.3       10 UNK         0.1400 
     23 CB          1.2770  -17.9865  -45.1953 C.3       10 UNK        -0.1800 
     24 N           0.6463  -20.0470  -44.0051 N.am      10 UNK        -0.5000 
     25 C           0.4315  -21.3526  -43.7851 C.2       9 UNK         0.5000 
     26 O           0.4320  -22.2044  -44.6716 O.2       9 UNK        -0.5000 
     27 CA          0.1163  -21.7793  -42.3421 C.3       9 UNK         0.1400 
     28 CB          1.4055  -21.9779  -41.5316 C.3       9 UNK        -0.1800 
     29 N          -0.7565  -20.8202  -41.6684 N.am      9 UNK        -0.5000 
     30 C          -2.0465  -20.6296  -41.9807 C.2       8 UNK         0.5000 
     31 O          -2.6478  -21.2767  -42.8393 O.2       8 UNK        -0.5000 
     32 CA         -2.7712  -19.4893  -41.2408 C.3       8 UNK         0.1400 
     33 CB         -3.3074  -19.9753  -39.8862 C.3       8 UNK        -0.1800 
     34 N          -1.9270  -18.3089  -41.0357 N.am      8 UNK        -0.5000 
     35 C          -1.4019  -17.5806  -42.0313 C.2       7 UNK         0.5000 
     36 O          -1.5561  -17.8478  -43.2199 O.2       7 UNK        -0.5000 
     37 CA         -0.4999  -16.4020  -41.6300 C.3       7 UNK         0.1400 
     38 CB         -1.3387  -15.1917  -41.1933 C.3       7 UNK        -0.1800 
     39 N           0.4588  -16.7324  -40.5756 N.am      7 UNK        -0.5000 
     40 C           1.3888  -17.6932  -40.6456 C.2       6 UNK         0.5000 
     41 O           1.4825  -18.4848  -41.5851 O.2       6 UNK        -0.5000 
     42 CA          2.4037  -17.7318  -39.4863 C.3       6 UNK         0.1400 
     43 CB          3.3982  -18.9006  -39.6024 C.3       6 UNK        -0.1800 
     44 N           3.1536  -16.4771  -39.4395 N.am      6 UNK        -0.5000 
     45 C           2.7421  -15.3474  -38.8480 C.2       5 UNK         0.5000 
     46 O           1.7007  -15.2594  -38.1961 O.2       5 UNK        -0.5000 
     47 CA          3.6140  -14.0990  -39.0737 C.3       5 UNK         0.1400 
     48 CB          4.7527  -14.0379  -38.0444 C.3       5 UNK        -0.1800 
     49 N           4.1763  -14.0527  -40.4265 N.am      5 UNK        -0.5000 
     50 C           3.4583  -13.8226  -41.5345 C.2       4 UNK         0.5000 
     51 O           2.2469  -13.5919  -41.5341 O.2       4 UNK        -0.5000 
     52 CA          4.2219  -13.8979  -42.8701 C.3       4 UNK         0.1400 
     53 CB          4.0041  -15.2737  -43.5199 C.3       4 UNK        -0.1800 
     54 N           3.8143  -12.8490  -43.8073 N.am      4 UNK        -0.5000 
     55 C           3.9782  -11.5325  -43.5991 C.2       3 UNK         0.5000 
     56 O           4.5468  -11.0737  -42.6060 O.2       3 UNK        -0.5000 
     57 CA          3.4128  -10.5666  -44.6678 C.3       3 UNK         0.1400 
     58 CB          4.1132   -9.1911  -44.6652 C.3       3 UNK        -0.1800 
     59 N           3.3796  -11.1289  -46.0230 N.am      3 UNK        -0.5000 
     60 C           4.4201  -11.5595  -46.7527 C.2       2 UNK         0.5000 
     61 O           5.5945  -11.4731  -46.3898 O.2       2 UNK        -0.5000 
     62 CA          4.0774  -12.2094  -48.1144 C.3       2 UNK         0.1400 
     63 CB          5.1679  -13.1951  -48.5843 C.3       2 UNK        -0.1800 
     64 N           2.7567  -12.8600  -48.1669 N.am      2 UNK        -0.5000 
     65 C           2.3127  -13.8382  -47.3629 C.2       1 UNK         0.5000 
     66 O           2.9394  -14.2641  -46.3914 O.2       1 UNK        -0.5000 
     67 C          -3.0728  -21.0334  -46.7346 C.2       11 UNK         0.5000 
     68 O          -3.4290  -21.3175  -47.8779 O.2       11 UNK        -0.5000 
     69 N          -2.8110  -21.9469  -45.7864 N.am      12 UNK        -0.5000 
     70 CA         -2.9065  -23.3938  -45.9831 C.3       12 UNK         0.1400 
     71 CB         -2.7101  -24.1137  -44.6408 C.3       12 UNK        -0.1800 
     72 C          -1.9201  -23.9231  -47.0386 C.2       12 UNK         0.5000 
     73 O          -2.3152  -24.7259  -47.8838 O.2       12 UNK        -0.5000 
     74 N          -0.6696  -23.4430  -46.9941 N.am      13 UNK        -0.5000 
     75 CA          0.3778  -23.7658  -47.9613 C.3       13 UNK         0.1400 
     76 CB          1.7185  -23.1735  -47.5021 C.3       13 UNK        -0.1800 
     77 C           0.0287  -23.2963  -49.3821 C.2       13 UNK         0.5000 
     78 O           0.1623  -24.0799  -50.3210 O.2       13 UNK        -0.5000 
     79 N          -0.4538  -22.0522  -49.5117 N.am      14 UNK        -0.5000 
     80 CA         -0.9130  -21.4747  -50.7754 C.3       14 UNK         0.1400 
     81 CB         -1.2326  -19.9867  -50.5770 C.3       14 UNK        -0.1800 
     82 C          -2.1175  -22.2283  -51.3669 C.2       14 UNK         0.5000 
     83 O          -2.1084  -22.5384  -52.5594 O.2       14 UNK        -0.5000 
     84 N          -3.0964  -22.5551  -50.5103 N.am      15 UNK        -0.5000 
     85 CA         -4.2896  -23.3224  -50.8653 C.3       15 UNK         0.1400 
     86 CB         -5.2725  -23.3260  -49.6857 C.3       15 UNK        -0.1800 
     87 C          -3.9770  -24.7607  -51.3196 C.2       15 UNK         0.5000 
     88 O          -4.6552  -25.2811  -52.2051 O.2       15 UNK        -0.5000 
     89 N          -2.9561  -25.3804  -50.7143 N.am      16 UNK        -0.5000 
     90 CA         -2.4614  -26.7005  -51.0939 C.3       16 UNK         0.1400 
     91 CB         -1.6133  -27.2794  -49.9505 C.3       16 UNK        -0.1800 
     92 C          -1.6595  -26.6638  -52.4069 C.2       16 UNK         0.5000 
     93 O          -1.8864  -27.5022  -53.2801 O.2       16 UNK        -0.5000 
     94 N          -0.7266  -25.7087  -52.5163 N.am      17 UNK        -0.5000 
     95 CA          0.2297  -25.6152  -53.6184 C.3       17 UNK         0.1400 
     96 CB          1.3976  -24.7076  -53.2023 C.3       17 UNK        -0.1800 
     97 C          -0.3772  -25.1179  -54.9405 C.2       17 UNK         0.5000 
     98 O           0.0331  -25.5964  -55.9992 O.2       17 UNK        -0.5000 
     99 N          -1.3062  -24.1563  -54.8682 N.am      18 UNK        -0.5000 
    100 CA        -1.8116  -23.4158  -56.0271 C.3       18 UNK         0.1400 
    101 CB        -1.1859  -22.0106  -56.0173 C.3       18 UNK        -0.1800 
    102 C         -3.3502  -23.3927  -56.0892 C.2       18 UNK         0.5000 
    103 O         -3.9216  -22.4848  -56.6993 O.2       18 UNK        -0.5000 
    104 N         -3.9853  -24.4066  -55.4809 N.am      19 UNK        -0.5000 
    105 CA        -5.4336  -24.6309  -55.3736 C.3       19 UNK         0.1400 
    106 CB        -6.0648  -24.8043  -56.7723 C.3       19 UNK        -0.1800 
    107 C         -6.1568  -23.5498  -54.5427 C.2       19 UNK         0.5000 
    108 O         -5.5260  -22.6172  -54.0479 O.2       19 UNK        -0.5000 
    109 N         -7.4821  -23.6853  -54.3942 N.am      20 UNK        -0.5000 
    110 CA        -8.3321  -22.8044  -53.5804 C.3       20 UNK         0.1400 
    111 CB        -9.7626  -23.3648  -53.5702 C.3       20 UNK        -0.1800 
    112 C         -8.3360  -21.3227  -54.0160 C.2       20 UNK         0.5000 
    113 O         -8.6219  -20.4505  -53.1951 O.2       20 UNK        -0.5000 
    114 N         -8.0071  -21.0656  -55.2888 N.am      21 UNK        -0.5000 
    115 CA        -7.8031  -19.7285  -55.8462 C.3       21 UNK         0.1400 
    116 CB        -7.9178  -19.8149  -57.3764 C.3       21 UNK        -0.1800 
    117 C         -6.4510  -19.1001  -55.4458 C.2       21 UNK         0.5000 
    118 O         -6.3048  -17.8822  -55.5599 O.2       21 UNK        -0.5000 
    119 N         -5.4949  -19.9281  -55.0017 N.am      22 UNK        -0.5000 
    120 CA        -4.1156  -19.5692  -54.6356 C.3       22 UNK         0.1400 
    121 C         -3.3043  -18.9706  -55.8235 C.2       22 UNK         0.5000 
    122 N         -3.4228  -19.5379  -57.0174 N.am      22 UNK        -0.7600 
    123 O         -2.5672  -17.9989  -55.6757 O.2       22 UNK        -0.5000 
    124 C124       -4.0245  -18.7218  -53.3387 C.3       23 UNK        -0.0398 
    125 S125       -4.8246  -19.5384  -51.9117 S.3       23 UNK        -0.2404 
    126 C126       -5.7296  -18.1535  -51.1512 C.3       23 UNK        -0.0205 
    127 H127        0.8870  -12.3553  -45.0312 H         1 UNK         0.0600 
    128 H128       -0.8567  -12.1480  -44.9134 H         1 UNK         0.0600 
    129 H129       -0.1014  -12.1933  -46.4961 H         1 UNK         0.0600 
    130 H130        0.0602  -15.8772  -46.4584 H         1 UNK         0.3000 
    131 H131        0.3344  -13.6737  -48.1838 H         1 UNK         0.0600 
    132 H132        1.3850  -15.1945  -49.7158 H         1 UNK         0.0800 
    133 H133        1.9661  -16.2358  -48.4459 H         1 UNK         0.0800 
    134 H134       -1.4104  -15.5201  -50.7091 H         1 UNK         0.0800 
    135 H135       -1.5228  -14.6343  -49.2027 H         1 UNK         0.0800 
    136 H136       -3.2819  -16.9144  -51.3562 H         1 UNK         0.1150 
    137 H137       -6.3721  -17.8411  -48.5272 H         1 UNK         0.1150 
    138 H138       -2.9211  -15.6244  -47.2912 H         1 UNK         0.1150 
    139 H139       -5.4590  -15.5931  -46.1050 H         1 UNK         0.0800 
    140 H140       -6.2148  -17.1603  -46.2581 H         1 UNK         0.0800 
    141 H141       -5.0315  -19.3237  -46.0139 H         1 UNK         0.0800 
    142 H142       -4.1305  -19.6272  -44.5541 H         1 UNK         0.0800 
    143 H143       -2.8683  -18.9765  -47.2709 H         1 UNK         0.0600 
    144 H144       -1.6165  -18.9274  -44.7515 H         1 UNK         0.3000 
    145 H145        1.6671  -19.9969  -45.8043 H         1 UNK         0.0600 
    146 H146        2.1661  -17.8906  -44.5718 H         1 UNK         0.0600 
    147 H147        1.5180  -17.5642  -46.1712 H         1 UNK         0.0600 
    148 H148        0.4947  -17.3696  -44.7548 H         1 UNK         0.0600 
    149 H149        0.6594  -19.4141  -43.2121 H         1 UNK         0.3000 
    150 H150       -0.4048  -22.7382  -42.3826 H         1 UNK         0.0600 
    151 H151        2.0233  -22.7596  -41.9752 H         1 UNK         0.0600 
    152 H152        1.1881  -22.2775  -40.5064 H         1 UNK         0.0600 
    153 H153        2.0074  -21.0703  -41.4982 H         1 UNK         0.0600 
    154 H154       -0.3228  -20.2019  -40.9989 H         1 UNK         0.3000 
    155 H155       -3.6212  -19.1867  -41.8563 H         1 UNK         0.0600 
    156 H156       -2.4997  -20.2619  -39.2116 H         1 UNK         0.0600 
    157 H157       -3.9541  -20.8447  -40.0124 H         1 UNK         0.0600 
    158 H158       -3.8975  -19.2015  -39.3949 H         1 UNK         0.0600 
    159 H159       -1.7356  -18.0379  -40.0825 H         1 UNK         0.3000 
    160 H160        0.0790  -16.1165  -42.5102 H         1 UNK         0.0600 
    161 H161       -2.0605  -14.9207  -41.9651 H         1 UNK         0.0600 
    162 H162       -0.7069  -14.3197  -41.0220 H         1 UNK         0.0600 
    163 H163       -1.8943  -15.3921  -40.2766 H         1 UNK         0.0600 
    164 H164        0.4861  -16.1113  -39.7760 H         1 UNK         0.3000 
    165 H165        1.8441  -17.8599  -38.5574 H         1 UNK         0.0600 
    166 H166        4.1037  -18.9010  -38.7715 H         1 UNK         0.0600 
    167 H167        2.8770  -19.8580  -39.5823 H         1 UNK         0.0600 
    168 H168        3.9718  -18.8552  -40.5291 H         1 UNK         0.0600 
    169 H169        4.0011  -16.4446  -39.9862 H         1 UNK         0.3000 
    170 H170        2.9810  -13.2199  -38.9342 H         1 UNK         0.0600 
    171 H171        4.3593  -14.0519  -37.0270 H         1 UNK         0.0600 
    172 H172        5.4346  -14.8833  -38.1441 H         1 UNK         0.0600 
    173 H173        5.3342  -13.1223  -38.1538 H         1 UNK         0.0600 
    174 H174        5.1687  -14.2210  -40.5086 H         1 UNK         0.3000 
    175 H175        5.2890  -13.7726  -42.6755 H         1 UNK         0.0600 
    176 H176        4.3056  -16.0796  -42.8497 H         1 UNK         0.0600 
    177 H177        4.5894  -15.3756  -44.4340 H         1 UNK         0.0600 
    178 H178        2.9553  -15.4349  -43.7746 H         1 UNK         0.0600 
    179 H179        3.3715  -13.1648  -44.6628 H         1 UNK         0.3000 
    180 H180        2.3722  -10.3976  -44.3878 H         1 UNK         0.0600 
    181 H181        5.1815   -9.2795  -44.8645 H         1 UNK         0.0600 
    182 H182        4.0017   -8.6958  -43.7000 H         1 UNK         0.0600 
    183 H183        3.6851   -8.5289  -45.4177 H         1 UNK         0.0600 
    184 H184        2.4610  -11.2392  -46.4261 H         1 UNK         0.3000 
    185 H185        4.0435  -11.3902  -48.8340 H         1 UNK         0.0600 
    186 H186        6.1316  -12.6958  -48.6912 H         1 UNK         0.0600 
    187 H187        5.3005  -14.0155  -47.8781 H         1 UNK         0.0600 
    188 H188        4.9196  -13.6250  -49.5547 H         1 UNK         0.0600 
    189 H189        2.1647  -12.5555  -48.9279 H         1 UNK         0.3000 
    190 H190       -2.5420  -21.6339  -44.8592 H         1 UNK         0.3000 
    191 H191       -3.9159  -23.6117  -46.3378 H         1 UNK         0.0600 
    192 H192       -2.7981  -25.1942  -44.7605 H         1 UNK         0.0600 
    193 H193       -1.7284  -23.9092  -44.2134 H         1 UNK         0.0600 
    194 H194       -3.4618  -23.8046  -43.9142 H         1 UNK         0.0600 
    195 H195       -0.4069  -22.8199  -46.2342 H         1 UNK         0.3000 
    196 H196        0.4802  -24.8527  -47.9878 H         1 UNK         0.0600 
    197 H197        2.5122  -23.4040  -48.2138 H         1 UNK         0.0600 
    198 H198        2.0186  -23.5817  -46.5370 H         1 UNK         0.0600 
    199 H199        1.6678  -22.0887  -47.4047 H         1 UNK         0.0600 
    200 H200       -0.5160  -21.4565  -48.6899 H         1 UNK         0.3000 
    201 H201       -0.0917  -21.5507  -51.4909 H         1 UNK         0.0600 
    202 H202       -0.3584  -19.4448  -50.2175 H         1 UNK         0.0600 
    203 H203       -2.0385  -19.8349  -49.8575 H         1 UNK         0.0600 
    204 H204       -1.5368  -19.5246  -51.5152 H         1 UNK         0.0600 
    205 H205       -3.0411  -22.2226  -49.5513 H         1 UNK         0.3000 
    206 H206       -4.7695  -22.8041  -51.6933 H         1 UNK         0.0600 
    207 H207       -4.8359  -23.7889  -48.8003 H         1 UNK         0.0600 
    208 H208       -5.5711  -22.3111  -49.4219 H         1 UNK         0.0600 
    209 H209       -6.1798  -23.8775  -49.9349 H         1 UNK         0.0600 
    210 H210       -2.4887  -24.9174  -49.9423 H         1 UNK         0.3000 
    211 H211       -3.3174  -27.3624  -51.2421 H         1 UNK         0.0600 
    212 H212       -0.7559  -26.6459  -49.7209 H         1 UNK         0.0600 
    213 H213       -1.2330  -28.2687  -50.2075 H         1 UNK         0.0600 
    214 H214       -2.2024  -27.3836  -49.0391 H         1 UNK         0.0600 
    215 H215       -0.5817  -25.0675  -51.7396 H         1 UNK         0.3000 
    216 H216        0.6336  -26.6138  -53.7986 H         1 UNK         0.0600 
    217 H217        2.1415  -24.6351  -53.9967 H         1 UNK         0.0600 
    218 H218        1.9036  -25.0966  -52.3185 H         1 UNK         0.0600 
    219 H219        1.0579  -23.6960  -52.9757 H         1 UNK         0.0600 
    220 H220       -1.5909  -23.7982  -53.9588 H         1 UNK         0.3000 
    221 H221       -1.5009  -23.9025  -56.9533 H         1 UNK         0.0600 
    222 H222       -1.4564  -21.4529  -56.9134 H         1 UNK         0.0600 
    223 H223       -0.0975  -22.0654  -55.9943 H         1 UNK         0.0600 
    224 H224       -1.5075  -21.4351  -55.1495 H         1 UNK         0.0600 
    225 H225       -3.4104  -25.0646  -54.9741 H         1 UNK         0.3000 
    226 H226       -5.5508  -25.5706  -54.8321 H         1 UNK         0.0600 
    227 H227       -7.0875  -25.1756  -56.7039 H         1 UNK         0.0600 
    228 H228       -6.0966  -23.8649  -57.3251 H         1 UNK         0.0600 
    229 H229       -5.5049  -25.5238  -57.3698 H         1 UNK         0.0600 
    230 H230       -7.9428  -24.4734  -54.8255 H         1 UNK         0.3000 
    231 H231       -7.9468  -22.8343  -52.5589 H         1 UNK         0.0600 
    232 H232       -9.7882  -24.3766  -53.1652 H         1 UNK         0.0600 
    233 H233      -10.1903  -23.3917  -54.5733 H         1 UNK         0.0600 
    234 H234      -10.4186  -22.7523  -52.9501 H         1 UNK         0.0600 
    235 H235       -7.7914  -21.8460  -55.8911 H         1 UNK         0.3000 
    236 H236       -8.5945  -19.0710  -55.4802 H         1 UNK         0.0600 
    237 H237       -8.8915  -20.2009  -57.6787 H         1 UNK         0.0600 
    238 H238       -7.8034  -18.8310  -57.8332 H         1 UNK         0.0600 
    239 H239       -7.1508  -20.4645  -57.8005 H         1 UNK         0.0600 
    240 H240       -5.7085  -20.9137  -54.8816 H         1 UNK         0.3000 
    241 H241       -3.6236  -20.5174  -54.4159 H         1 UNK         0.0600 
    242 H242       -2.9138  -19.1637  -57.8017 H         1 UNK         0.3800 
    243 H243       -3.9354  -20.4070  -57.1121 H         1 UNK         0.3800 
    244 H244       -4.4601  -17.7365  -53.5065 H         1 UNK         0.0800 
    245 H245       -2.9801  -18.5497  -53.0784 H         1 UNK         0.0800 
    246 H246       -6.6525  -18.5569  -50.7318 H         1 UNK         0.0800 
    247 H247       -6.0395  -17.4309  -51.9066 H         1 UNK         0.0800 
@<TRIPOS>BOND
     1    1    2 1    
     2    1  127 1    
     3    1  128 1    
     4    1  129 1    
     5    2    3 2    
     6    2    4 am   BACKBONE|DICT|INTERRES
     7    4    5 1    
     8    4  130 1    
     9    5    6 1    
    10    5   65 1    
    11    5  131 1    
    12    6    7 1    
    13    6  132 1    
    14    6  133 1    
    15    7    8 1    
    16    8    9 1    
    17    8  134 1    
    18    8  135 1    
    19    9   10 ar   
    20    9   14 ar   
    21   10   11 ar   
    22   10  136 1    
    23   11   12 ar   
    24   11  126 1    
    25   12   13 ar   
    26   12  137 1    
    27   13   14 ar   
    28   13   15 1    
    29   14  138 1    
    30   15   16 1    
    31   15  139 1    
    32   15  140 1    
    33   16   17 1    
    34   17   18 1    
    35   17  141 1    
    36   17  142 1    
    37   18   19 1    
    38   18   67 1    
    39   18  143 1    
    40   19   20 am   BACKBONE|DICT|INTERRES
    41   19  144 1    
    42   20   21 2    
    43   20   22 1    
    44   22   23 1    
    45   22   24 1    
    46   22  145 1    
    47   23  146 1    
    48   23  147 1    
    49   23  148 1    
    50   24   25 am   BACKBONE|DICT|INTERRES
    51   24  149 1    
    52   25   26 2    
    53   25   27 1    
    54   27   28 1    
    55   27   29 1    
    56   27  150 1    
    57   28  151 1    
    58   28  152 1    
    59   28  153 1    
    60   29   30 am   BACKBONE|DICT|INTERRES
    61   29  154 1    
    62   30   31 2    
    63   30   32 1    
    64   32   33 1    
    65   32   34 1    
    66   32  155 1    
    67   33  156 1    
    68   33  157 1    
    69   33  158 1    
    70   34   35 am   BACKBONE|DICT|INTERRES
    71   34  159 1    
    72   35   36 2    
    73   35   37 1    
    74   37   38 1    
    75   37   39 1    
    76   37  160 1    
    77   38  161 1    
    78   38  162 1    
    79   38  163 1    
    80   39   40 am   BACKBONE|DICT|INTERRES
    81   39  164 1    
    82   40   41 2    
    83   40   42 1    
    84   42   43 1    
    85   42   44 1    
    86   42  165 1    
    87   43  166 1    
    88   43  167 1    
    89   43  168 1    
    90   44   45 am   BACKBONE|DICT|INTERRES
    91   44  169 1    
    92   45   46 2    
    93   45   47 1    
    94   47   48 1    
    95   47   49 1    
    96   47  170 1    
    97   48  171 1    
    98   48  172 1    
    99   48  173 1    
   100   49   50 am   BACKBONE|DICT|INTERRES
   101   49  174 1    
   102   50   51 2    
   103   50   52 1    
   104   52   53 1    
   105   52   54 1    
   106   52  175 1    
   107   53  176 1    
   108   53  177 1    
   109   53  178 1    
   110   54   55 am   BACKBONE|DICT|INTERRES
   111   54  179 1    
   112   55   56 2    
   113   55   57 1    
   114   57   58 1    
   115   57   59 1    
   116   57  180 1    
   117   58  181 1    
   118   58  182 1    
   119   58  183 1    
   120   59   60 am   BACKBONE|DICT|INTERRES
   121   59  184 1    
   122   60   61 2    
   123   60   62 1    
   124   62   63 1    
   125   62   64 1    
   126   62  185 1    
   127   63  186 1    
   128   63  187 1    
   129   63  188 1    
   130   64   65 am   BACKBONE|DICT|INTERRES
   131   64  189 1    
   132   65   66 2    
   133   67   68 2    
   134   67   69 am   BACKBONE|DICT|INTERRES
   135   69   70 1    
   136   69  190 1    
   137   70   71 1    
   138   70   72 1    
   139   70  191 1    
   140   71  192 1    
   141   71  193 1    
   142   71  194 1    
   143   72   73 2    
   144   72   74 am   BACKBONE|DICT|INTERRES
   145   74   75 1    
   146   74  195 1    
   147   75   76 1    
   148   75   77 1    
   149   75  196 1    
   150   76  197 1    
   151   76  198 1    
   152   76  199 1    
   153   77   78 2    
   154   77   79 am   BACKBONE|DICT|INTERRES
   155   79   80 1    
   156   79  200 1    
   157   80   81 1    
   158   80   82 1    
   159   80  201 1    
   160   81  202 1    
   161   81  203 1    
   162   81  204 1    
   163   82   83 2    
   164   82   84 am   BACKBONE|DICT|INTERRES
   165   84   85 1    
   166   84  205 1    
   167   85   86 1    
   168   85   87 1    
   169   85  206 1    
   170   86  207 1    
   171   86  208 1    
   172   86  209 1    
   173   87   88 2    
   174   87   89 am   BACKBONE|DICT|INTERRES
   175   89   90 1    
   176   89  210 1    
   177   90   91 1    
   178   90   92 1    
   179   90  211 1    
   180   91  212 1    
   181   91  213 1    
   182   91  214 1    
   183   92   93 2    
   184   92   94 am   BACKBONE|DICT|INTERRES
   185   94   95 1    
   186   94  215 1    
   187   95   96 1    
   188   95   97 1    
   189   95  216 1    
   190   96  217 1    
   191   96  218 1    
   192   96  219 1    
   193   97   98 2    
   194   97   99 am   BACKBONE|DICT|INTERRES
   195   99  100 1    
   196   99  220 1    
   197  100  101 1    
   198  100  102 1    
   199  100  221 1    
   200  101  222 1    
   201  101  223 1    
   202  101  224 1    
   203  102  103 2    
   204  102  104 am   BACKBONE|DICT|INTERRES
   205  104  105 1    
   206  104  225 1    
   207  105  106 1    
   208  105  107 1    
   209  105  226 1    
   210  106  227 1    
   211  106  228 1    
   212  106  229 1    
   213  107  108 2    
   214  107  109 am   BACKBONE|DICT|INTERRES
   215  109  110 1    
   216  109  230 1    
   217  110  111 1    
   218  110  112 1    
   219  110  231 1    
   220  111  232 1    
   221  111  233 1    
   222  111  234 1    
   223  112  113 2    
   224  112  114 am   BACKBONE|DICT|INTERRES
   225  114  115 1    
   226  114  235 1    
   227  115  116 1    
   228  115  117 1    
   229  115  236 1    
   230  116  237 1    
   231  116  238 1    
   232  116  239 1    
   233  117  118 2    
   234  117  119 am   BACKBONE|DICT|INTERRES
   235  119  120 1    
   236  119  240 1    
   237  120  121 1    
   238  120  124 1    
   239  120  241 1    
   240  121  122 am   BACKBONE|DICT|INTERRES
   241  121  123 2    
   242  122  242 1    
   243  122  243 1    
   244  124  125 1    
   245  124  244 1    
   246  124  245 1    
   247  125  126 1    
   248  126  246 1    
   249  126  247 1    
@<TRIPOS>SUBSTRUCTURE
     1 UNK         1 GROUP             0       ****    0 ROOT    
