@<TRIPOS>MOLECULE
3R540
247   249    1
SMALL
USER_CHARGES


@<TRIPOS>ATOM
      1 CA         -0.3894  -10.3851  -51.8889 C.3       0 UNK        -0.1800 
      2 C           0.7770  -10.8002  -51.0030 C.2       0 UNK         0.5000 
      3 O           1.7646  -10.0705  -50.9073 O.2       0 UNK        -0.5000 
      4 N           0.6701  -11.9708  -50.3645 N.am      1 UNK        -0.5000 
      5 CA          1.6469  -12.4988  -49.4083 C.3       1 UNK         0.1400 
      6 C6          1.5200  -14.0377  -49.2586 C.3       23 UNK        -0.0398 
      7 S7         -0.1077  -14.6229  -48.6572 S.3       23 UNK        -0.2404 
      8 C8         -0.6702  -15.6910  -50.0287 C.3       23 UNK        -0.0205 
      9 C9          0.2213  -16.8939  -50.3475 C.ar      23 UNK        -0.0193 
     10 C10         0.1555  -17.4508  -51.6278 C.ar      23 UNK        -0.1150 
     11 C11         0.9473  -18.5481  -51.9755 C.ar      23 UNK        -0.0193 
     12 C12         1.8084  -19.1049  -51.0259 C.ar      23 UNK        -0.1150 
     13 C13         1.8887  -18.5628  -49.7396 C.ar      23 UNK        -0.0193 
     14 C14         1.0904  -17.4639  -49.4080 C.ar      23 UNK        -0.1150 
     15 C15         2.8792  -19.1245  -48.7267 C.3       23 UNK        -0.0205 
     16 S16         2.0822  -19.7614  -47.2183 S.3       23 UNK        -0.2404 
     17 C17         1.3037  -21.2945  -47.8233 C.3       23 UNK        -0.0398 
     18 CA          0.0068  -21.6794  -47.0723 C.3       11 UNK         0.1400 
     19 N           0.2162  -21.8647  -45.6318 N.am      11 UNK        -0.5000 
     20 C          -0.6736  -22.3775  -44.7703 C.2       10 UNK         0.5000 
     21 O          -1.8062  -22.7249  -45.1093 O.2       10 UNK        -0.5000 
     22 CA         -0.2825  -22.4721  -43.2826 C.3       10 UNK         0.1400 
     23 CB         -0.4191  -23.9113  -42.7488 C.3       10 UNK        -0.1800 
     24 N           1.0237  -21.8920  -42.9506 N.am      10 UNK        -0.5000 
     25 C           2.2548  -22.3359  -43.2400 C.2       9 UNK         0.5000 
     26 O           2.4847  -23.3736  -43.8604 O.2       9 UNK        -0.5000 
     27 CA          3.4349  -21.4489  -42.7900 C.3       9 UNK         0.1400 
     28 CB          4.0607  -20.7439  -44.0033 C.3       9 UNK        -0.1800 
     29 N           3.0561  -20.4318  -41.8055 N.am      9 UNK        -0.5000 
     30 C           2.7936  -20.6683  -40.5131 C.2       8 UNK         0.5000 
     31 O           2.9124  -21.7726  -39.9816 O.2       8 UNK        -0.5000 
     32 CA          2.2690  -19.4766  -39.6887 C.3       8 UNK         0.1400 
     33 CB          3.4258  -18.5878  -39.2072 C.3       8 UNK        -0.1800 
     34 N           1.2972  -18.6640  -40.4262 N.am      8 UNK        -0.5000 
     35 C           0.0794  -19.0882  -40.7965 C.2       7 UNK         0.5000 
     36 O          -0.3657  -20.2039  -40.5297 O.2       7 UNK        -0.5000 
     37 CA         -0.7722  -18.1232  -41.6384 C.3       7 UNK         0.1400 
     38 CB         -1.4833  -17.0996  -40.7416 C.3       7 UNK        -0.1800 
     39 N           0.0241  -17.4302  -42.6491 N.am      7 UNK        -0.5000 
     40 C           0.5390  -18.0154  -43.7388 C.2       6 UNK         0.5000 
     41 O           0.2969  -19.1772  -44.0647 O.2       6 UNK        -0.5000 
     42 CA          1.4957  -17.1751  -44.6022 C.3       6 UNK         0.1400 
     43 CB          0.7268  -16.4094  -45.6827 C.3       6 UNK        -0.1800 
     44 N           2.3015  -16.2353  -43.8278 N.am      6 UNK        -0.5000 
     45 C           3.2396  -16.5907  -42.9414 C.2       5 UNK         0.5000 
     46 O           3.5271  -17.7576  -42.6803 O.2       5 UNK        -0.5000 
     47 CA          3.9389  -15.4492  -42.1874 C.3       5 UNK         0.1400 
     48 CB          5.0561  -14.8314  -43.0410 C.3       5 UNK        -0.1800 
     49 N           2.9924  -14.4092  -41.7875 N.am      5 UNK        -0.5000 
     50 C           2.0635  -14.5631  -40.8343 C.2       4 UNK         0.5000 
     51 O           1.9277  -15.5910  -40.1692 O.2       4 UNK        -0.5000 
     52 CA          1.1002  -13.3809  -40.6228 C.3       4 UNK         0.1400 
     53 CB          1.7599  -12.2849  -39.7723 C.3       4 UNK        -0.1800 
     54 N           0.6314  -12.8037  -41.8850 N.am      4 UNK        -0.5000 
     55 C          -0.1565  -13.4490  -42.7560 C.2       3 UNK         0.5000 
     56 O          -0.5705  -14.5933  -42.5816 O.2       3 UNK        -0.5000 
     57 CA         -0.5214  -12.7108  -44.0556 C.3       3 UNK         0.1400 
     58 CB         -1.7430  -11.8063  -43.8354 C.3       3 UNK        -0.1800 
     59 N           0.5641  -11.9224  -44.6446 N.am      3 UNK        -0.5000 
     60 C           1.7677  -12.3947  -44.9930 C.2       2 UNK         0.5000 
     61 O           2.1710  -13.5268  -44.7224 O.2       2 UNK        -0.5000 
     62 CA          2.6506  -11.4620  -45.8401 C.3       2 UNK         0.1400 
     63 CB          4.1057  -11.4573  -45.3434 C.3       2 UNK        -0.1800 
     64 N           2.6193  -11.8978  -47.2359 N.am      2 UNK        -0.5000 
     65 C           1.5582  -11.7737  -48.0453 C.2       1 UNK         0.5000 
     66 O           0.5408  -11.1448  -47.7380 O.2       1 UNK        -0.5000 
     67 C          -1.1680  -20.7359  -47.4053 C.2       11 UNK         0.5000 
     68 O          -1.7868  -20.9143  -48.4537 O.2       11 UNK        -0.5000 
     69 N          -1.5173  -19.8270  -46.4799 N.am      12 UNK        -0.5000 
     70 CA         -2.7140  -18.9804  -46.5345 C.3       12 UNK         0.1400 
     71 CB         -2.7554  -18.0737  -45.2944 C.3       12 UNK        -0.1800 
     72 C          -4.0404  -19.7637  -46.6459 C.2       12 UNK         0.5000 
     73 O          -5.0053  -19.2311  -47.1943 O.2       12 UNK        -0.5000 
     74 N          -4.0642  -21.0007  -46.1323 N.am      13 UNK        -0.5000 
     75 CA         -5.1993  -21.9164  -46.2207 C.3       13 UNK         0.1400 
     76 CB         -5.5707  -22.3840  -44.8046 C.3       13 UNK        -0.1800 
     77 C          -4.8805  -23.1270  -47.1132 C.2       13 UNK         0.5000 
     78 O          -5.7677  -23.5984  -47.8223 O.2       13 UNK        -0.5000 
     79 N          -3.6397  -23.6284  -47.0449 N.am      14 UNK        -0.5000 
     80 CA         -3.2254  -24.8849  -47.6680 C.3       14 UNK         0.1400 
     81 CB         -2.0553  -25.4711  -46.8606 C.3       14 UNK        -0.1800 
     82 C          -2.8409  -24.7729  -49.1545 C.2       14 UNK         0.5000 
     83 O          -2.7736  -25.8108  -49.8134 O.2       14 UNK        -0.5000 
     84 N          -2.5599  -23.5607  -49.6526 N.am      15 UNK        -0.5000 
     85 CA         -2.1040  -23.3317  -51.0274 C.3       15 UNK         0.1400 
     86 CB         -0.5817  -23.1181  -51.0347 C.3       15 UNK        -0.1800 
     87 C          -2.8319  -22.1512  -51.6837 C.2       15 UNK         0.5000 
     88 O          -3.2488  -22.2587  -52.8375 O.2       15 UNK        -0.5000 
     89 N          -2.9908  -21.0459  -50.9430 N.am      16 UNK        -0.5000 
     90 CA         -3.6537  -19.8205  -51.3985 C.3       16 UNK         0.1400 
     91 CB         -3.2606  -18.6657  -50.4683 C.3       16 UNK        -0.1800 
     92 C          -5.1874  -19.9542  -51.4936 C.2       16 UNK         0.5000 
     93 O          -5.8411  -19.0715  -52.0491 O.2       16 UNK        -0.5000 
     94 N          -5.7283  -21.0669  -50.9890 N.am      17 UNK        -0.5000 
     95 CA         -7.1026  -21.5127  -51.1504 C.3       17 UNK         0.1400 
     96 CB         -7.8961  -21.1686  -49.8797 C.3       17 UNK        -0.1800 
     97 C          -7.0832  -23.0290  -51.4011 C.2       17 UNK         0.5000 
     98 O          -6.0958  -23.6915  -51.0699 O.2       17 UNK        -0.5000 
     99 N          -8.1839  -23.5431  -51.9664 N.am      18 UNK        -0.5000 
    100 CA        -8.5084  -24.9511  -52.2359 C.3       18 UNK         0.1400 
    101 CB        -8.6089  -25.7585  -50.9264 C.3       18 UNK        -0.1800 
    102 C         -7.5901  -25.6519  -53.2572 C.2       18 UNK         0.5000 
    103 O         -8.0689  -26.0913  -54.3040 O.2       18 UNK        -0.5000 
    104 N         -6.2948  -25.7550  -52.9430 N.am      19 UNK        -0.5000 
    105 CA        -5.2678  -26.4250  -53.7392 C.3       19 UNK         0.1400 
    106 CB        -4.1256  -26.8585  -52.8070 C.3       19 UNK        -0.1800 
    107 C         -4.7850  -25.5149  -54.8826 C.2       19 UNK         0.5000 
    108 O         -3.6794  -24.9773  -54.8270 O.2       19 UNK        -0.5000 
    109 N         -5.6652  -25.3140  -55.8716 N.am      20 UNK        -0.5000 
    110 CA        -5.5380  -24.4630  -57.0641 C.3       20 UNK         0.1400 
    111 CB        -4.2890  -24.8233  -57.8938 C.3       20 UNK        -0.1800 
    112 C         -5.6181  -22.9462  -56.7884 C.2       20 UNK         0.5000 
    113 O         -5.8463  -22.1906  -57.7334 O.2       20 UNK        -0.5000 
    114 N         -5.4782  -22.5358  -55.5191 N.am      21 UNK        -0.5000 
    115 CA        -5.5742  -21.1720  -54.9959 C.3       21 UNK         0.1400 
    116 CB        -7.0130  -20.6329  -55.1337 C.3       21 UNK        -0.1800 
    117 C         -4.5106  -20.2398  -55.6079 C.2       21 UNK         0.5000 
    118 O         -4.8375  -19.3801  -56.4294 O.2       21 UNK        -0.5000 
    119 N         -3.2460  -20.4655  -55.2283 N.am      22 UNK        -0.5000 
    120 CA        -2.0833  -19.6960  -55.7033 C.3       22 UNK         0.1400 
    121 C         -2.1116  -18.1821  -55.3306 C.2       22 UNK         0.5000 
    122 N         -1.4069  -17.3448  -56.0808 N.am      22 UNK        -0.7600 
    123 O         -2.7333  -17.7604  -54.3581 O.2       22 UNK        -0.5000 
    124 C124       -0.7409  -20.3745  -55.3164 C.3       23 UNK        -0.0398 
    125 S125       -0.3889  -20.3955  -53.5242 S.3       23 UNK        -0.2404 
    126 C126        0.8837  -19.1069  -53.3871 C.3       23 UNK        -0.0205 
    127 H127       -0.8084   -9.4416  -51.5392 H         1 UNK         0.0600 
    128 H128       -0.0512  -10.2496  -52.9163 H         1 UNK         0.0600 
    129 H129       -1.1845  -11.1312  -51.8884 H         1 UNK         0.0600 
    130 H130       -0.1833  -12.5044  -50.4430 H         1 UNK         0.3000 
    131 H131        2.6424  -12.2963  -49.8095 H         1 UNK         0.0600 
    132 H132        1.7356  -14.5036  -50.2210 H         1 UNK         0.0800 
    133 H133        2.2845  -14.4204  -48.5806 H         1 UNK         0.0800 
    134 H134       -0.7819  -15.0700  -50.9189 H         1 UNK         0.0800 
    135 H135       -1.6665  -16.0612  -49.7849 H         1 UNK         0.0800 
    136 H136       -0.5164  -17.0284  -52.3626 H         1 UNK         0.1150 
    137 H137        2.4269  -19.9491  -51.2964 H         1 UNK         0.1150 
    138 H138        1.1636  -17.0526  -48.4142 H         1 UNK         0.1150 
    139 H139        3.4882  -19.9142  -49.1693 H         1 UNK         0.0800 
    140 H140        3.5707  -18.3302  -48.4427 H         1 UNK         0.0800 
    141 H141        2.0333  -22.0993  -47.7252 H         1 UNK         0.0800 
    142 H142        1.1077  -21.2042  -48.8925 H         1 UNK         0.0800 
    143 H143       -0.2905  -22.6561  -47.4587 H         1 UNK         0.0600 
    144 H144        1.0954  -21.5333  -45.2630 H         1 UNK         0.3000 
    145 H145       -1.0113  -21.8589  -42.7512 H         1 UNK         0.0600 
    146 H146       -0.1685  -23.9641  -41.6893 H         1 UNK         0.0600 
    147 H147       -1.4431  -24.2708  -42.8581 H         1 UNK         0.0600 
    148 H148        0.2255  -24.6086  -43.2841 H         1 UNK         0.0600 
    149 H149        0.9694  -21.0007  -42.4765 H         1 UNK         0.3000 
    150 H150        4.1876  -22.1029  -42.3452 H         1 UNK         0.0600 
    151 H151        4.3661  -21.4616  -44.7657 H         1 UNK         0.0600 
    152 H152        4.9466  -20.1775  -43.7159 H         1 UNK         0.0600 
    153 H153        3.3586  -20.0499  -44.4660 H         1 UNK         0.0600 
    154 H154        3.0138  -19.4719  -42.1415 H         1 UNK         0.3000 
    155 H155        1.7660  -19.8801  -38.8075 H         1 UNK         0.0600 
    156 H156        3.9663  -18.1388  -40.0404 H         1 UNK         0.0600 
    157 H157        4.1438  -19.1648  -38.6233 H         1 UNK         0.0600 
    158 H158        3.0632  -17.7799  -38.5713 H         1 UNK         0.0600 
    159 H159        1.5785  -17.7191  -40.6594 H         1 UNK         0.3000 
    160 H160       -1.5366  -18.7126  -42.1489 H         1 UNK         0.0600 
    161 H161       -2.1654  -16.4777  -41.3215 H         1 UNK         0.0600 
    162 H162       -0.7739  -16.4402  -40.2403 H         1 UNK         0.0600 
    163 H163       -2.0735  -17.5969  -39.9709 H         1 UNK         0.0600 
    164 H164        0.1801  -16.4379  -42.5040 H         1 UNK         0.3000 
    165 H165        2.1857  -17.8612  -45.0931 H         1 UNK         0.0600 
    166 H166        1.4077  -15.8411  -46.3160 H         1 UNK         0.0600 
    167 H167        0.1744  -17.0946  -46.3262 H         1 UNK         0.0600 
    168 H168        0.0115  -15.7101  -45.2502 H         1 UNK         0.0600 
    169 H169        2.1585  -15.2459  -44.0183 H         1 UNK         0.3000 
    170 H170        4.3913  -15.8681  -41.2860 H         1 UNK         0.0600 
    171 H171        5.5786  -14.0435  -42.4983 H         1 UNK         0.0600 
    172 H172        4.6684  -14.4026  -43.9652 H         1 UNK         0.0600 
    173 H173        5.7963  -15.5841  -43.3152 H         1 UNK         0.0600 
    174 H174        2.9896  -13.5620  -42.3365 H         1 UNK         0.3000 
    175 H175        0.2308  -13.7561  -40.0784 H         1 UNK         0.0600 
    176 H176        1.0560  -11.4834  -39.5479 H         1 UNK         0.0600 
    177 H177        2.1072  -12.6871  -38.8196 H         1 UNK         0.0600 
    178 H178        2.6211  -11.8445  -40.2763 H         1 UNK         0.0600 
    179 H179        0.9347  -11.8671  -42.1077 H         1 UNK         0.3000 
    180 H180       -0.7966  -13.4698  -44.7904 H         1 UNK         0.0600 
    181 H181       -1.5206  -10.9893  -43.1479 H         1 UNK         0.0600 
    182 H182       -2.5773  -12.3707  -43.4165 H         1 UNK         0.0600 
    183 H183       -2.0863  -11.3718  -44.7745 H         1 UNK         0.0600 
    184 H184        0.3154  -10.9917  -44.9480 H         1 UNK         0.3000 
    185 H185        2.2656  -10.4421  -45.7736 H         1 UNK         0.0600 
    186 H186        4.5732  -12.4373  -45.4446 H         1 UNK         0.0600 
    187 H187        4.7088  -10.7417  -45.9024 H         1 UNK         0.0600 
    188 H188        4.1585  -11.1750  -44.2912 H         1 UNK         0.0600 
    189 H189        3.4124  -12.4407  -47.5447 H         1 UNK         0.3000 
    190 H190       -0.9390  -19.7471  -45.6496 H         1 UNK         0.3000 
    191 H191       -2.6277  -18.3465  -47.4184 H         1 UNK         0.0600 
    192 H192       -1.9204  -17.3772  -45.2816 H         1 UNK         0.0600 
    193 H193       -2.7263  -18.6540  -44.3716 H         1 UNK         0.0600 
    194 H194       -3.6660  -17.4733  -45.2757 H         1 UNK         0.0600 
    195 H195       -3.2212  -21.3671  -45.7056 H         1 UNK         0.3000 
    196 H196       -6.0699  -21.4159  -46.6496 H         1 UNK         0.0600 
    197 H197       -4.7389  -22.8945  -44.3169 H         1 UNK         0.0600 
    198 H198       -6.4136  -23.0759  -44.8294 H         1 UNK         0.0600 
    199 H199       -5.8600  -21.5412  -44.1766 H         1 UNK         0.0600 
    200 H200       -2.9770  -23.2212  -46.3895 H         1 UNK         0.3000 
    201 H201       -4.0554  -25.5921  -47.6053 H         1 UNK         0.0600 
    202 H202       -2.3242  -25.6014  -45.8121 H         1 UNK         0.0600 
    203 H203       -1.1743  -24.8307  -46.9025 H         1 UNK         0.0600 
    204 H204       -1.7657  -26.4501  -47.2445 H         1 UNK         0.0600 
    205 H205       -2.6309  -22.7493  -49.0513 H         1 UNK         0.3000 
    206 H206       -2.3196  -24.2037  -51.6469 H         1 UNK         0.0600 
    207 H207       -0.0619  -23.9474  -50.5549 H         1 UNK         0.0600 
    208 H208       -0.2062  -23.0474  -52.0558 H         1 UNK         0.0600 
    209 H209       -0.3021  -22.1997  -50.5188 H         1 UNK         0.0600 
    210 H210       -2.5678  -21.0022  -50.0171 H         1 UNK         0.3000 
    211 H211       -3.2814  -19.5886  -52.3977 H         1 UNK         0.0600 
    212 H212       -3.7139  -18.7783  -49.4858 H         1 UNK         0.0600 
    213 H213       -3.5891  -17.7089  -50.8755 H         1 UNK         0.0600 
    214 H214       -2.1802  -18.6135  -50.3365 H         1 UNK         0.0600 
    215 H215       -5.1106  -21.7753  -50.6133 H         1 UNK         0.3000 
    216 H216       -7.5582  -21.0240  -52.0140 H         1 UNK         0.0600 
    217 H217       -8.9371  -21.4806  -49.9685 H         1 UNK         0.0600 
    218 H218       -7.8924  -20.0945  -49.6927 H         1 UNK         0.0600 
    219 H219       -7.4782  -21.6611  -49.0007 H         1 UNK         0.0600 
    220 H220       -8.9180  -22.8968  -52.2208 H         1 UNK         0.3000 
    221 H221       -9.5055  -24.9400  -52.6793 H         1 UNK         0.0600 
    222 H222       -7.6583  -25.8005  -50.3937 H         1 UNK         0.0600 
    223 H223       -9.3477  -25.3235  -50.2533 H         1 UNK         0.0600 
    224 H224       -8.9161  -26.7861  -51.1249 H         1 UNK         0.0600 
    225 H225       -5.9822  -25.2632  -52.1093 H         1 UNK         0.3000 
    226 H226       -5.6913  -27.3271  -54.1859 H         1 UNK         0.0600 
    227 H227       -4.4822  -27.5375  -52.0324 H         1 UNK         0.0600 
    228 H228       -3.3416  -27.3764  -53.3607 H         1 UNK         0.0600 
    229 H229       -3.6695  -26.0012  -52.3138 H         1 UNK         0.0600 
    230 H230       -6.5773  -25.7422  -55.7503 H         1 UNK         0.3000 
    231 H231       -6.4097  -24.6994  -57.6762 H         1 UNK         0.0600 
    232 H232       -4.2484  -25.8919  -58.1046 H         1 UNK         0.0600 
    233 H233       -3.3655  -24.5434  -57.3868 H         1 UNK         0.0600 
    234 H234       -4.2986  -24.3039  -58.8527 H         1 UNK         0.0600 
    235 H235       -5.1940  -23.2361  -54.8472 H         1 UNK         0.3000 
    236 H236       -5.3632  -21.2468  -53.9326 H         1 UNK         0.0600 
    237 H237       -7.1038  -19.6534  -54.6627 H         1 UNK         0.0600 
    238 H238       -7.3127  -20.5228  -56.1762 H         1 UNK         0.0600 
    239 H239       -7.7294  -21.2952  -54.6479 H         1 UNK         0.0600 
    240 H240       -3.0652  -21.1677  -54.5166 H         1 UNK         0.3000 
    241 H241       -2.1435  -19.7335  -56.7929 H         1 UNK         0.0600 
    242 H242       -1.4104  -16.3641  -55.8480 H         1 UNK         0.3800 
    243 H243       -0.8901  -17.6571  -56.8882 H         1 UNK         0.3800 
    244 H244       -0.7463  -21.4087  -55.6632 H         1 UNK         0.0800 
    245 H245        0.0884  -19.9014  -55.8444 H         1 UNK         0.0800 
    246 H246        0.6721  -18.2972  -54.0867 H         1 UNK         0.0800 
    247 H247        1.8503  -19.5205  -53.6784 H         1 UNK         0.0800 
@<TRIPOS>BOND
     1    1    2 1    
     2    1  127 1    
     3    1  128 1    
     4    1  129 1    
     5    2    3 2    
     6    2    4 am   BACKBONE|DICT|INTERRES
     7    4    5 1    
     8    4  130 1    
     9    5    6 1    
    10    5   65 1    
    11    5  131 1    
    12    6    7 1    
    13    6  132 1    
    14    6  133 1    
    15    7    8 1    
    16    8    9 1    
    17    8  134 1    
    18    8  135 1    
    19    9   10 ar   
    20    9   14 ar   
    21   10   11 ar   
    22   10  136 1    
    23   11   12 ar   
    24   11  126 1    
    25   12   13 ar   
    26   12  137 1    
    27   13   14 ar   
    28   13   15 1    
    29   14  138 1    
    30   15   16 1    
    31   15  139 1    
    32   15  140 1    
    33   16   17 1    
    34   17   18 1    
    35   17  141 1    
    36   17  142 1    
    37   18   19 1    
    38   18   67 1    
    39   18  143 1    
    40   19   20 am   BACKBONE|DICT|INTERRES
    41   19  144 1    
    42   20   21 2    
    43   20   22 1    
    44   22   23 1    
    45   22   24 1    
    46   22  145 1    
    47   23  146 1    
    48   23  147 1    
    49   23  148 1    
    50   24   25 am   BACKBONE|DICT|INTERRES
    51   24  149 1    
    52   25   26 2    
    53   25   27 1    
    54   27   28 1    
    55   27   29 1    
    56   27  150 1    
    57   28  151 1    
    58   28  152 1    
    59   28  153 1    
    60   29   30 am   BACKBONE|DICT|INTERRES
    61   29  154 1    
    62   30   31 2    
    63   30   32 1    
    64   32   33 1    
    65   32   34 1    
    66   32  155 1    
    67   33  156 1    
    68   33  157 1    
    69   33  158 1    
    70   34   35 am   BACKBONE|DICT|INTERRES
    71   34  159 1    
    72   35   36 2    
    73   35   37 1    
    74   37   38 1    
    75   37   39 1    
    76   37  160 1    
    77   38  161 1    
    78   38  162 1    
    79   38  163 1    
    80   39   40 am   BACKBONE|DICT|INTERRES
    81   39  164 1    
    82   40   41 2    
    83   40   42 1    
    84   42   43 1    
    85   42   44 1    
    86   42  165 1    
    87   43  166 1    
    88   43  167 1    
    89   43  168 1    
    90   44   45 am   BACKBONE|DICT|INTERRES
    91   44  169 1    
    92   45   46 2    
    93   45   47 1    
    94   47   48 1    
    95   47   49 1    
    96   47  170 1    
    97   48  171 1    
    98   48  172 1    
    99   48  173 1    
   100   49   50 am   BACKBONE|DICT|INTERRES
   101   49  174 1    
   102   50   51 2    
   103   50   52 1    
   104   52   53 1    
   105   52   54 1    
   106   52  175 1    
   107   53  176 1    
   108   53  177 1    
   109   53  178 1    
   110   54   55 am   BACKBONE|DICT|INTERRES
   111   54  179 1    
   112   55   56 2    
   113   55   57 1    
   114   57   58 1    
   115   57   59 1    
   116   57  180 1    
   117   58  181 1    
   118   58  182 1    
   119   58  183 1    
   120   59   60 am   BACKBONE|DICT|INTERRES
   121   59  184 1    
   122   60   61 2    
   123   60   62 1    
   124   62   63 1    
   125   62   64 1    
   126   62  185 1    
   127   63  186 1    
   128   63  187 1    
   129   63  188 1    
   130   64   65 am   BACKBONE|DICT|INTERRES
   131   64  189 1    
   132   65   66 2    
   133   67   68 2    
   134   67   69 am   BACKBONE|DICT|INTERRES
   135   69   70 1    
   136   69  190 1    
   137   70   71 1    
   138   70   72 1    
   139   70  191 1    
   140   71  192 1    
   141   71  193 1    
   142   71  194 1    
   143   72   73 2    
   144   72   74 am   BACKBONE|DICT|INTERRES
   145   74   75 1    
   146   74  195 1    
   147   75   76 1    
   148   75   77 1    
   149   75  196 1    
   150   76  197 1    
   151   76  198 1    
   152   76  199 1    
   153   77   78 2    
   154   77   79 am   BACKBONE|DICT|INTERRES
   155   79   80 1    
   156   79  200 1    
   157   80   81 1    
   158   80   82 1    
   159   80  201 1    
   160   81  202 1    
   161   81  203 1    
   162   81  204 1    
   163   82   83 2    
   164   82   84 am   BACKBONE|DICT|INTERRES
   165   84   85 1    
   166   84  205 1    
   167   85   86 1    
   168   85   87 1    
   169   85  206 1    
   170   86  207 1    
   171   86  208 1    
   172   86  209 1    
   173   87   88 2    
   174   87   89 am   BACKBONE|DICT|INTERRES
   175   89   90 1    
   176   89  210 1    
   177   90   91 1    
   178   90   92 1    
   179   90  211 1    
   180   91  212 1    
   181   91  213 1    
   182   91  214 1    
   183   92   93 2    
   184   92   94 am   BACKBONE|DICT|INTERRES
   185   94   95 1    
   186   94  215 1    
   187   95   96 1    
   188   95   97 1    
   189   95  216 1    
   190   96  217 1    
   191   96  218 1    
   192   96  219 1    
   193   97   98 2    
   194   97   99 am   BACKBONE|DICT|INTERRES
   195   99  100 1    
   196   99  220 1    
   197  100  101 1    
   198  100  102 1    
   199  100  221 1    
   200  101  222 1    
   201  101  223 1    
   202  101  224 1    
   203  102  103 2    
   204  102  104 am   BACKBONE|DICT|INTERRES
   205  104  105 1    
   206  104  225 1    
   207  105  106 1    
   208  105  107 1    
   209  105  226 1    
   210  106  227 1    
   211  106  228 1    
   212  106  229 1    
   213  107  108 2    
   214  107  109 am   BACKBONE|DICT|INTERRES
   215  109  110 1    
   216  109  230 1    
   217  110  111 1    
   218  110  112 1    
   219  110  231 1    
   220  111  232 1    
   221  111  233 1    
   222  111  234 1    
   223  112  113 2    
   224  112  114 am   BACKBONE|DICT|INTERRES
   225  114  115 1    
   226  114  235 1    
   227  115  116 1    
   228  115  117 1    
   229  115  236 1    
   230  116  237 1    
   231  116  238 1    
   232  116  239 1    
   233  117  118 2    
   234  117  119 am   BACKBONE|DICT|INTERRES
   235  119  120 1    
   236  119  240 1    
   237  120  121 1    
   238  120  124 1    
   239  120  241 1    
   240  121  122 am   BACKBONE|DICT|INTERRES
   241  121  123 2    
   242  122  242 1    
   243  122  243 1    
   244  124  125 1    
   245  124  244 1    
   246  124  245 1    
   247  125  126 1    
   248  126  246 1    
   249  126  247 1    
@<TRIPOS>SUBSTRUCTURE
     1 UNK         1 GROUP             0       ****    0 ROOT    
