@<TRIPOS>MOLECULE
3R540
247   249    1
SMALL
USER_CHARGES


@<TRIPOS>ATOM
      1 CA          0.4447  -10.1457  -50.4934 C.3       0 UNK        -0.1800 
      2 C           1.4411  -10.2065  -49.3448 C.2       0 UNK         0.5000 
      3 O           2.2139   -9.2679  -49.1486 O.2       0 UNK        -0.5000 
      4 N           1.4204  -11.3003  -48.5748 N.am      1 UNK        -0.5000 
      5 CA          2.2808  -11.5659  -47.4156 C.3       1 UNK         0.1400 
      6 C6          2.5207  -13.0865  -47.2033 C.3       23 UNK        -0.0398 
      7 S7          1.0216  -14.1311  -47.2694 S.3       23 UNK        -0.2404 
      8 C8          1.1856  -14.8294  -48.9467 C.3       23 UNK        -0.0205 
      9 C9          0.1161  -15.8643  -49.2695 C.ar      23 UNK        -0.0193 
     10 C10        -1.2400  -15.5707  -49.0976 C.ar      23 UNK        -0.1150 
     11 C11        -2.2211  -16.5209  -49.3947 C.ar      23 UNK        -0.0193 
     12 C12        -1.8344  -17.7714  -49.8893 C.ar      23 UNK        -0.1150 
     13 C13        -0.4850  -18.0620  -50.1083 C.ar      23 UNK        -0.0193 
     14 C14         0.4849  -17.1109  -49.7823 C.ar      23 UNK        -0.1150 
     15 C15        -0.0701  -19.3894  -50.7239 C.3       23 UNK        -0.0205 
     16 S16         0.4286  -20.5953  -49.4593 S.3       23 UNK        -0.2404 
     17 C17        -1.1903  -21.0036  -48.7355 C.3       23 UNK        -0.0398 
     18 CA         -1.1269  -22.2723  -47.8582 C.3       11 UNK         0.1400 
     19 N          -0.3652  -22.0773  -46.6217 N.am      11 UNK        -0.5000 
     20 C          -0.0406  -23.0610  -45.7704 C.2       10 UNK         0.5000 
     21 O          -0.2844  -24.2495  -45.9757 O.2       10 UNK        -0.5000 
     22 CA          0.6137  -22.6482  -44.4404 C.3       10 UNK         0.1400 
     23 CB          2.1213  -22.4142  -44.6164 C.3       10 UNK        -0.1800 
     24 N          -0.0138  -21.4640  -43.8517 N.am      10 UNK        -0.5000 
     25 C          -1.2867  -21.4131  -43.4318 C.2       9 UNK         0.5000 
     26 O          -2.0488  -22.3799  -43.4466 O.2       9 UNK        -0.5000 
     27 CA         -1.8144  -20.0457  -42.9598 C.3       9 UNK         0.1400 
     28 CB         -1.3784  -19.7591  -41.5158 C.3       9 UNK        -0.1800 
     29 N          -1.3934  -18.9472  -43.8292 N.am      9 UNK        -0.5000 
     30 C          -1.7361  -18.8199  -45.1191 C.2       8 UNK         0.5000 
     31 O          -2.4887  -19.5956  -45.7076 O.2       8 UNK        -0.5000 
     32 CA         -1.0890  -17.6588  -45.8939 C.3       8 UNK         0.1400 
     33 CB         -1.8458  -16.3461  -45.6388 C.3       8 UNK        -0.1800 
     34 N           0.3278  -17.4925  -45.5652 N.am      8 UNK        -0.5000 
     35 C           1.2726  -18.4102  -45.8165 C.2       7 UNK         0.5000 
     36 O           1.0498  -19.4872  -46.3670 O.2       7 UNK        -0.5000 
     37 CA          2.6901  -18.1027  -45.3025 C.3       7 UNK         0.1400 
     38 CB          3.4006  -17.0886  -46.2111 C.3       7 UNK        -0.1800 
     39 N           2.6769  -17.6103  -43.9244 N.am      7 UNK        -0.5000 
     40 C           2.3157  -18.3527  -42.8651 C.2       6 UNK         0.5000 
     41 O           2.0298  -19.5471  -42.9374 O.2       6 UNK        -0.5000 
     42 CA          2.2015  -17.6370  -41.5032 C.3       6 UNK         0.1400 
     43 CB          3.5390  -17.6939  -40.7511 C.3       6 UNK        -0.1800 
     44 N           1.7768  -16.2425  -41.6237 N.am      6 UNK        -0.5000 
     45 C           0.6362  -15.8319  -42.1945 C.2       5 UNK         0.5000 
     46 O          -0.2565  -16.6025  -42.5463 O.2       5 UNK        -0.5000 
     47 CA          0.4796  -14.3226  -42.4691 C.3       5 UNK         0.1400 
     48 CB         -0.5964  -13.7175  -41.5552 C.3       5 UNK        -0.1800 
     49 N           1.7082  -13.5300  -42.3413 N.am      5 UNK        -0.5000 
     50 C           2.8347  -13.6738  -43.0571 C.2       4 UNK         0.5000 
     51 O           3.0187  -14.5879  -43.8630 O.2       4 UNK        -0.5000 
     52 CA          3.9264  -12.6173  -42.8066 C.3       4 UNK         0.1400 
     53 CB          4.9707  -12.5304  -43.9348 C.3       4 UNK        -0.1800 
     54 N           3.3060  -11.3084  -42.6099 N.am      4 UNK        -0.5000 
     55 C           3.6826  -10.3839  -41.7171 C.2       3 UNK         0.5000 
     56 O           4.6283  -10.5392  -40.9427 O.2       3 UNK        -0.5000 
     57 CA          2.8459   -9.0833  -41.6522 C.3       3 UNK         0.1400 
     58 CB          3.6984   -7.8437  -41.3072 C.3       3 UNK        -0.1800 
     59 N           2.0171   -8.8461  -42.8431 N.am      3 UNK        -0.5000 
     60 C           2.4445   -8.6096  -44.0912 C.2       2 UNK         0.5000 
     61 O           3.6280   -8.4750  -44.4102 O.2       2 UNK        -0.5000 
     62 CA          1.3575   -8.5633  -45.1807 C.3       2 UNK         0.1400 
     63 CB          1.2029   -7.1439  -45.7472 C.3       2 UNK        -0.1800 
     64 N           1.6739   -9.4853  -46.2701 N.am      2 UNK        -0.5000 
     65 C           1.7938  -10.8146  -46.1539 C.2       1 UNK         0.5000 
     66 O           1.5427  -11.4226  -45.1115 O.2       1 UNK        -0.5000 
     67 C          -2.5445  -22.8016  -47.5744 C.2       11 UNK         0.5000 
     68 O          -2.9588  -23.7649  -48.2176 O.2       11 UNK        -0.5000 
     69 N          -3.2522  -22.1990  -46.6083 N.am      12 UNK        -0.5000 
     70 CA         -4.5892  -22.6143  -46.1766 C.3       12 UNK         0.1400 
     71 CB         -5.1333  -21.6248  -45.1359 C.3       12 UNK        -0.1800 
     72 C          -4.6226  -24.0574  -45.6403 C.2       12 UNK         0.5000 
     73 O          -5.5025  -24.8265  -46.0298 O.2       12 UNK        -0.5000 
     74 N          -3.6273  -24.4158  -44.8161 N.am      13 UNK        -0.5000 
     75 CA         -3.4096  -25.7705  -44.3003 C.3       13 UNK         0.1400 
     76 CB         -2.2863  -25.7392  -43.2533 C.3       13 UNK        -0.1800 
     77 C          -3.0955  -26.8030  -45.4026 C.2       13 UNK         0.5000 
     78 O          -3.4613  -27.9700  -45.2634 O.2       13 UNK        -0.5000 
     79 N          -2.4692  -26.3479  -46.4948 N.am      14 UNK        -0.5000 
     80 CA         -2.1709  -27.1177  -47.7028 C.3       14 UNK         0.1400 
     81 CB         -0.8566  -26.5937  -48.3094 C.3       14 UNK        -0.1800 
     82 C          -3.3260  -27.0954  -48.7292 C.2       14 UNK         0.5000 
     83 O          -3.0750  -27.2832  -49.9203 O.2       14 UNK        -0.5000 
     84 N          -4.5646  -26.8600  -48.2684 N.am      15 UNK        -0.5000 
     85 CA         -5.8087  -26.8165  -49.0457 C.3       15 UNK         0.1400 
     86 CB         -6.1435  -28.2080  -49.6233 C.3       15 UNK        -0.1800 
     87 C          -5.7875  -25.7082  -50.1158 C.2       15 UNK         0.5000 
     88 O          -6.0203  -25.9728  -51.2970 O.2       15 UNK        -0.5000 
     89 N          -5.4606  -24.4869  -49.6706 N.am      16 UNK        -0.5000 
     90 CA         -5.2670  -23.2767  -50.4772 C.3       16 UNK         0.1400 
     91 CB         -6.5993  -22.8142  -51.1033 C.3       16 UNK        -0.1800 
     92 C          -4.1372  -23.4584  -51.5106 C.2       16 UNK         0.5000 
     93 O          -4.3153  -23.1406  -52.6866 O.2       16 UNK        -0.5000 
     94 N          -3.0092  -24.0108  -51.0404 N.am      17 UNK        -0.5000 
     95 CA         -1.8149  -24.3893  -51.8013 C.3       17 UNK         0.1400 
     96 CB         -1.0599  -23.1285  -52.2700 C.3       17 UNK        -0.1800 
     97 C          -2.1443  -25.3628  -52.9520 C.2       17 UNK         0.5000 
     98 O          -1.7943  -25.1025  -54.1029 O.2       17 UNK        -0.5000 
     99 N          -2.8620  -26.4454  -52.6184 N.am      18 UNK        -0.5000 
    100 CA        -3.4238  -27.4479  -53.5308 C.3       18 UNK         0.1400 
    101 CB        -2.3035  -28.3071  -54.1525 C.3       18 UNK        -0.1800 
    102 C         -4.3672  -26.8210  -54.5813 C.2       18 UNK         0.5000 
    103 O         -4.2680  -27.1232  -55.7720 O.2       18 UNK        -0.5000 
    104 N         -5.2510  -25.9343  -54.1029 N.am      19 UNK        -0.5000 
    105 CA        -6.2376  -25.1481  -54.8488 C.3       19 UNK         0.1400 
    106 CB        -7.2900  -26.0679  -55.5025 C.3       19 UNK        -0.1800 
    107 C         -5.6428  -24.1234  -55.8426 C.2       19 UNK         0.5000 
    108 O         -6.3665  -23.6489  -56.7203 O.2       19 UNK        -0.5000 
    109 N         -4.3603  -23.7627  -55.6854 N.am      20 UNK        -0.5000 
    110 CA        -3.7085  -22.6927  -56.4486 C.3       20 UNK         0.1400 
    111 CB        -2.1844  -22.8589  -56.3715 C.3       20 UNK        -0.1800 
    112 C         -4.1197  -21.2854  -55.9697 C.2       20 UNK         0.5000 
    113 O         -4.0463  -20.3379  -56.7540 O.2       20 UNK        -0.5000 
    114 N         -4.5566  -21.1856  -54.7059 N.am      21 UNK        -0.5000 
    115 CA        -5.0002  -19.9857  -53.9964 C.3       21 UNK         0.1400 
    116 CB        -6.2457  -19.3728  -54.6758 C.3       21 UNK        -0.1800 
    117 C         -3.8643  -18.9702  -53.7477 C.2       21 UNK         0.5000 
    118 O         -2.6837  -19.3191  -53.8209 O.2       21 UNK        -0.5000 
    119 N         -4.2518  -17.7407  -53.3943 N.am      22 UNK        -0.5000 
    120 CA        -3.3575  -16.6490  -52.9719 C.3       22 UNK         0.1400 
    121 C         -2.7287  -15.8374  -54.1428 C.2       22 UNK         0.5000 
    122 N         -3.0274  -16.1382  -55.4008 N.am      22 UNK        -0.7600 
    123 O         -1.9483  -14.9192  -53.9078 O.2       22 UNK        -0.5000 
    124 C124       -4.0553  -15.7142  -51.9455 C.3       23 UNK        -0.0398 
    125 S125       -4.7893  -16.6276  -50.5394 S.3       23 UNK        -0.2404 
    126 C126       -3.6891  -16.1855  -49.1539 C.3       23 UNK        -0.0205 
    127 H127        0.9716  -10.0354  -51.4412 H         1 UNK         0.0600 
    128 H128       -0.2192   -9.2903  -50.3691 H         1 UNK         0.0600 
    129 H129       -0.1670  -11.0467  -50.5474 H         1 UNK         0.0600 
    130 H130        0.7298  -12.0154  -48.7530 H         1 UNK         0.3000 
    131 H131        3.2634  -11.1399  -47.6307 H         1 UNK         0.0600 
    132 H132        3.2232  -13.4379  -47.9596 H         1 UNK         0.0800 
    133 H133        3.0223  -13.2766  -46.2547 H         1 UNK         0.0800 
    134 H134        1.1329  -14.0285  -49.6847 H         1 UNK         0.0800 
    135 H135        2.1768  -15.2757  -49.0416 H         1 UNK         0.0800 
    136 H136       -1.5287  -14.6023  -48.7141 H         1 UNK         0.1150 
    137 H137       -2.5866  -18.5099  -50.1278 H         1 UNK         0.1150 
    138 H138        1.5289  -17.3419  -49.9412 H         1 UNK         0.1150 
    139 H139       -0.8757  -19.7995  -51.3357 H         1 UNK         0.0800 
    140 H140        0.7685  -19.2282  -51.4028 H         1 UNK         0.0800 
    141 H141       -1.8965  -21.1398  -49.5571 H         1 UNK         0.0800 
    142 H142       -1.5458  -20.1492  -48.1586 H         1 UNK         0.0800 
    143 H143       -0.6156  -23.0484  -48.4320 H         1 UNK         0.0600 
    144 H144       -0.0665  -21.1283  -46.4150 H         1 UNK         0.3000 
    145 H145        0.4824  -23.4746  -43.7388 H         1 UNK         0.0600 
    146 H146        2.6017  -22.2084  -43.6598 H         1 UNK         0.0600 
    147 H147        2.6056  -23.2945  -45.0407 H         1 UNK         0.0600 
    148 H148        2.3265  -21.5747  -45.2805 H         1 UNK         0.0600 
    149 H149        0.5694  -20.6378  -43.7644 H         1 UNK         0.3000 
    150 H150       -2.9052  -20.0836  -42.9825 H         1 UNK         0.0600 
    151 H151       -1.7468  -20.5304  -40.8384 H         1 UNK         0.0600 
    152 H152       -1.7696  -18.8033  -41.1665 H         1 UNK         0.0600 
    153 H153       -0.2934  -19.7321  -41.4212 H         1 UNK         0.0600 
    154 H154       -0.8131  -18.2252  -43.4107 H         1 UNK         0.3000 
    155 H155       -1.1551  -17.8902  -46.9585 H         1 UNK         0.0600 
    156 H156       -2.8898  -16.4373  -45.9401 H         1 UNK         0.0600 
    157 H157       -1.4163  -15.5229  -46.2075 H         1 UNK         0.0600 
    158 H158       -1.8342  -16.0649  -44.5861 H         1 UNK         0.0600 
    159 H159        0.5880  -16.6464  -45.0818 H         1 UNK         0.3000 
    160 H160        3.2607  -19.0336  -45.3255 H         1 UNK         0.0600 
    161 H161        2.9168  -16.1130  -46.1800 H         1 UNK         0.0600 
    162 H162        3.3990  -17.4237  -47.2492 H         1 UNK         0.0600 
    163 H163        4.4398  -16.9530  -45.9118 H         1 UNK         0.0600 
    164 H164        2.8708  -16.6222  -43.7936 H         1 UNK         0.3000 
    165 H165        1.4514  -18.1631  -40.9104 H         1 UNK         0.0600 
    166 H166        3.4511  -17.2588  -39.7554 H         1 UNK         0.0600 
    167 H167        3.8722  -18.7251  -40.6259 H         1 UNK         0.0600 
    168 H168        4.3243  -17.1573  -41.2853 H         1 UNK         0.0600 
    169 H169        2.4535  -15.5395  -41.3683 H         1 UNK         0.3000 
    170 H170        0.1415  -14.2262  -43.5031 H         1 UNK         0.0600 
    171 H171       -1.5402  -14.2565  -41.6501 H         1 UNK         0.0600 
    172 H172       -0.3001  -13.7559  -40.5063 H         1 UNK         0.0600 
    173 H173       -0.7932  -12.6766  -41.8127 H         1 UNK         0.0600 
    174 H174        1.6676  -12.7594  -41.6906 H         1 UNK         0.3000 
    175 H175        4.4370  -12.9274  -41.8928 H         1 UNK         0.0600 
    176 H176        4.5286  -12.1708  -44.8632 H         1 UNK         0.0600 
    177 H177        5.7761  -11.8464  -43.6673 H         1 UNK         0.0600 
    178 H178        5.4247  -13.5018  -44.1339 H         1 UNK         0.0600 
    179 H179        2.5257  -11.1107  -43.2278 H         1 UNK         0.3000 
    180 H180        2.1443   -9.2294  -40.8297 H         1 UNK         0.0600 
    181 H181        4.4940   -7.6806  -42.0344 H         1 UNK         0.0600 
    182 H182        4.1707   -7.9537  -40.3304 H         1 UNK         0.0600 
    183 H183        3.0871   -6.9420  -41.2695 H         1 UNK         0.0600 
    184 H184        1.0221   -8.9477  -42.6955 H         1 UNK         0.3000 
    185 H185        0.4014   -8.8687  -44.7507 H         1 UNK         0.0600 
    186 H186        0.9506   -6.4344  -44.9581 H         1 UNK         0.0600 
    187 H187        2.1227   -6.7968  -46.2199 H         1 UNK         0.0600 
    188 H188        0.4070   -7.1004  -46.4909 H         1 UNK         0.0600 
    189 H189        1.9117   -9.0723  -47.1658 H         1 UNK         0.3000 
    190 H190       -2.8623  -21.3783  -46.1499 H         1 UNK         0.3000 
    191 H191       -5.2422  -22.5725  -47.0506 H         1 UNK         0.0600 
    192 H192       -5.1778  -20.6133  -45.5401 H         1 UNK         0.0600 
    193 H193       -6.1436  -21.8976  -44.8289 H         1 UNK         0.0600 
    194 H194       -4.5139  -21.5988  -44.2397 H         1 UNK         0.0600 
    195 H195       -2.9661  -23.7047  -44.5138 H         1 UNK         0.3000 
    196 H196       -4.3291  -26.0885  -43.8048 H         1 UNK         0.0600 
    197 H197       -2.1195  -26.7296  -42.8278 H         1 UNK         0.0600 
    198 H198       -2.5332  -25.0685  -42.4301 H         1 UNK         0.0600 
    199 H199       -1.3435  -25.4037  -43.6860 H         1 UNK         0.0600 
    200 H200       -2.1911  -25.3741  -46.5151 H         1 UNK         0.3000 
    201 H201       -2.0145  -28.1628  -47.4294 H         1 UNK         0.0600 
    202 H202       -0.0449  -26.6354  -47.5829 H         1 UNK         0.0600 
    203 H203       -0.9514  -25.5604  -48.6421 H         1 UNK         0.0600 
    204 H204       -0.5494  -27.1906  -49.1689 H         1 UNK         0.0600 
    205 H205       -4.6645  -26.6566  -47.2827 H         1 UNK         0.3000 
    206 H206       -6.6014  -26.5520  -48.3443 H         1 UNK         0.0600 
    207 H207       -6.1758  -28.9630  -48.8379 H         1 UNK         0.0600 
    208 H208       -7.1202  -28.2024  -50.1086 H         1 UNK         0.0600 
    209 H209       -5.4133  -28.5289  -50.3669 H         1 UNK         0.0600 
    210 H210       -5.1972  -24.4057  -48.6975 H         1 UNK         0.3000 
    211 H211       -4.9359  -22.4941  -49.7934 H         1 UNK         0.0600 
    212 H212       -6.9711  -23.5228  -51.8433 H         1 UNK         0.0600 
    213 H213       -6.4841  -21.8525  -51.6024 H         1 UNK         0.0600 
    214 H214       -7.3693  -22.6921  -50.3417 H         1 UNK         0.0600 
    215 H215       -2.9831  -24.2173  -50.0452 H         1 UNK         0.3000 
    216 H216       -1.1632  -24.9320  -51.1155 H         1 UNK         0.0600 
    217 H217       -0.1463  -23.3926  -52.8036 H         1 UNK         0.0600 
    218 H218       -0.7700  -22.5110  -51.4220 H         1 UNK         0.0600 
    219 H219       -1.6650  -22.5142  -52.9372 H         1 UNK         0.0600 
    220 H220       -3.0730  -26.5961  -51.6332 H         1 UNK         0.3000 
    221 H221       -4.0423  -28.1045  -52.9170 H         1 UNK         0.0600 
    222 H222       -1.6629  -27.7230  -54.8139 H         1 UNK         0.0600 
    223 H223       -1.6740  -28.7500  -53.3807 H         1 UNK         0.0600 
    224 H224       -2.7205  -29.1257  -54.7401 H         1 UNK         0.0600 
    225 H225       -5.2721  -25.7904  -53.0964 H         1 UNK         0.3000 
    226 H226       -6.7547  -24.5515  -54.0964 H         1 UNK         0.0600 
    227 H227       -7.7103  -26.7636  -54.7761 H         1 UNK         0.0600 
    228 H228       -8.1194  -25.4888  -55.9099 H         1 UNK         0.0600 
    229 H229       -6.8667  -26.6506  -56.3209 H         1 UNK         0.0600 
    230 H230       -3.8254  -24.1787  -54.9328 H         1 UNK         0.3000 
    231 H231       -4.0025  -22.7861  -57.4961 H         1 UNK         0.0600 
    232 H232       -1.8170  -22.7163  -55.3552 H         1 UNK         0.0600 
    233 H233       -1.6807  -22.1281  -57.0052 H         1 UNK         0.0600 
    234 H234       -1.8758  -23.8495  -56.7060 H         1 UNK         0.0600 
    235 H235       -4.5036  -22.0204  -54.1248 H         1 UNK         0.3000 
    236 H236       -5.3042  -20.3318  -53.0085 H         1 UNK         0.0600 
    237 H237       -6.9868  -20.1405  -54.8997 H         1 UNK         0.0600 
    238 H238       -6.7345  -18.6423  -54.0308 H         1 UNK         0.0600 
    239 H239       -5.9940  -18.8715  -55.6109 H         1 UNK         0.0600 
    240 H240       -5.2390  -17.5358  -53.3512 H         1 UNK         0.3000 
    241 H241       -2.5057  -17.1017  -52.4636 H         1 UNK         0.0600 
    242 H242       -2.6115  -15.6088  -56.1511 H         1 UNK         0.3800 
    243 H243       -3.6491  -16.9030  -55.6098 H         1 UNK         0.3800 
    244 H244       -4.8536  -15.1512  -52.4315 H         1 UNK         0.0800 
    245 H245       -3.3529  -14.9715  -51.5633 H         1 UNK         0.0800 
    246 H246       -4.0228  -16.7164  -48.2617 H         1 UNK         0.0800 
    247 H247       -3.8122  -15.1221  -48.9429 H         1 UNK         0.0800 
@<TRIPOS>BOND
     1    1    2 1    
     2    1  127 1    
     3    1  128 1    
     4    1  129 1    
     5    2    3 2    
     6    2    4 am   BACKBONE|DICT|INTERRES
     7    4    5 1    
     8    4  130 1    
     9    5    6 1    
    10    5   65 1    
    11    5  131 1    
    12    6    7 1    
    13    6  132 1    
    14    6  133 1    
    15    7    8 1    
    16    8    9 1    
    17    8  134 1    
    18    8  135 1    
    19    9   10 ar   
    20    9   14 ar   
    21   10   11 ar   
    22   10  136 1    
    23   11   12 ar   
    24   11  126 1    
    25   12   13 ar   
    26   12  137 1    
    27   13   14 ar   
    28   13   15 1    
    29   14  138 1    
    30   15   16 1    
    31   15  139 1    
    32   15  140 1    
    33   16   17 1    
    34   17   18 1    
    35   17  141 1    
    36   17  142 1    
    37   18   19 1    
    38   18   67 1    
    39   18  143 1    
    40   19   20 am   BACKBONE|DICT|INTERRES
    41   19  144 1    
    42   20   21 2    
    43   20   22 1    
    44   22   23 1    
    45   22   24 1    
    46   22  145 1    
    47   23  146 1    
    48   23  147 1    
    49   23  148 1    
    50   24   25 am   BACKBONE|DICT|INTERRES
    51   24  149 1    
    52   25   26 2    
    53   25   27 1    
    54   27   28 1    
    55   27   29 1    
    56   27  150 1    
    57   28  151 1    
    58   28  152 1    
    59   28  153 1    
    60   29   30 am   BACKBONE|DICT|INTERRES
    61   29  154 1    
    62   30   31 2    
    63   30   32 1    
    64   32   33 1    
    65   32   34 1    
    66   32  155 1    
    67   33  156 1    
    68   33  157 1    
    69   33  158 1    
    70   34   35 am   BACKBONE|DICT|INTERRES
    71   34  159 1    
    72   35   36 2    
    73   35   37 1    
    74   37   38 1    
    75   37   39 1    
    76   37  160 1    
    77   38  161 1    
    78   38  162 1    
    79   38  163 1    
    80   39   40 am   BACKBONE|DICT|INTERRES
    81   39  164 1    
    82   40   41 2    
    83   40   42 1    
    84   42   43 1    
    85   42   44 1    
    86   42  165 1    
    87   43  166 1    
    88   43  167 1    
    89   43  168 1    
    90   44   45 am   BACKBONE|DICT|INTERRES
    91   44  169 1    
    92   45   46 2    
    93   45   47 1    
    94   47   48 1    
    95   47   49 1    
    96   47  170 1    
    97   48  171 1    
    98   48  172 1    
    99   48  173 1    
   100   49   50 am   BACKBONE|DICT|INTERRES
   101   49  174 1    
   102   50   51 2    
   103   50   52 1    
   104   52   53 1    
   105   52   54 1    
   106   52  175 1    
   107   53  176 1    
   108   53  177 1    
   109   53  178 1    
   110   54   55 am   BACKBONE|DICT|INTERRES
   111   54  179 1    
   112   55   56 2    
   113   55   57 1    
   114   57   58 1    
   115   57   59 1    
   116   57  180 1    
   117   58  181 1    
   118   58  182 1    
   119   58  183 1    
   120   59   60 am   BACKBONE|DICT|INTERRES
   121   59  184 1    
   122   60   61 2    
   123   60   62 1    
   124   62   63 1    
   125   62   64 1    
   126   62  185 1    
   127   63  186 1    
   128   63  187 1    
   129   63  188 1    
   130   64   65 am   BACKBONE|DICT|INTERRES
   131   64  189 1    
   132   65   66 2    
   133   67   68 2    
   134   67   69 am   BACKBONE|DICT|INTERRES
   135   69   70 1    
   136   69  190 1    
   137   70   71 1    
   138   70   72 1    
   139   70  191 1    
   140   71  192 1    
   141   71  193 1    
   142   71  194 1    
   143   72   73 2    
   144   72   74 am   BACKBONE|DICT|INTERRES
   145   74   75 1    
   146   74  195 1    
   147   75   76 1    
   148   75   77 1    
   149   75  196 1    
   150   76  197 1    
   151   76  198 1    
   152   76  199 1    
   153   77   78 2    
   154   77   79 am   BACKBONE|DICT|INTERRES
   155   79   80 1    
   156   79  200 1    
   157   80   81 1    
   158   80   82 1    
   159   80  201 1    
   160   81  202 1    
   161   81  203 1    
   162   81  204 1    
   163   82   83 2    
   164   82   84 am   BACKBONE|DICT|INTERRES
   165   84   85 1    
   166   84  205 1    
   167   85   86 1    
   168   85   87 1    
   169   85  206 1    
   170   86  207 1    
   171   86  208 1    
   172   86  209 1    
   173   87   88 2    
   174   87   89 am   BACKBONE|DICT|INTERRES
   175   89   90 1    
   176   89  210 1    
   177   90   91 1    
   178   90   92 1    
   179   90  211 1    
   180   91  212 1    
   181   91  213 1    
   182   91  214 1    
   183   92   93 2    
   184   92   94 am   BACKBONE|DICT|INTERRES
   185   94   95 1    
   186   94  215 1    
   187   95   96 1    
   188   95   97 1    
   189   95  216 1    
   190   96  217 1    
   191   96  218 1    
   192   96  219 1    
   193   97   98 2    
   194   97   99 am   BACKBONE|DICT|INTERRES
   195   99  100 1    
   196   99  220 1    
   197  100  101 1    
   198  100  102 1    
   199  100  221 1    
   200  101  222 1    
   201  101  223 1    
   202  101  224 1    
   203  102  103 2    
   204  102  104 am   BACKBONE|DICT|INTERRES
   205  104  105 1    
   206  104  225 1    
   207  105  106 1    
   208  105  107 1    
   209  105  226 1    
   210  106  227 1    
   211  106  228 1    
   212  106  229 1    
   213  107  108 2    
   214  107  109 am   BACKBONE|DICT|INTERRES
   215  109  110 1    
   216  109  230 1    
   217  110  111 1    
   218  110  112 1    
   219  110  231 1    
   220  111  232 1    
   221  111  233 1    
   222  111  234 1    
   223  112  113 2    
   224  112  114 am   BACKBONE|DICT|INTERRES
   225  114  115 1    
   226  114  235 1    
   227  115  116 1    
   228  115  117 1    
   229  115  236 1    
   230  116  237 1    
   231  116  238 1    
   232  116  239 1    
   233  117  118 2    
   234  117  119 am   BACKBONE|DICT|INTERRES
   235  119  120 1    
   236  119  240 1    
   237  120  121 1    
   238  120  124 1    
   239  120  241 1    
   240  121  122 am   BACKBONE|DICT|INTERRES
   241  121  123 2    
   242  122  242 1    
   243  122  243 1    
   244  124  125 1    
   245  124  244 1    
   246  124  245 1    
   247  125  126 1    
   248  126  246 1    
   249  126  247 1    
@<TRIPOS>SUBSTRUCTURE
     1 UNK         1 GROUP             0       ****    0 ROOT    
