@<TRIPOS>MOLECULE
3R540
247   249    1
SMALL
USER_CHARGES


@<TRIPOS>ATOM
      1 CA          7.2911   -9.5377  -48.6146 C.3       0 UNK        -0.1800 
      2 C           6.1754  -10.4557  -48.1347 C.2       0 UNK         0.5000 
      3 O           5.7299  -10.3329  -46.9933 O.2       0 UNK        -0.5000 
      4 N           5.7304  -11.3785  -48.9966 N.am      1 UNK        -0.5000 
      5 CA          4.6188  -12.2977  -48.7375 C.3       1 UNK         0.1400 
      6 C6          4.6398  -13.4867  -49.7284 C.3       23 UNK        -0.0398 
      7 S7          3.6271  -14.8995  -49.1672 S.3       23 UNK        -0.2404 
      8 C8          2.5899  -15.1703  -50.6386 C.3       23 UNK        -0.0205 
      9 C9          1.5647  -16.2721  -50.4173 C.ar      23 UNK        -0.0193 
     10 C10         0.1975  -15.9767  -50.4275 C.ar      23 UNK        -0.1150 
     11 C11        -0.7472  -16.9885  -50.2316 C.ar      23 UNK        -0.0193 
     12 C12        -0.3164  -18.3021  -50.0285 C.ar      23 UNK        -0.1150 
     13 C13         1.0460  -18.6078  -50.0014 C.ar      23 UNK        -0.0193 
     14 C14         1.9819  -17.5912  -50.2098 C.ar      23 UNK        -0.1150 
     15 C15         1.5029  -20.0310  -49.7273 C.3       23 UNK        -0.0205 
     16 S16         1.8822  -20.2645  -47.9627 S.3       23 UNK        -0.2404 
     17 C17         2.1073  -22.0773  -47.8914 C.3       23 UNK        -0.0398 
     18 CA          0.9979  -22.8285  -47.1136 C.3       11 UNK         0.1400 
     19 N           0.8759  -22.3636  -45.7274 N.am      11 UNK        -0.5000 
     20 C           0.1856  -22.9865  -44.7616 C.2       10 UNK         0.5000 
     21 O          -0.4958  -23.9901  -44.9675 O.2       10 UNK        -0.5000 
     22 CA          0.2326  -22.3805  -43.3441 C.3       10 UNK         0.1400 
     23 CB          0.1813  -23.4522  -42.2367 C.3       10 UNK        -0.1800 
     24 N           1.3497  -21.4549  -43.1402 N.am      10 UNK        -0.5000 
     25 C           2.6644  -21.7151  -43.1208 C.2       9 UNK         0.5000 
     26 O           3.1522  -22.8402  -43.2288 O.2       9 UNK        -0.5000 
     27 CA          3.5943  -20.4938  -42.9843 C.3       9 UNK         0.1400 
     28 CB          4.0444  -20.0189  -44.3751 C.3       9 UNK        -0.1800 
     29 N           2.9642  -19.3737  -42.2809 N.am      9 UNK        -0.5000 
     30 C           2.6951  -19.3510  -40.9680 C.2       8 UNK         0.5000 
     31 O           3.0241  -20.2442  -40.1864 O.2       8 UNK        -0.5000 
     32 CA          1.8971  -18.1411  -40.4465 C.3       8 UNK         0.1400 
     33 CB          2.8133  -16.9252  -40.2407 C.3       8 UNK        -0.1800 
     34 N           0.7837  -17.7774  -41.3260 N.am      8 UNK        -0.5000 
     35 C          -0.3019  -18.5382  -41.5320 C.2       7 UNK         0.5000 
     36 O          -0.4978  -19.6175  -40.9739 O.2       7 UNK        -0.5000 
     37 CA         -1.3317  -18.0246  -42.5538 C.3       7 UNK         0.1400 
     38 CB         -2.2803  -17.0044  -41.9070 C.3       7 UNK        -0.1800 
     39 N          -0.7012  -17.4313  -43.7314 N.am      7 UNK        -0.5000 
     40 C          -0.0058  -18.1176  -44.6487 C.2       6 UNK         0.5000 
     41 O           0.1179  -19.3414  -44.6411 O.2       6 UNK        -0.5000 
     42 CA          0.6930  -17.2974  -45.7440 C.3       6 UNK         0.1400 
     43 CB         -0.2990  -16.9575  -46.8579 C.3       6 UNK        -0.1800 
     44 N           1.2916  -16.0643  -45.2389 N.am      6 UNK        -0.5000 
     45 C           2.2784  -16.0042  -44.3355 C.2       5 UNK         0.5000 
     46 O           2.8221  -16.9927  -43.8456 O.2       5 UNK        -0.5000 
     47 CA          2.6834  -14.6003  -43.8573 C.3       5 UNK         0.1400 
     48 CB          3.6613  -13.9445  -44.8449 C.3       5 UNK        -0.1800 
     49 N           1.5154  -13.7394  -43.6642 N.am      5 UNK        -0.5000 
     50 C           0.6070  -13.9086  -42.6925 C.2       4 UNK         0.5000 
     51 O           0.6828  -14.7858  -41.8319 O.2       4 UNK        -0.5000 
     52 CA         -0.6103  -12.9653  -42.7136 C.3       4 UNK         0.1400 
     53 CB         -0.2610  -11.6130  -42.0745 C.3       4 UNK        -0.1800 
     54 N          -1.1267  -12.7453  -44.0660 N.am      4 UNK        -0.5000 
     55 C          -1.7139  -13.6914  -44.8129 C.2       3 UNK         0.5000 
     56 O          -1.9216  -14.8376  -44.4176 O.2       3 UNK        -0.5000 
     57 CA         -2.0894  -13.3083  -46.2593 C.3       3 UNK         0.1400 
     58 CB         -3.5047  -12.7146  -46.3090 C.3       3 UNK        -0.1800 
     59 N          -1.1491  -12.3767  -46.8931 N.am      3 UNK        -0.5000 
     60 C           0.1577  -12.6139  -47.0646 C.2       2 UNK         0.5000 
     61 O           0.7172  -13.6449  -46.6800 O.2       2 UNK        -0.5000 
     62 CA          0.9846  -11.5051  -47.7322 C.3       2 UNK         0.1400 
     63 CB          1.0288  -10.2373  -46.8571 C.3       2 UNK        -0.1800 
     64 N           2.3336  -12.0194  -47.9249 N.am      2 UNK        -0.5000 
     65 C           3.2677  -11.5468  -48.7516 C.2       1 UNK         0.5000 
     66 O           3.0976  -10.5835  -49.5041 O.2       1 UNK        -0.5000 
     67 C          -0.3509  -22.8242  -47.8632 C.2       11 UNK         0.5000 
     68 O          -0.6249  -23.7440  -48.6349 O.2       11 UNK        -0.5000 
     69 N          -1.1870  -21.8151  -47.5794 N.am      12 UNK        -0.5000 
     70 CA         -2.5415  -21.6752  -48.1121 C.3       12 UNK         0.1400 
     71 CB         -3.0958  -20.3011  -47.7029 C.3       12 UNK        -0.1800 
     72 C          -3.4789  -22.8026  -47.6402 C.2       12 UNK         0.5000 
     73 O          -4.2800  -23.3038  -48.4323 O.2       12 UNK        -0.5000 
     74 N          -3.3345  -23.1855  -46.3639 N.am      13 UNK        -0.5000 
     75 CA         -4.0833  -24.2612  -45.7196 C.3       13 UNK         0.1400 
     76 CB         -4.0085  -24.0947  -44.1939 C.3       13 UNK        -0.1800 
     77 C          -3.5784  -25.6491  -46.1446 C.2       13 UNK         0.5000 
     78 O          -4.3959  -26.5296  -46.4075 O.2       13 UNK        -0.5000 
     79 N          -2.2507  -25.8123  -46.2411 N.am      14 UNK        -0.5000 
     80 CA         -1.5812  -27.0424  -46.6744 C.3       14 UNK         0.1400 
     81 CB         -0.0643  -26.8930  -46.4870 C.3       14 UNK        -0.1800 
     82 C          -1.9092  -27.4316  -48.1276 C.2       14 UNK         0.5000 
     83 O          -2.0229  -28.6206  -48.4274 O.2       14 UNK        -0.5000 
     84 N          -2.0933  -26.4236  -48.9918 N.am      15 UNK        -0.5000 
     85 CA         -2.5680  -26.5820  -50.3675 C.3       15 UNK         0.1400 
     86 CB         -2.3432  -25.2629  -51.1190 C.3       15 UNK        -0.1800 
     87 C          -4.0503  -27.0008  -50.4607 C.2       15 UNK         0.5000 
     88 O          -4.4584  -27.5316  -51.4935 O.2       15 UNK        -0.5000 
     89 N          -4.8238  -26.7394  -49.3945 N.am      16 UNK        -0.5000 
     90 CA         -6.2443  -27.0609  -49.2024 C.3       16 UNK         0.1400 
     91 CB         -6.4517  -28.5889  -49.1598 C.3       16 UNK        -0.1800 
     92 C          -7.1977  -26.3607  -50.1953 C.2       16 UNK         0.5000 
     93 O          -8.3327  -26.8074  -50.3718 O.2       16 UNK        -0.5000 
     94 N          -6.7302  -25.2733  -50.8196 N.am      17 UNK        -0.5000 
     95 CA         -7.4415  -24.5313  -51.8603 C.3       17 UNK         0.1400 
     96 CB         -7.2770  -25.2517  -53.2149 C.3       17 UNK        -0.1800 
     97 C          -6.9800  -23.0646  -51.9215 C.2       17 UNK         0.5000 
     98 O          -7.0463  -22.4569  -52.9903 O.2       17 UNK        -0.5000 
     99 N          -6.4810  -22.5241  -50.7964 N.am      18 UNK        -0.5000 
    100 CA        -5.9481  -21.1610  -50.6460 C.3       18 UNK         0.1400 
    101 CB        -7.0853  -20.1226  -50.7277 C.3       18 UNK        -0.1800 
    102 C         -4.7979  -20.8733  -51.6349 C.2       18 UNK         0.5000 
    103 O         -4.8101  -19.8639  -52.3422 O.2       18 UNK        -0.5000 
    104 N         -3.8702  -21.8373  -51.7339 N.am      19 UNK        -0.5000 
    105 CA        -2.7414  -21.8894  -52.6762 C.3       19 UNK         0.1400 
    106 CB        -1.7209  -20.7793  -52.3547 C.3       19 UNK        -0.1800 
    107 C         -3.1491  -21.9006  -54.1693 C.2       19 UNK         0.5000 
    108 O         -2.2922  -21.6978  -55.0302 O.2       19 UNK        -0.5000 
    109 N         -4.4426  -22.1338  -54.4484 N.am      20 UNK        -0.5000 
    110 CA        -5.1071  -22.0775  -55.7533 C.3       20 UNK         0.1400 
    111 CB        -4.6025  -23.2074  -56.6750 C.3       20 UNK        -0.1800 
    112 C         -5.0394  -20.6806  -56.4099 C.2       20 UNK         0.5000 
    113 O         -5.0620  -20.5854  -57.6389 O.2       20 UNK        -0.5000 
    114 N         -4.9527  -19.6217  -55.5905 N.am      21 UNK        -0.5000 
    115 CA        -4.7722  -18.2456  -56.0561 C.3       21 UNK         0.1400 
    116 CB        -3.2801  -17.9836  -56.3319 C.3       21 UNK        -0.1800 
    117 C         -5.3279  -17.1927  -55.0854 C.2       21 UNK         0.5000 
    118 O         -5.7819  -16.1443  -55.5464 O.2       21 UNK        -0.5000 
    119 N         -5.2734  -17.4577  -53.7743 N.am      22 UNK        -0.5000 
    120 CA        -5.6182  -16.4868  -52.7207 C.3       22 UNK         0.1400 
    121 C         -7.1253  -16.4726  -52.3315 C.2       22 UNK         0.5000 
    122 N         -7.9694  -17.3251  -52.8994 N.am      22 UNK        -0.7600 
    123 O         -7.5410  -15.6625  -51.5075 O.2       22 UNK        -0.5000 
    124 C124       -4.7158  -16.6532  -51.4699 C.3       23 UNK        -0.0398 
    125 S125       -2.9348  -16.6390  -51.8694 S.3       23 UNK        -0.2404 
    126 C126       -2.2305  -16.6622  -50.1976 C.3       23 UNK        -0.0205 
    127 H127        6.9621   -8.4990  -48.5814 H         1 UNK         0.0600 
    128 H128        8.1649   -9.6406  -47.9712 H         1 UNK         0.0600 
    129 H129        7.5931   -9.7660  -49.6371 H         1 UNK         0.0600 
    130 H130        6.1152  -11.4055  -49.9299 H         1 UNK         0.3000 
    131 H131        4.7702  -12.6988  -47.7323 H         1 UNK         0.0600 
    132 H132        5.6596  -13.8596  -49.8344 H         1 UNK         0.0800 
    133 H133        4.3365  -13.1655  -50.7266 H         1 UNK         0.0800 
    134 H134        3.2245  -15.4374  -51.4848 H         1 UNK         0.0800 
    135 H135        2.0937  -14.2349  -50.9025 H         1 UNK         0.0800 
    136 H136       -0.1349  -14.9597  -50.5803 H         1 UNK         0.1150 
    137 H137       -1.0430  -19.0832  -49.8639 H         1 UNK         0.1150 
    138 H138        3.0378  -17.8218  -50.1891 H         1 UNK         0.1150 
    139 H139        0.7295  -20.7374  -50.0319 H         1 UNK         0.0800 
    140 H140        2.3870  -20.2610  -50.3238 H         1 UNK         0.0800 
    141 H141        3.0685  -22.2659  -47.4113 H         1 UNK         0.0800 
    142 H142        2.2064  -22.4821  -48.9002 H         1 UNK         0.0800 
    143 H143        1.3095  -23.8733  -47.0593 H         1 UNK         0.0600 
    144 H144        1.3522  -21.5034  -45.4953 H         1 UNK         0.3000 
    145 H145       -0.6699  -21.7748  -43.2519 H         1 UNK         0.0600 
    146 H146        0.2148  -22.9962  -41.2472 H         1 UNK         0.0600 
    147 H147       -0.7412  -24.0310  -42.2949 H         1 UNK         0.0600 
    148 H148        1.0109  -24.1554  -42.3126 H         1 UNK         0.0600 
    149 H149        1.0770  -20.4798  -43.1190 H         1 UNK         0.3000 
    150 H150        4.4771  -20.8050  -42.4220 H         1 UNK         0.0600 
    151 H151        4.5320  -20.8234  -44.9272 H         1 UNK         0.0600 
    152 H152        4.7569  -19.1974  -44.2991 H         1 UNK         0.0600 
    153 H153        3.2008  -19.6730  -44.9743 H         1 UNK         0.0600 
    154 H154        2.7273  -18.5592  -42.8438 H         1 UNK         0.3000 
    155 H155        1.4791  -18.4140  -39.4753 H         1 UNK         0.0600 
    156 H156        3.2528  -16.5861  -41.1787 H         1 UNK         0.0600 
    157 H157        3.6328  -17.1648  -39.5621 H         1 UNK         0.0600 
    158 H158        2.2657  -16.0884  -39.8069 H         1 UNK         0.0600 
    159 H159        0.8444  -16.8766  -41.7877 H         1 UNK         0.3000 
    160 H160       -1.9272  -18.8784  -42.8843 H         1 UNK         0.0600 
    161 H161       -3.0632  -16.7003  -42.6020 H         1 UNK         0.0600 
    162 H162       -1.7506  -16.1064  -41.5877 H         1 UNK         0.0600 
    163 H163       -2.7706  -17.4275  -41.0295 H         1 UNK         0.0600 
    164 H164       -0.8226  -16.4317  -43.8577 H         1 UNK         0.3000 
    165 H165        1.4949  -17.9052  -46.1659 H         1 UNK         0.0600 
    166 H166        0.1842  -16.3704  -47.6374 H         1 UNK         0.0600 
    167 H167       -0.6890  -17.8671  -47.3136 H         1 UNK         0.0600 
    168 H168       -1.1499  -16.3878  -46.4877 H         1 UNK         0.0600 
    169 H169        0.9411  -15.1945  -45.6314 H         1 UNK         0.3000 
    170 H170        3.1913  -14.7043  -42.8963 H         1 UNK         0.0600 
    171 H171        4.5773  -14.5308  -44.9273 H         1 UNK         0.0600 
    172 H172        3.2374  -13.8672  -45.8451 H         1 UNK         0.0600 
    173 H173        3.9442  -12.9433  -44.5195 H         1 UNK         0.0600 
    174 H174        1.3459  -13.0390  -44.3702 H         1 UNK         0.3000 
    175 H175       -1.4003  -13.4292  -42.1189 H         1 UNK         0.0600 
    176 H176       -1.1380  -10.9683  -42.0129 H         1 UNK         0.0600 
    177 H177        0.1141  -11.7472  -41.0590 H         1 UNK         0.0600 
    178 H178        0.5062  -11.0835  -42.6408 H         1 UNK         0.0600 
    179 H179       -0.9968  -11.8275  -44.4647 H         1 UNK         0.3000 
    180 H180       -2.0877  -14.2252  -46.8513 H         1 UNK         0.0600 
    181 H181       -3.5651  -11.7705  -45.7663 H         1 UNK         0.0600 
    182 H182       -4.2300  -13.3968  -45.8632 H         1 UNK         0.0600 
    183 H183       -3.8210  -12.5334  -47.3364 H         1 UNK         0.0600 
    184 H184       -1.5370  -11.5060  -47.2265 H         1 UNK         0.3000 
    185 H185        0.5400  -11.2786  -48.7032 H         1 UNK         0.0600 
    186 H186        1.4542  -10.4436  -45.8740 H         1 UNK         0.0600 
    187 H187        1.6306   -9.4559  -47.3211 H         1 UNK         0.0600 
    188 H188        0.0318   -9.8228  -46.7054 H         1 UNK         0.0600 
    189 H189        2.5023  -12.8781  -47.4145 H         1 UNK         0.3000 
    190 H190       -0.8710  -21.1058  -46.9329 H         1 UNK         0.3000 
    191 H191       -2.4836  -21.7182  -49.2009 H         1 UNK         0.0600 
    192 H192       -2.4754  -19.4927  -48.0865 H         1 UNK         0.0600 
    193 H193       -3.1439  -20.1931  -46.6185 H         1 UNK         0.0600 
    194 H194       -4.1025  -20.1458  -48.0896 H         1 UNK         0.0600 
    195 H195       -2.6148  -22.7453  -45.8107 H         1 UNK         0.3000 
    196 H196       -5.1308  -24.1798  -46.0183 H         1 UNK         0.0600 
    197 H197       -4.5840  -24.8718  -43.6893 H         1 UNK         0.0600 
    198 H198       -4.4180  -23.1338  -43.8821 H         1 UNK         0.0600 
    199 H199       -2.9834  -24.1569  -43.8276 H         1 UNK         0.0600 
    200 H200       -1.6430  -25.0544  -45.9378 H         1 UNK         0.3000 
    201 H201       -1.9270  -27.8524  -46.0290 H         1 UNK         0.0600 
    202 H202        0.1867  -26.6807  -45.4476 H         1 UNK         0.0600 
    203 H203        0.3366  -26.0866  -47.1011 H         1 UNK         0.0600 
    204 H204        0.4566  -27.8095  -46.7668 H         1 UNK         0.0600 
    205 H205       -1.9016  -25.4776  -48.6818 H         1 UNK         0.3000 
    206 H206       -1.9740  -27.3602  -50.8510 H         1 UNK         0.0600 
    207 H207       -1.2842  -25.0061  -51.1537 H         1 UNK         0.0600 
    208 H208       -2.6959  -25.3307  -52.1492 H         1 UNK         0.0600 
    209 H209       -2.8700  -24.4386  -50.6384 H         1 UNK         0.0600 
    210 H210       -4.3773  -26.3256  -48.5858 H         1 UNK         0.3000 
    211 H211       -6.5071  -26.6696  -48.2189 H         1 UNK         0.0600 
    212 H212       -6.2749  -29.0489  -50.1324 H         1 UNK         0.0600 
    213 H213       -7.4696  -28.8398  -48.8595 H         1 UNK         0.0600 
    214 H214       -5.7792  -29.0559  -48.4399 H         1 UNK         0.0600 
    215 H215       -5.7846  -24.9821  -50.6186 H         1 UNK         0.3000 
    216 H216       -8.5042  -24.5002  -51.6119 H         1 UNK         0.0600 
    217 H217       -7.8383  -24.7489  -54.0034 H         1 UNK         0.0600 
    218 H218       -7.6439  -26.2770  -53.1675 H         1 UNK         0.0600 
    219 H219       -6.2314  -25.2859  -53.5234 H         1 UNK         0.0600 
    220 H220       -6.4638  -23.0898  -49.9585 H         1 UNK         0.3000 
    221 H221       -5.5217  -21.1035  -49.6456 H         1 UNK         0.0600 
    222 H222       -7.5288  -20.0827  -51.7230 H         1 UNK         0.0600 
    223 H223       -7.8794  -20.3514  -50.0172 H         1 UNK         0.0600 
    224 H224       -6.7210  -19.1229  -50.4925 H         1 UNK         0.0600 
    225 H225       -3.9773  -22.6428  -51.1347 H         1 UNK         0.3000 
    226 H226       -2.2412  -22.8420  -52.5067 H         1 UNK         0.0600 
    227 H227       -1.3940  -20.8475  -51.3187 H         1 UNK         0.0600 
    228 H228       -0.8294  -20.8665  -52.9765 H         1 UNK         0.0600 
    229 H229       -2.1337  -19.7828  -52.5147 H         1 UNK         0.0600 
    230 H230       -5.0796  -22.2563  -53.6700 H         1 UNK         0.3000 
    231 H231       -6.1646  -22.2632  -55.5619 H         1 UNK         0.0600 
    232 H232       -4.6692  -24.1769  -56.1814 H         1 UNK         0.0600 
    233 H233       -3.5660  -23.0535  -56.9760 H         1 UNK         0.0600 
    234 H234       -5.2009  -23.2670  -57.5847 H         1 UNK         0.0600 
    235 H235       -4.9572  -19.7783  -54.5905 H         1 UNK         0.3000 
    236 H236       -5.3219  -18.1147  -56.9909 H         1 UNK         0.0600 
    237 H237       -3.1156  -16.9579  -56.6646 H         1 UNK         0.0600 
    238 H238       -2.6765  -18.1412  -55.4369 H         1 UNK         0.0600 
    239 H239       -2.8985  -18.6421  -57.1123 H         1 UNK         0.0600 
    240 H240       -4.9119  -18.3413  -53.4281 H         1 UNK         0.3000 
    241 H241       -5.4177  -15.4861  -53.1084 H         1 UNK         0.0600 
    242 H242       -8.9448  -17.3034  -52.6478 H         1 UNK         0.3800 
    243 H243       -7.6383  -17.9885  -53.5809 H         1 UNK         0.3800 
    244 H244       -4.9100  -15.8521  -50.7545 H         1 UNK         0.0800 
    245 H245       -4.9431  -17.5866  -50.9549 H         1 UNK         0.0800 
    246 H246       -2.7590  -17.3975  -49.5889 H         1 UNK         0.0800 
    247 H247       -2.3905  -15.6941  -49.7205 H         1 UNK         0.0800 
@<TRIPOS>BOND
     1    1    2 1    
     2    1  127 1    
     3    1  128 1    
     4    1  129 1    
     5    2    3 2    
     6    2    4 am   BACKBONE|DICT|INTERRES
     7    4    5 1    
     8    4  130 1    
     9    5    6 1    
    10    5   65 1    
    11    5  131 1    
    12    6    7 1    
    13    6  132 1    
    14    6  133 1    
    15    7    8 1    
    16    8    9 1    
    17    8  134 1    
    18    8  135 1    
    19    9   10 ar   
    20    9   14 ar   
    21   10   11 ar   
    22   10  136 1    
    23   11   12 ar   
    24   11  126 1    
    25   12   13 ar   
    26   12  137 1    
    27   13   14 ar   
    28   13   15 1    
    29   14  138 1    
    30   15   16 1    
    31   15  139 1    
    32   15  140 1    
    33   16   17 1    
    34   17   18 1    
    35   17  141 1    
    36   17  142 1    
    37   18   19 1    
    38   18   67 1    
    39   18  143 1    
    40   19   20 am   BACKBONE|DICT|INTERRES
    41   19  144 1    
    42   20   21 2    
    43   20   22 1    
    44   22   23 1    
    45   22   24 1    
    46   22  145 1    
    47   23  146 1    
    48   23  147 1    
    49   23  148 1    
    50   24   25 am   BACKBONE|DICT|INTERRES
    51   24  149 1    
    52   25   26 2    
    53   25   27 1    
    54   27   28 1    
    55   27   29 1    
    56   27  150 1    
    57   28  151 1    
    58   28  152 1    
    59   28  153 1    
    60   29   30 am   BACKBONE|DICT|INTERRES
    61   29  154 1    
    62   30   31 2    
    63   30   32 1    
    64   32   33 1    
    65   32   34 1    
    66   32  155 1    
    67   33  156 1    
    68   33  157 1    
    69   33  158 1    
    70   34   35 am   BACKBONE|DICT|INTERRES
    71   34  159 1    
    72   35   36 2    
    73   35   37 1    
    74   37   38 1    
    75   37   39 1    
    76   37  160 1    
    77   38  161 1    
    78   38  162 1    
    79   38  163 1    
    80   39   40 am   BACKBONE|DICT|INTERRES
    81   39  164 1    
    82   40   41 2    
    83   40   42 1    
    84   42   43 1    
    85   42   44 1    
    86   42  165 1    
    87   43  166 1    
    88   43  167 1    
    89   43  168 1    
    90   44   45 am   BACKBONE|DICT|INTERRES
    91   44  169 1    
    92   45   46 2    
    93   45   47 1    
    94   47   48 1    
    95   47   49 1    
    96   47  170 1    
    97   48  171 1    
    98   48  172 1    
    99   48  173 1    
   100   49   50 am   BACKBONE|DICT|INTERRES
   101   49  174 1    
   102   50   51 2    
   103   50   52 1    
   104   52   53 1    
   105   52   54 1    
   106   52  175 1    
   107   53  176 1    
   108   53  177 1    
   109   53  178 1    
   110   54   55 am   BACKBONE|DICT|INTERRES
   111   54  179 1    
   112   55   56 2    
   113   55   57 1    
   114   57   58 1    
   115   57   59 1    
   116   57  180 1    
   117   58  181 1    
   118   58  182 1    
   119   58  183 1    
   120   59   60 am   BACKBONE|DICT|INTERRES
   121   59  184 1    
   122   60   61 2    
   123   60   62 1    
   124   62   63 1    
   125   62   64 1    
   126   62  185 1    
   127   63  186 1    
   128   63  187 1    
   129   63  188 1    
   130   64   65 am   BACKBONE|DICT|INTERRES
   131   64  189 1    
   132   65   66 2    
   133   67   68 2    
   134   67   69 am   BACKBONE|DICT|INTERRES
   135   69   70 1    
   136   69  190 1    
   137   70   71 1    
   138   70   72 1    
   139   70  191 1    
   140   71  192 1    
   141   71  193 1    
   142   71  194 1    
   143   72   73 2    
   144   72   74 am   BACKBONE|DICT|INTERRES
   145   74   75 1    
   146   74  195 1    
   147   75   76 1    
   148   75   77 1    
   149   75  196 1    
   150   76  197 1    
   151   76  198 1    
   152   76  199 1    
   153   77   78 2    
   154   77   79 am   BACKBONE|DICT|INTERRES
   155   79   80 1    
   156   79  200 1    
   157   80   81 1    
   158   80   82 1    
   159   80  201 1    
   160   81  202 1    
   161   81  203 1    
   162   81  204 1    
   163   82   83 2    
   164   82   84 am   BACKBONE|DICT|INTERRES
   165   84   85 1    
   166   84  205 1    
   167   85   86 1    
   168   85   87 1    
   169   85  206 1    
   170   86  207 1    
   171   86  208 1    
   172   86  209 1    
   173   87   88 2    
   174   87   89 am   BACKBONE|DICT|INTERRES
   175   89   90 1    
   176   89  210 1    
   177   90   91 1    
   178   90   92 1    
   179   90  211 1    
   180   91  212 1    
   181   91  213 1    
   182   91  214 1    
   183   92   93 2    
   184   92   94 am   BACKBONE|DICT|INTERRES
   185   94   95 1    
   186   94  215 1    
   187   95   96 1    
   188   95   97 1    
   189   95  216 1    
   190   96  217 1    
   191   96  218 1    
   192   96  219 1    
   193   97   98 2    
   194   97   99 am   BACKBONE|DICT|INTERRES
   195   99  100 1    
   196   99  220 1    
   197  100  101 1    
   198  100  102 1    
   199  100  221 1    
   200  101  222 1    
   201  101  223 1    
   202  101  224 1    
   203  102  103 2    
   204  102  104 am   BACKBONE|DICT|INTERRES
   205  104  105 1    
   206  104  225 1    
   207  105  106 1    
   208  105  107 1    
   209  105  226 1    
   210  106  227 1    
   211  106  228 1    
   212  106  229 1    
   213  107  108 2    
   214  107  109 am   BACKBONE|DICT|INTERRES
   215  109  110 1    
   216  109  230 1    
   217  110  111 1    
   218  110  112 1    
   219  110  231 1    
   220  111  232 1    
   221  111  233 1    
   222  111  234 1    
   223  112  113 2    
   224  112  114 am   BACKBONE|DICT|INTERRES
   225  114  115 1    
   226  114  235 1    
   227  115  116 1    
   228  115  117 1    
   229  115  236 1    
   230  116  237 1    
   231  116  238 1    
   232  116  239 1    
   233  117  118 2    
   234  117  119 am   BACKBONE|DICT|INTERRES
   235  119  120 1    
   236  119  240 1    
   237  120  121 1    
   238  120  124 1    
   239  120  241 1    
   240  121  122 am   BACKBONE|DICT|INTERRES
   241  121  123 2    
   242  122  242 1    
   243  122  243 1    
   244  124  125 1    
   245  124  244 1    
   246  124  245 1    
   247  125  126 1    
   248  126  246 1    
   249  126  247 1    
@<TRIPOS>SUBSTRUCTURE
     1 UNK         1 GROUP             0       ****    0 ROOT    
