@<TRIPOS>MOLECULE
3R540
247   249    1
SMALL
USER_CHARGES


@<TRIPOS>ATOM
      1 CA          3.6048   -9.0627  -50.7890 C.3       0 UNK        -0.1800 
      2 C           3.8484  -10.1093  -49.7117 C.2       0 UNK         0.5000 
      3 O           4.4148   -9.7923  -48.6657 O.2       0 UNK        -0.5000 
      4 N           3.4091  -11.3522  -49.9533 N.am      1 UNK        -0.5000 
      5 CA          3.5536  -12.5008  -49.0461 C.3       1 UNK         0.1400 
      6 C6          3.1171  -13.8306  -49.7104 C.3       23 UNK        -0.0398 
      7 S7          1.4009  -13.8199  -50.3463 S.3       23 UNK        -0.2404 
      8 C8          0.5332  -14.8474  -49.1154 C.3       23 UNK        -0.0205 
      9 C9          0.9180  -16.3166  -49.2184 C.ar      23 UNK        -0.0193 
     10 C10         0.5918  -17.0436  -50.3654 C.ar      23 UNK        -0.1150 
     11 C11         0.9511  -18.3881  -50.4804 C.ar      23 UNK        -0.0193 
     12 C12         1.6295  -19.0110  -49.4295 C.ar      23 UNK        -0.1150 
     13 C13         1.9481  -18.3026  -48.2638 C.ar      23 UNK        -0.0193 
     14 C14         1.5970  -16.9511  -48.1736 C.ar      23 UNK        -0.1150 
     15 C15         2.7186  -18.9532  -47.1155 C.3       23 UNK        -0.0205 
     16 S16         2.3283  -20.7138  -46.8307 S.3       23 UNK        -0.2404 
     17 C17         0.6509  -20.6205  -46.1214 C.3       23 UNK        -0.0398 
     18 CA         -0.0429  -22.0066  -46.1056 C.3       11 UNK         0.1400 
     19 N          -0.9770  -22.1506  -44.9857 N.am      11 UNK        -0.5000 
     20 C          -1.4448  -23.3267  -44.5401 C.2       10 UNK         0.5000 
     21 O          -1.1068  -24.4135  -45.0075 O.2       10 UNK        -0.5000 
     22 CA         -2.4967  -23.2862  -43.4138 C.3       10 UNK         0.1400 
     23 CB         -1.8113  -23.2772  -42.0395 C.3       10 UNK        -0.1800 
     24 N          -3.3947  -22.1354  -43.5099 N.am      10 UNK        -0.5000 
     25 C          -4.2366  -21.9026  -44.5271 C.2       9 UNK         0.5000 
     26 O          -4.4098  -22.6872  -45.4576 O.2       9 UNK        -0.5000 
     27 CA         -4.9558  -20.5388  -44.5424 C.3       9 UNK         0.1400 
     28 CB         -6.3598  -20.6654  -43.9340 C.3       9 UNK        -0.1800 
     29 N          -4.2182  -19.4775  -43.8465 N.am      9 UNK        -0.5000 
     30 C          -2.9919  -19.0532  -44.1793 C.2       8 UNK         0.5000 
     31 O          -2.3473  -19.5013  -45.1344 O.2       8 UNK        -0.5000 
     32 CA         -2.3551  -18.0121  -43.2492 C.3       8 UNK         0.1400 
     33 CB         -1.9640  -18.6631  -41.9063 C.3       8 UNK        -0.1800 
     34 N          -1.1729  -17.4841  -43.9161 N.am      8 UNK        -0.5000 
     35 C          -0.4441  -16.4312  -43.5401 C.2       7 UNK         0.5000 
     36 O          -0.7042  -15.7187  -42.5683 O.2       7 UNK        -0.5000 
     37 CA          0.7947  -16.1334  -44.4019 C.3       7 UNK         0.1400 
     38 CB          0.7551  -14.7067  -44.9667 C.3       7 UNK        -0.1800 
     39 N           2.0319  -16.3269  -43.6477 N.am      7 UNK        -0.5000 
     40 C           2.4749  -17.5161  -43.2109 C.2       6 UNK         0.5000 
     41 O           1.8928  -18.5781  -43.4292 O.2       6 UNK        -0.5000 
     42 CA          3.8003  -17.5487  -42.4246 C.3       6 UNK         0.1400 
     43 CB          4.9410  -18.0347  -43.3331 C.3       6 UNK        -0.1800 
     44 N           4.1783  -16.2591  -41.8490 N.am      6 UNK        -0.5000 
     45 C           3.5694  -15.6618  -40.8152 C.2       5 UNK         0.5000 
     46 O           2.6400  -16.1676  -40.1859 O.2       5 UNK        -0.5000 
     47 CA          4.0829  -14.2609  -40.4194 C.3       5 UNK         0.1400 
     48 CB          4.9360  -14.3413  -39.1438 C.3       5 UNK        -0.1800 
     49 N           4.8634  -13.5959  -41.4698 N.am      5 UNK        -0.5000 
     50 C           4.3638  -13.1691  -42.6365 C.2       4 UNK         0.5000 
     51 O           3.1838  -13.3082  -42.9646 O.2       4 UNK        -0.5000 
     52 CA          5.3683  -12.5521  -43.6221 C.3       4 UNK         0.1400 
     53 CB          5.8767  -13.6222  -44.6016 C.3       4 UNK        -0.1800 
     54 N           4.7466  -11.4651  -44.3737 N.am      4 UNK        -0.5000 
     55 C           4.6401  -10.2058  -43.9247 C.2       3 UNK         0.5000 
     56 O           5.1191   -9.8255  -42.8551 O.2       3 UNK        -0.5000 
     57 CA          3.8863   -9.1892  -44.8072 C.3       3 UNK         0.1400 
     58 CB          4.8801   -8.3253  -45.5984 C.3       3 UNK        -0.1800 
     59 N           2.9541   -9.8188  -45.7415 N.am      3 UNK        -0.5000 
     60 C           1.7896  -10.3812  -45.3859 C.2       2 UNK         0.5000 
     61 O           1.3305  -10.3252  -44.2446 O.2       2 UNK        -0.5000 
     62 CA          1.0016  -11.1387  -46.4755 C.3       2 UNK         0.1400 
     63 CB         -0.2192  -10.3224  -46.9261 C.3       2 UNK        -0.1800 
     64 N           1.7869  -11.4958  -47.6592 N.am      2 UNK        -0.5000 
     65 C           2.8585  -12.3016  -47.6823 C.2       1 UNK         0.5000 
     66 O           3.3249  -12.8441  -46.6823 O.2       1 UNK        -0.5000 
     67 C          -0.7406  -22.3213  -47.4434 C.2       11 UNK         0.5000 
     68 O          -0.1731  -23.0291  -48.2754 O.2       11 UNK        -0.5000 
     69 N          -1.9894  -21.8521  -47.5932 N.am      12 UNK        -0.5000 
     70 CA         -2.8519  -22.1703  -48.7315 C.3       12 UNK         0.1400 
     71 CB         -4.1243  -21.3106  -48.6877 C.3       12 UNK        -0.1800 
     72 C          -3.2021  -23.6664  -48.7956 C.2       12 UNK         0.5000 
     73 O          -3.1896  -24.2422  -49.8819 O.2       12 UNK        -0.5000 
     74 N          -3.4791  -24.2786  -47.6365 N.am      13 UNK        -0.5000 
     75 CA         -3.7401  -25.7108  -47.4961 C.3       13 UNK         0.1400 
     76 CB         -4.2395  -26.0129  -46.0762 C.3       13 UNK        -0.1800 
     77 C          -2.5130  -26.5698  -47.8474 C.2       13 UNK         0.5000 
     78 O          -2.6579  -27.5541  -48.5718 O.2       13 UNK        -0.5000 
     79 N          -1.3249  -26.1574  -47.3805 N.am      14 UNK        -0.5000 
     80 CA         -0.0401  -26.7876  -47.6993 C.3       14 UNK         0.1400 
     81 CB          1.0673  -26.1649  -46.8359 C.3       14 UNK        -0.1800 
     82 C           0.3200  -26.6983  -49.1952 C.2       14 UNK         0.5000 
     83 O           0.8598  -27.6562  -49.7496 O.2       14 UNK        -0.5000 
     84 N          -0.0202  -25.5675  -49.8276 N.am      15 UNK        -0.5000 
     85 CA          0.1196  -25.3343  -51.2664 C.3       15 UNK         0.1400 
     86 CB          0.0708  -23.8196  -51.5212 C.3       15 UNK        -0.1800 
     87 C          -0.9500  -26.0512  -52.1185 C.2       15 UNK         0.5000 
     88 O          -0.8109  -26.0841  -53.3418 O.2       15 UNK        -0.5000 
     89 N          -2.0007  -26.5811  -51.4716 N.am      16 UNK        -0.5000 
     90 CA         -3.2104  -27.1750  -52.0546 C.3       16 UNK         0.1400 
     91 CB         -2.8786  -28.4657  -52.8316 C.3       16 UNK        -0.1800 
     92 C          -4.0347  -26.1607  -52.8792 C.2       16 UNK         0.5000 
     93 O          -4.6799  -26.5322  -53.8610 O.2       16 UNK        -0.5000 
     94 N          -3.9942  -24.8926  -52.4547 N.am      17 UNK        -0.5000 
     95 CA         -4.6300  -23.7459  -53.0986 C.3       17 UNK         0.1400 
     96 CB         -3.5866  -22.6260  -53.2172 C.3       17 UNK        -0.1800 
     97 C          -5.8597  -23.2445  -52.3203 C.2       17 UNK         0.5000 
     98 O          -6.5601  -22.3630  -52.8160 O.2       17 UNK        -0.5000 
     99 N          -6.1217  -23.8078  -51.1302 N.am      18 UNK        -0.5000 
    100 CA        -7.2105  -23.4309  -50.2174 C.3       18 UNK         0.1400 
    101 CB        -7.0689  -24.2275  -48.9109 C.3       18 UNK        -0.1800 
    102 C         -8.6354  -23.5832  -50.7924 C.2       18 UNK         0.5000 
    103 O         -9.5682  -22.9838  -50.2570 O.2       18 UNK        -0.5000 
    104 N         -8.7804  -24.3558  -51.8778 N.am      19 UNK        -0.5000 
    105 CA       -10.0087  -24.4775  -52.6662 C.3       19 UNK         0.1400 
    106 CB        -9.8631  -25.6722  -53.6216 C.3       19 UNK        -0.1800 
    107 C        -10.3643  -23.1968  -53.4544 C.2       19 UNK         0.5000 
    108 O        -11.5220  -23.0344  -53.8429 O.2       19 UNK        -0.5000 
    109 N         -9.3771  -22.3203  -53.6769 N.am      20 UNK        -0.5000 
    110 CA        -9.5149  -21.0217  -54.3232 C.3       20 UNK         0.1400 
    111 CB        -8.9299  -21.1027  -55.7482 C.3       20 UNK        -0.1800 
    112 C         -8.8350  -19.9853  -53.4128 C.2       20 UNK         0.5000 
    113 O         -9.3808  -19.6663  -52.3551 O.2       20 UNK        -0.5000 
    114 N         -7.6553  -19.5010  -53.8102 N.am      21 UNK        -0.5000 
    115 CA        -6.7755  -18.6496  -53.0207 C.3       21 UNK         0.1400 
    116 CB        -7.1398  -17.1711  -53.2382 C.3       21 UNK        -0.1800 
    117 C         -5.3295  -18.9363  -53.4461 C.2       21 UNK         0.5000 
    118 O         -5.0970  -19.3124  -54.5987 O.2       21 UNK        -0.5000 
    119 N         -4.3885  -18.7516  -52.5145 N.am      22 UNK        -0.5000 
    120 CA        -2.9471  -18.9153  -52.7480 C.3       22 UNK         0.1400 
    121 C         -2.3579  -17.7436  -53.5806 C.2       22 UNK         0.5000 
    122 N         -1.5499  -18.0299  -54.5924 N.am      22 UNK        -0.7600 
    123 O         -2.6040  -16.5747  -53.2929 O.2       22 UNK        -0.5000 
    124 C124       -2.1861  -19.1086  -51.4102 C.3       23 UNK        -0.0398 
    125 S125       -0.7881  -20.2705  -51.5614 S.3       23 UNK        -0.2404 
    126 C126        0.6378  -19.1575  -51.7541 C.3       23 UNK        -0.0205 
    127 H127        4.5535   -8.6489  -51.1304 H         1 UNK         0.0600 
    128 H128        3.0000   -8.2483  -50.3901 H         1 UNK         0.0600 
    129 H129        3.0858   -9.4817  -51.6514 H         1 UNK         0.0600 
    130 H130        2.9345  -11.5489  -50.8235 H         1 UNK         0.3000 
    131 H131        4.6202  -12.5877  -48.8279 H         1 UNK         0.0600 
    132 H132        3.7746  -14.0398  -50.5551 H         1 UNK         0.0800 
    133 H133        3.2600  -14.6675  -49.0248 H         1 UNK         0.0800 
    134 H134        0.7259  -14.4589  -48.1146 H         1 UNK         0.0800 
    135 H135       -0.5416  -14.7536  -49.2765 H         1 UNK         0.0800 
    136 H136        0.0724  -16.5533  -51.1773 H         1 UNK         0.1150 
    137 H137        1.9131  -20.0492  -49.5290 H         1 UNK         0.1150 
    138 H138        1.8661  -16.3859  -47.2933 H         1 UNK         0.1150 
    139 H139        3.7840  -18.8691  -47.3327 H         1 UNK         0.0800 
    140 H140        2.5521  -18.4081  -46.1859 H         1 UNK         0.0800 
    141 H141        0.7598  -20.2475  -45.1030 H         1 UNK         0.0800 
    142 H142        0.0565  -19.8741  -46.6522 H         1 UNK         0.0800 
    143 H143        0.7275  -22.7675  -45.9594 H         1 UNK         0.0600 
    144 H144       -1.3600  -21.2928  -44.6097 H         1 UNK         0.3000 
    145 H145       -3.1017  -24.1917  -43.4891 H         1 UNK         0.0600 
    146 H146       -2.5433  -23.3272  -41.2331 H         1 UNK         0.0600 
    147 H147       -1.1485  -24.1365  -41.9287 H         1 UNK         0.0600 
    148 H148       -1.2110  -22.3782  -41.8938 H         1 UNK         0.0600 
    149 H149       -3.3246  -21.4425  -42.7802 H         1 UNK         0.3000 
    150 H150       -5.0608  -20.2394  -45.5872 H         1 UNK         0.0600 
    151 H151       -6.9129  -19.7298  -44.0192 H         1 UNK         0.0600 
    152 H152       -6.3186  -20.9377  -42.8786 H         1 UNK         0.0600 
    153 H153       -6.9406  -21.4322  -44.4487 H         1 UNK         0.0600 
    154 H154       -4.6774  -19.0661  -43.0464 H         1 UNK         0.3000 
    155 H155       -3.0683  -17.2022  -43.0844 H         1 UNK         0.0600 
    156 H156       -2.8314  -19.0919  -41.4034 H         1 UNK         0.0600 
    157 H157       -1.5292  -17.9365  -41.2201 H         1 UNK         0.0600 
    158 H158       -1.2350  -19.4625  -42.0468 H         1 UNK         0.0600 
    159 H159       -0.9136  -18.0154  -44.7383 H         1 UNK         0.3000 
    160 H160        0.8056  -16.8253  -45.2458 H         1 UNK         0.0600 
    161 H161        0.7623  -13.9574  -44.1741 H         1 UNK         0.0600 
    162 H162       -0.1430  -14.5473  -45.5643 H         1 UNK         0.0600 
    163 H163        1.6137  -14.5187  -45.6095 H         1 UNK         0.0600 
    164 H164        2.5366  -15.4884  -43.3900 H         1 UNK         0.3000 
    165 H165        3.6803  -18.2660  -41.6101 H         1 UNK         0.0600 
    166 H166        5.1184  -17.3454  -44.1598 H         1 UNK         0.0600 
    167 H167        5.8723  -18.1401  -42.7764 H         1 UNK         0.0600 
    168 H168        4.7098  -19.0099  -43.7641 H         1 UNK         0.0600 
    169 H169        4.9411  -15.7718  -42.2939 H         1 UNK         0.3000 
    170 H170        3.2075  -13.6434  -40.2073 H         1 UNK         0.0600 
    171 H171        4.3772  -14.8010  -38.3274 H         1 UNK         0.0600 
    172 H172        5.8375  -14.9353  -39.2995 H         1 UNK         0.0600 
    173 H173        5.2396  -13.3495  -38.8083 H         1 UNK         0.0600 
    174 H174        5.8455  -13.4589  -41.2770 H         1 UNK         0.3000 
    175 H175        6.2248  -12.1620  -43.0679 H         1 UNK         0.0600 
    176 H176        5.0573  -14.1101  -45.1307 H         1 UNK         0.0600 
    177 H177        6.5463  -13.1910  -45.3460 H         1 UNK         0.0600 
    178 H178        6.4326  -14.3994  -44.0761 H         1 UNK         0.0600 
    179 H179        4.2563  -11.7349  -45.2197 H         1 UNK         0.3000 
    180 H180        3.3192   -8.5325  -44.1442 H         1 UNK         0.0600 
    181 H181        5.4953   -8.9304  -46.2656 H         1 UNK         0.0600 
    182 H182        5.5532   -7.7903  -44.9273 H         1 UNK         0.0600 
    183 H183        4.3631   -7.5799  -46.2029 H         1 UNK         0.0600 
    184 H184        3.2650   -9.9026  -46.7017 H         1 UNK         0.3000 
    185 H185        0.6439  -12.0655  -46.0254 H         1 UNK         0.0600 
    186 H186       -0.8335  -10.8857  -47.6288 H         1 UNK         0.0600 
    187 H187       -0.8539  -10.0649  -46.0770 H         1 UNK         0.0600 
    188 H188        0.0775   -9.3905  -47.4090 H         1 UNK         0.0600 
    189 H189        1.4906  -11.0875  -48.5337 H         1 UNK         0.3000 
    190 H190       -2.3880  -21.2876  -46.8555 H         1 UNK         0.3000 
    191 H191       -2.3043  -21.9215  -49.6414 H         1 UNK         0.0600 
    192 H192       -4.7037  -21.4344  -49.6034 H         1 UNK         0.0600 
    193 H193       -3.8858  -20.2514  -48.5928 H         1 UNK         0.0600 
    194 H194       -4.7714  -21.5814  -47.8535 H         1 UNK         0.0600 
    195 H195       -3.5587  -23.7154  -46.7942 H         1 UNK         0.3000 
    196 H196       -4.5368  -25.9732  -48.1950 H         1 UNK         0.0600 
    197 H197       -4.4858  -27.0696  -45.9663 H         1 UNK         0.0600 
    198 H198       -5.1399  -25.4428  -45.8460 H         1 UNK         0.0600 
    199 H199       -3.4886  -25.7714  -45.3245 H         1 UNK         0.0600 
    200 H200       -1.2949  -25.3647  -46.7467 H         1 UNK         0.3000 
    201 H201       -0.1165  -27.8457  -47.4411 H         1 UNK         0.0600 
    202 H202        0.8610  -26.2988  -45.7739 H         1 UNK         0.0600 
    203 H203        1.1719  -25.0961  -47.0240 H         1 UNK         0.0600 
    204 H204        2.0318  -26.6308  -47.0409 H         1 UNK         0.0600 
    205 H205       -0.3916  -24.7972  -49.2805 H         1 UNK         0.3000 
    206 H206        1.0961  -25.7036  -51.5858 H         1 UNK         0.0600 
    207 H207        0.8503  -23.2978  -50.9656 H         1 UNK         0.0600 
    208 H208        0.2169  -23.5908  -52.5775 H         1 UNK         0.0600 
    209 H209       -0.8892  -23.3958  -51.2252 H         1 UNK         0.0600 
    210 H210       -2.0129  -26.4956  -50.4633 H         1 UNK         0.3000 
    211 H211       -3.8413  -27.4558  -51.2102 H         1 UNK         0.0600 
    212 H212       -2.3106  -28.2601  -53.7391 H         1 UNK         0.0600 
    213 H213       -3.7891  -28.9872  -53.1287 H         1 UNK         0.0600 
    214 H214       -2.2966  -29.1545  -52.2193 H         1 UNK         0.0600 
    215 H215       -3.4787  -24.6896  -51.5993 H         1 UNK         0.3000 
    216 H216       -4.9636  -24.0119  -54.1035 H         1 UNK         0.0600 
    217 H217       -3.9911  -21.7874  -53.7834 H         1 UNK         0.0600 
    218 H218       -2.6935  -22.9691  -53.7399 H         1 UNK         0.0600 
    219 H219       -3.2796  -22.2533  -52.2389 H         1 UNK         0.0600 
    220 H220       -5.4853  -24.5195  -50.8017 H         1 UNK         0.3000 
    221 H221       -7.0845  -22.3722  -49.9823 H         1 UNK         0.0600 
    222 H222       -7.8917  -24.0147  -48.2269 H         1 UNK         0.0600 
    223 H223       -7.0625  -25.3027  -49.0923 H         1 UNK         0.0600 
    224 H224       -6.1511  -23.9650  -48.3881 H         1 UNK         0.0600 
    225 H225       -7.9613  -24.8189  -52.2422 H         1 UNK         0.3000 
    226 H226      -10.8353  -24.6830  -51.9829 H         1 UNK         0.0600 
    227 H227       -9.6809  -26.5966  -53.0734 H         1 UNK         0.0600 
    228 H228      -10.7716  -25.8174  -54.2077 H         1 UNK         0.0600 
    229 H229       -9.0399  -25.5282  -54.3226 H         1 UNK         0.0600 
    230 H230       -8.4572  -22.5052  -53.2862 H         1 UNK         0.3000 
    231 H231      -10.5658  -20.7345  -54.3963 H         1 UNK         0.0600 
    232 H232       -8.9642  -20.1320  -56.2446 H         1 UNK         0.0600 
    233 H233       -9.5040  -21.7972  -56.3617 H         1 UNK         0.0600 
    234 H234       -7.8945  -21.4462  -55.7474 H         1 UNK         0.0600 
    235 H235       -7.2308  -19.8520  -54.6598 H         1 UNK         0.3000 
    236 H236       -6.8795  -18.9017  -51.9629 H         1 UNK         0.0600 
    237 H237       -8.1611  -16.9645  -52.9178 H         1 UNK         0.0600 
    238 H238       -6.4808  -16.5172  -52.6659 H         1 UNK         0.0600 
    239 H239       -7.0541  -16.8880  -54.2881 H         1 UNK         0.0600 
    240 H240       -4.6560  -18.3903  -51.6110 H         1 UNK         0.3000 
    241 H241       -2.8318  -19.8267  -53.3361 H         1 UNK         0.0600 
    242 H242       -1.3359  -18.9823  -54.8441 H         1 UNK         0.3800 
    243 H243       -1.1574  -17.2758  -55.1340 H         1 UNK         0.3800 
    244 H244       -1.8685  -18.1600  -50.9769 H         1 UNK         0.0800 
    245 H245       -2.8492  -19.5507  -50.6674 H         1 UNK         0.0800 
    246 H246        1.5075  -19.7533  -52.0345 H         1 UNK         0.0800 
    247 H247        0.4619  -18.4736  -52.5850 H         1 UNK         0.0800 
@<TRIPOS>BOND
     1    1    2 1    
     2    1  127 1    
     3    1  128 1    
     4    1  129 1    
     5    2    3 2    
     6    2    4 am   BACKBONE|DICT|INTERRES
     7    4    5 1    
     8    4  130 1    
     9    5    6 1    
    10    5   65 1    
    11    5  131 1    
    12    6    7 1    
    13    6  132 1    
    14    6  133 1    
    15    7    8 1    
    16    8    9 1    
    17    8  134 1    
    18    8  135 1    
    19    9   10 ar   
    20    9   14 ar   
    21   10   11 ar   
    22   10  136 1    
    23   11   12 ar   
    24   11  126 1    
    25   12   13 ar   
    26   12  137 1    
    27   13   14 ar   
    28   13   15 1    
    29   14  138 1    
    30   15   16 1    
    31   15  139 1    
    32   15  140 1    
    33   16   17 1    
    34   17   18 1    
    35   17  141 1    
    36   17  142 1    
    37   18   19 1    
    38   18   67 1    
    39   18  143 1    
    40   19   20 am   BACKBONE|DICT|INTERRES
    41   19  144 1    
    42   20   21 2    
    43   20   22 1    
    44   22   23 1    
    45   22   24 1    
    46   22  145 1    
    47   23  146 1    
    48   23  147 1    
    49   23  148 1    
    50   24   25 am   BACKBONE|DICT|INTERRES
    51   24  149 1    
    52   25   26 2    
    53   25   27 1    
    54   27   28 1    
    55   27   29 1    
    56   27  150 1    
    57   28  151 1    
    58   28  152 1    
    59   28  153 1    
    60   29   30 am   BACKBONE|DICT|INTERRES
    61   29  154 1    
    62   30   31 2    
    63   30   32 1    
    64   32   33 1    
    65   32   34 1    
    66   32  155 1    
    67   33  156 1    
    68   33  157 1    
    69   33  158 1    
    70   34   35 am   BACKBONE|DICT|INTERRES
    71   34  159 1    
    72   35   36 2    
    73   35   37 1    
    74   37   38 1    
    75   37   39 1    
    76   37  160 1    
    77   38  161 1    
    78   38  162 1    
    79   38  163 1    
    80   39   40 am   BACKBONE|DICT|INTERRES
    81   39  164 1    
    82   40   41 2    
    83   40   42 1    
    84   42   43 1    
    85   42   44 1    
    86   42  165 1    
    87   43  166 1    
    88   43  167 1    
    89   43  168 1    
    90   44   45 am   BACKBONE|DICT|INTERRES
    91   44  169 1    
    92   45   46 2    
    93   45   47 1    
    94   47   48 1    
    95   47   49 1    
    96   47  170 1    
    97   48  171 1    
    98   48  172 1    
    99   48  173 1    
   100   49   50 am   BACKBONE|DICT|INTERRES
   101   49  174 1    
   102   50   51 2    
   103   50   52 1    
   104   52   53 1    
   105   52   54 1    
   106   52  175 1    
   107   53  176 1    
   108   53  177 1    
   109   53  178 1    
   110   54   55 am   BACKBONE|DICT|INTERRES
   111   54  179 1    
   112   55   56 2    
   113   55   57 1    
   114   57   58 1    
   115   57   59 1    
   116   57  180 1    
   117   58  181 1    
   118   58  182 1    
   119   58  183 1    
   120   59   60 am   BACKBONE|DICT|INTERRES
   121   59  184 1    
   122   60   61 2    
   123   60   62 1    
   124   62   63 1    
   125   62   64 1    
   126   62  185 1    
   127   63  186 1    
   128   63  187 1    
   129   63  188 1    
   130   64   65 am   BACKBONE|DICT|INTERRES
   131   64  189 1    
   132   65   66 2    
   133   67   68 2    
   134   67   69 am   BACKBONE|DICT|INTERRES
   135   69   70 1    
   136   69  190 1    
   137   70   71 1    
   138   70   72 1    
   139   70  191 1    
   140   71  192 1    
   141   71  193 1    
   142   71  194 1    
   143   72   73 2    
   144   72   74 am   BACKBONE|DICT|INTERRES
   145   74   75 1    
   146   74  195 1    
   147   75   76 1    
   148   75   77 1    
   149   75  196 1    
   150   76  197 1    
   151   76  198 1    
   152   76  199 1    
   153   77   78 2    
   154   77   79 am   BACKBONE|DICT|INTERRES
   155   79   80 1    
   156   79  200 1    
   157   80   81 1    
   158   80   82 1    
   159   80  201 1    
   160   81  202 1    
   161   81  203 1    
   162   81  204 1    
   163   82   83 2    
   164   82   84 am   BACKBONE|DICT|INTERRES
   165   84   85 1    
   166   84  205 1    
   167   85   86 1    
   168   85   87 1    
   169   85  206 1    
   170   86  207 1    
   171   86  208 1    
   172   86  209 1    
   173   87   88 2    
   174   87   89 am   BACKBONE|DICT|INTERRES
   175   89   90 1    
   176   89  210 1    
   177   90   91 1    
   178   90   92 1    
   179   90  211 1    
   180   91  212 1    
   181   91  213 1    
   182   91  214 1    
   183   92   93 2    
   184   92   94 am   BACKBONE|DICT|INTERRES
   185   94   95 1    
   186   94  215 1    
   187   95   96 1    
   188   95   97 1    
   189   95  216 1    
   190   96  217 1    
   191   96  218 1    
   192   96  219 1    
   193   97   98 2    
   194   97   99 am   BACKBONE|DICT|INTERRES
   195   99  100 1    
   196   99  220 1    
   197  100  101 1    
   198  100  102 1    
   199  100  221 1    
   200  101  222 1    
   201  101  223 1    
   202  101  224 1    
   203  102  103 2    
   204  102  104 am   BACKBONE|DICT|INTERRES
   205  104  105 1    
   206  104  225 1    
   207  105  106 1    
   208  105  107 1    
   209  105  226 1    
   210  106  227 1    
   211  106  228 1    
   212  106  229 1    
   213  107  108 2    
   214  107  109 am   BACKBONE|DICT|INTERRES
   215  109  110 1    
   216  109  230 1    
   217  110  111 1    
   218  110  112 1    
   219  110  231 1    
   220  111  232 1    
   221  111  233 1    
   222  111  234 1    
   223  112  113 2    
   224  112  114 am   BACKBONE|DICT|INTERRES
   225  114  115 1    
   226  114  235 1    
   227  115  116 1    
   228  115  117 1    
   229  115  236 1    
   230  116  237 1    
   231  116  238 1    
   232  116  239 1    
   233  117  118 2    
   234  117  119 am   BACKBONE|DICT|INTERRES
   235  119  120 1    
   236  119  240 1    
   237  120  121 1    
   238  120  124 1    
   239  120  241 1    
   240  121  122 am   BACKBONE|DICT|INTERRES
   241  121  123 2    
   242  122  242 1    
   243  122  243 1    
   244  124  125 1    
   245  124  244 1    
   246  124  245 1    
   247  125  126 1    
   248  126  246 1    
   249  126  247 1    
@<TRIPOS>SUBSTRUCTURE
     1 UNK         1 GROUP             0       ****    0 ROOT    
