@<TRIPOS>MOLECULE
3R540
247   249    1
SMALL
USER_CHARGES


@<TRIPOS>ATOM
      1 CA          7.8900  -11.2078  -49.3302 C.3       0 UNK        -0.1800 
      2 C           6.5651  -11.4325  -48.6177 C.2       0 UNK         0.5000 
      3 O           6.5513  -11.9286  -47.4899 O.2       0 UNK        -0.5000 
      4 N           5.4480  -11.0546  -49.2569 N.am      1 UNK        -0.5000 
      5 CA          4.0843  -11.2245  -48.7355 C.3       1 UNK         0.1400 
      6 C6          3.0076  -10.9348  -49.8096 C.3       23 UNK        -0.0398 
      7 S7          1.3930  -11.6873  -49.4070 S.3       23 UNK        -0.2404 
      8 C8          1.6180  -13.3731  -50.0515 C.3       23 UNK        -0.0205 
      9 C9          0.4767  -14.2762  -49.6135 C.ar      23 UNK        -0.0193 
     10 C10        -0.7019  -14.3293  -50.3621 C.ar      23 UNK        -0.1150 
     11 C11        -1.7595  -15.1516  -49.9644 C.ar      23 UNK        -0.0193 
     12 C12        -1.6343  -15.9181  -48.8002 C.ar      23 UNK        -0.1150 
     13 C13        -0.4554  -15.8836  -48.0498 C.ar      23 UNK        -0.0193 
     14 C14         0.5962  -15.0583  -48.4602 C.ar      23 UNK        -0.1150 
     15 C15        -0.3235  -16.7193  -46.7854 C.3       23 UNK        -0.0205 
     16 S16         0.3168  -18.3890  -47.1277 S.3       23 UNK        -0.2404 
     17 C17        -1.2236  -19.3503  -47.3029 C.3       23 UNK        -0.0398 
     18 CA         -0.9938  -20.8773  -47.1761 C.3       11 UNK         0.1400 
     19 N          -0.3602  -21.2674  -45.9090 N.am      11 UNK        -0.5000 
     20 C           0.0444  -22.5121  -45.6126 C.2       10 UNK         0.5000 
     21 O          -0.0363  -23.4609  -46.3913 O.2       10 UNK        -0.5000 
     22 CA          0.5624  -22.7566  -44.1875 C.3       10 UNK         0.1400 
     23 CB          2.0316  -22.3293  -44.0487 C.3       10 UNK        -0.1800 
     24 N          -0.2650  -22.0595  -43.2040 N.am      10 UNK        -0.5000 
     25 C          -1.4791  -22.4790  -42.8176 C.2       9 UNK         0.5000 
     26 O          -1.9907  -23.5299  -43.2038 O.2       9 UNK        -0.5000 
     27 CA         -2.2684  -21.5658  -41.8590 C.3       9 UNK         0.1400 
     28 CB         -1.9639  -21.9287  -40.3981 C.3       9 UNK        -0.1800 
     29 N          -2.0023  -20.1414  -42.0650 N.am      9 UNK        -0.5000 
     30 C          -2.3342  -19.4574  -43.1685 C.2       8 UNK         0.5000 
     31 O          -2.9322  -19.9497  -44.1241 O.2       8 UNK        -0.5000 
     32 CA         -1.8678  -17.9919  -43.2438 C.3       8 UNK         0.1400 
     33 CB         -2.9141  -17.0566  -42.6219 C.3       8 UNK        -0.1800 
     34 N          -0.5638  -17.7406  -42.6233 N.am      8 UNK        -0.5000 
     35 C           0.5817  -18.3645  -42.9333 C.2       7 UNK         0.5000 
     36 O           0.6456  -19.2801  -43.7547 O.2       7 UNK        -0.5000 
     37 CA          1.8504  -17.8982  -42.1917 C.3       7 UNK         0.1400 
     38 CB          3.1418  -18.3922  -42.8686 C.3       7 UNK        -0.1800 
     39 N           1.8942  -16.4394  -42.0885 N.am      7 UNK        -0.5000 
     40 C           1.4541  -15.7190  -41.0468 C.2       6 UNK         0.5000 
     41 O           0.9575  -16.2234  -40.0395 O.2       6 UNK        -0.5000 
     42 CA          1.5553  -14.1824  -41.1445 C.3       6 UNK         0.1400 
     43 CB          2.7709  -13.6743  -40.3553 C.3       6 UNK        -0.1800 
     44 N           1.6407  -13.6955  -42.5221 N.am      6 UNK        -0.5000 
     45 C           0.6284  -13.7255  -43.4021 C.2       5 UNK         0.5000 
     46 O          -0.5116  -14.0883  -43.1109 O.2       5 UNK        -0.5000 
     47 CA          0.9389  -13.3155  -44.8572 C.3       5 UNK         0.1400 
     48 CB          0.4462  -11.8866  -45.1268 C.3       5 UNK        -0.1800 
     49 N           2.3543  -13.4299  -45.2323 N.am      5 UNK        -0.5000 
     50 C           3.0633  -14.5691  -45.2018 C.2       4 UNK         0.5000 
     51 O           2.5850  -15.6508  -44.8649 O.2       4 UNK        -0.5000 
     52 CA          4.5605  -14.5047  -45.5534 C.3       4 UNK         0.1400 
     53 CB          4.7887  -14.9111  -47.0164 C.3       4 UNK        -0.1800 
     54 N           5.2025  -13.2148  -45.2805 N.am      4 UNK        -0.5000 
     55 C           5.3546  -12.6908  -44.0536 C.2       3 UNK         0.5000 
     56 O           4.8458  -13.1716  -43.0406 O.2       3 UNK        -0.5000 
     57 CA          6.2183  -11.4241  -43.9346 C.3       3 UNK         0.1400 
     58 CB          7.7088  -11.7642  -44.0941 C.3       3 UNK        -0.1800 
     59 N           5.8357  -10.4400  -44.9422 N.am      3 UNK        -0.5000 
     60 C           5.0129   -9.4052  -44.7205 C.2       2 UNK         0.5000 
     61 O           4.5855   -9.0946  -43.6080 O.2       2 UNK        -0.5000 
     62 CA          4.5674   -8.5860  -45.9519 C.3       2 UNK         0.1400 
     63 CB          5.4641   -7.3514  -46.1296 C.3       2 UNK        -0.1800 
     64 N           4.5571   -9.3511  -47.2023 N.am      2 UNK        -0.5000 
     65 C           3.8339  -10.4602  -47.4167 C.2       1 UNK         0.5000 
     66 O           3.0589  -10.9309  -46.5862 O.2       1 UNK        -0.5000 
     67 C          -2.3096  -21.6508  -47.4064 C.2       11 UNK         0.5000 
     68 O          -2.5155  -22.1900  -48.4926 O.2       11 UNK        -0.5000 
     69 N          -3.1397  -21.7508  -46.3583 N.am      12 UNK        -0.5000 
     70 CA         -4.4026  -22.4895  -46.3589 C.3       12 UNK         0.1400 
     71 CB         -5.1593  -22.1892  -45.0563 C.3       12 UNK        -0.1800 
     72 C          -4.2481  -24.0118  -46.5489 C.2       12 UNK         0.5000 
     73 O          -5.1943  -24.6494  -47.0086 O.2       12 UNK        -0.5000 
     74 N          -3.0847  -24.5693  -46.1857 N.am      13 UNK        -0.5000 
     75 CA         -2.7418  -25.9766  -46.3936 C.3       13 UNK         0.1400 
     76 CB         -1.7534  -26.4222  -45.3051 C.3       13 UNK        -0.1800 
     77 C          -2.1548  -26.2259  -47.7954 C.2       13 UNK         0.5000 
     78 O          -2.4138  -27.2764  -48.3853 O.2       13 UNK        -0.5000 
     79 N          -1.3775  -25.2617  -48.3042 N.am      14 UNK        -0.5000 
     80 CA         -0.7665  -25.2727  -49.6326 C.3       14 UNK         0.1400 
     81 CB          0.2487  -24.1208  -49.7147 C.3       14 UNK        -0.1800 
     82 C          -1.7993  -25.1664  -50.7718 C.2       14 UNK         0.5000 
     83 O          -2.9547  -24.8049  -50.5389 O.2       14 UNK        -0.5000 
     84 N          -1.3487  -25.4794  -51.9959 N.am      15 UNK        -0.5000 
     85 CA         -2.1072  -25.4186  -53.2525 C.3       15 UNK         0.1400 
     86 CB         -2.4022  -23.9531  -53.6321 C.3       15 UNK        -0.1800 
     87 C          -3.3738  -26.2990  -53.2237 C.2       15 UNK         0.5000 
     88 O          -4.4634  -25.8319  -53.5598 O.2       15 UNK        -0.5000 
     89 N          -3.1954  -27.5519  -52.7753 N.am      16 UNK        -0.5000 
     90 CA         -4.2292  -28.5767  -52.5810 C.3       16 UNK         0.1400 
     91 CB         -4.7714  -29.0664  -53.9399 C.3       16 UNK        -0.1800 
     92 C          -5.3383  -28.1190  -51.6095 C.2       16 UNK         0.5000 
     93 O          -6.5241  -28.3051  -51.8860 O.2       16 UNK        -0.5000 
     94 N          -4.9100  -27.5107  -50.4941 N.am      17 UNK        -0.5000 
     95 CA         -5.7271  -26.8643  -49.4662 C.3       17 UNK         0.1400 
     96 CB         -6.6105  -27.8879  -48.7222 C.3       17 UNK        -0.1800 
     97 C          -6.5083  -25.6556  -50.0218 C.2       17 UNK         0.5000 
     98 O          -7.7303  -25.5837  -49.8728 O.2       17 UNK        -0.5000 
     99 N          -5.7695  -24.7362  -50.6616 N.am      18 UNK        -0.5000 
    100 CA        -6.2254  -23.4774  -51.2570 C.3       18 UNK         0.1400 
    101 CB        -6.6360  -22.4890  -50.1461 C.3       18 UNK        -0.1800 
    102 C         -7.3131  -23.6734  -52.3351 C.2       18 UNK         0.5000 
    103 O         -8.3367  -22.9854  -52.3216 O.2       18 UNK        -0.5000 
    104 N         -7.0816  -24.6237  -53.2509 N.am      19 UNK        -0.5000 
    105 CA        -7.9867  -24.9766  -54.3442 C.3       19 UNK         0.1400 
    106 CB        -7.6183  -26.3752  -54.8671 C.3       19 UNK        -0.1800 
    107 C         -7.9481  -23.9122  -55.4574 C.2       19 UNK         0.5000 
    108 O         -7.1935  -24.0577  -56.4209 O.2       19 UNK        -0.5000 
    109 N         -8.7420  -22.8457  -55.2760 N.am      20 UNK        -0.5000 
    110 CA        -8.8190  -21.6426  -56.1168 C.3       20 UNK         0.1400 
    111 CB        -9.3996  -21.9747  -57.5076 C.3       20 UNK        -0.1800 
    112 C         -7.4677  -20.8983  -56.1794 C.2       20 UNK         0.5000 
    113 O         -7.0265  -20.4772  -57.2507 O.2       20 UNK        -0.5000 
    114 N         -6.8260  -20.7812  -55.0136 N.am      21 UNK        -0.5000 
    115 CA        -5.4908  -20.2354  -54.8093 C.3       21 UNK         0.1400 
    116 CB        -4.4523  -21.3293  -55.1208 C.3       21 UNK        -0.1800 
    117 C         -5.3755  -19.7482  -53.3568 C.2       21 UNK         0.5000 
    118 O         -6.3135  -19.9252  -52.5755 O.2       21 UNK        -0.5000 
    119 N         -4.2275  -19.1505  -53.0192 N.am      22 UNK        -0.5000 
    120 CA        -3.8975  -18.6829  -51.6622 C.3       22 UNK         0.1400 
    121 C         -3.8010  -19.8020  -50.5890 C.2       22 UNK         0.5000 
    122 N         -3.3950  -21.0161  -50.9368 N.am      22 UNK        -0.7600 
    123 O         -4.0751  -19.5466  -49.4203 O.2       22 UNK        -0.5000 
    124 C124       -2.5907  -17.8513  -51.6544 C.3       23 UNK        -0.0398 
    125 S125       -2.8279  -16.1737  -52.3261 S.3       23 UNK        -0.2404 
    126 C126       -3.0362  -15.2053  -50.7938 C.3       23 UNK        -0.0205 
    127 H127        8.5302  -10.5582  -48.7334 H         1 UNK         0.0600 
    128 H128        7.7517  -10.7462  -50.3081 H         1 UNK         0.0600 
    129 H129        8.4039  -12.1585  -49.4713 H         1 UNK         0.0600 
    130 H130        5.5233  -10.6409  -50.1758 H         1 UNK         0.3000 
    131 H131        4.0053  -12.2799  -48.4835 H         1 UNK         0.0600 
    132 H132        3.3248  -11.3229  -50.7786 H         1 UNK         0.0800 
    133 H133        2.8744   -9.8604  -49.9475 H         1 UNK         0.0800 
    134 H134        2.5676  -13.7815  -49.7035 H         1 UNK         0.0800 
    135 H135        1.6753  -13.3421  -51.1407 H         1 UNK         0.0800 
    136 H136       -0.7972  -13.7300  -51.2569 H         1 UNK         0.1150 
    137 H137       -2.4507  -16.5521  -48.4831 H         1 UNK         0.1150 
    138 H138        1.5063  -15.0216  -47.8781 H         1 UNK         0.1150 
    139 H139        0.3570  -16.2351  -46.0869 H         1 UNK         0.0800 
    140 H140       -1.2854  -16.7695  -46.2769 H         1 UNK         0.0800 
    141 H141       -1.6539  -19.1107  -48.2763 H         1 UNK         0.0800 
    142 H142       -1.9431  -19.0136  -46.5554 H         1 UNK         0.0800 
    143 H143       -0.3091  -21.1723  -47.9741 H         1 UNK         0.0600 
    144 H144       -0.2167  -20.5326  -45.2248 H         1 UNK         0.3000 
    145 H145        0.5084  -23.8293  -43.9882 H         1 UNK         0.0600 
    146 H146        2.3902  -22.4684  -43.0288 H         1 UNK         0.0600 
    147 H147        2.6686  -22.9265  -44.7021 H         1 UNK         0.0600 
    148 H148        2.1825  -21.2847  -44.3194 H         1 UNK         0.0600 
    149 H149        0.0541  -21.1423  -42.9190 H         1 UNK         0.3000 
    150 H150       -3.3314  -21.7390  -42.0394 H         1 UNK         0.0600 
    151 H151       -2.1750  -22.9815  -40.2055 H         1 UNK         0.0600 
    152 H152       -2.5761  -21.3449  -39.7105 H         1 UNK         0.0600 
    153 H153       -0.9166  -21.7529  -40.1490 H         1 UNK         0.0600 
    154 H154       -1.5041  -19.6584  -41.3320 H         1 UNK         0.3000 
    155 H155       -1.7755  -17.7423  -44.2999 H         1 UNK         0.0600 
    156 H156       -3.8933  -17.2059  -43.0788 H         1 UNK         0.0600 
    157 H157       -2.6443  -16.0105  -42.7697 H         1 UNK         0.0600 
    158 H158       -3.0209  -17.2279  -41.5501 H         1 UNK         0.0600 
    159 H159       -0.5278  -17.0023  -41.9348 H         1 UNK         0.3000 
    160 H160        1.8158  -18.3384  -41.1933 H         1 UNK         0.0600 
    161 H161        4.0264  -18.0197  -42.3522 H         1 UNK         0.0600 
    162 H162        3.2005  -18.0718  -43.9093 H         1 UNK         0.0600 
    163 H163        3.1961  -19.4812  -42.8582 H         1 UNK         0.0600 
    164 H164        2.2154  -15.9561  -42.9216 H         1 UNK         0.3000 
    165 H165        0.6554  -13.7628  -40.6901 H         1 UNK         0.0600 
    166 H166        2.8431  -12.5872  -40.3946 H         1 UNK         0.0600 
    167 H167        2.7000  -13.9579  -39.3044 H         1 UNK         0.0600 
    168 H168        3.7027  -14.0872  -40.7432 H         1 UNK         0.0600 
    169 H169        2.5555  -13.4008  -42.8416 H         1 UNK         0.3000 
    170 H170        0.3724  -13.9855  -45.5046 H         1 UNK         0.0600 
    171 H171       -0.5960  -11.7654  -44.8290 H         1 UNK         0.0600 
    172 H172        1.0345  -11.1491  -44.5795 H         1 UNK         0.0600 
    173 H173        0.5054  -11.6461  -46.1885 H         1 UNK         0.0600 
    174 H174        2.8024  -12.5752  -45.5509 H         1 UNK         0.3000 
    175 H175        5.0645  -15.2439  -44.9271 H         1 UNK         0.0600 
    176 H176        5.8397  -14.8323  -47.2953 H         1 UNK         0.0600 
    177 H177        4.4857  -15.9463  -47.1785 H         1 UNK         0.0600 
    178 H178        4.2078  -14.2994  -47.7023 H         1 UNK         0.0600 
    179 H179        5.6623  -12.7627  -46.0665 H         1 UNK         0.3000 
    180 H180        6.0770  -11.0158  -42.9316 H         1 UNK         0.0600 
    181 H181        7.9306  -12.1742  -45.0801 H         1 UNK         0.0600 
    182 H182        8.0217  -12.5015  -43.3536 H         1 UNK         0.0600 
    183 H183        8.3295  -10.8792  -43.9540 H         1 UNK         0.0600 
    184 H184        6.1119  -10.6464  -45.8947 H         1 UNK         0.3000 
    185 H185        3.5467   -8.2460  -45.7648 H         1 UNK         0.0600 
    186 H186        5.4752   -6.7428  -45.2244 H         1 UNK         0.0600 
    187 H187        6.4951   -7.6319  -46.3494 H         1 UNK         0.0600 
    188 H188        5.1071   -6.7171  -46.9412 H         1 UNK         0.0600 
    189 H189        5.1906   -9.0452  -47.9262 H         1 UNK         0.3000 
    190 H190       -2.9196  -21.2395  -45.5072 H         1 UNK         0.3000 
    191 H191       -5.0001  -22.1165  -47.1927 H         1 UNK         0.0600 
    192 H192       -4.5915  -22.5084  -44.1817 H         1 UNK         0.0600 
    193 H193       -6.1198  -22.7056  -45.0323 H         1 UNK         0.0600 
    194 H194       -5.3619  -21.1229  -44.9544 H         1 UNK         0.0600 
    195 H195       -2.3638  -23.9769  -45.7975 H         1 UNK         0.3000 
    196 H196       -3.6429  -26.5860  -46.2959 H         1 UNK         0.0600 
    197 H197       -1.5018  -27.4778  -45.4153 H         1 UNK         0.0600 
    198 H198       -2.1787  -26.2904  -44.3100 H         1 UNK         0.0600 
    199 H199       -0.8222  -25.8566  -45.3467 H         1 UNK         0.0600 
    200 H200       -1.2028  -24.4357  -47.7432 H         1 UNK         0.3000 
    201 H201       -0.2323  -26.2180  -49.7463 H         1 UNK         0.0600 
    202 H202        0.9960  -24.1960  -48.9245 H         1 UNK         0.0600 
    203 H203       -0.2388  -23.1501  -49.6217 H         1 UNK         0.0600 
    204 H204        0.7830  -24.1282  -50.6652 H         1 UNK         0.0600 
    205 H205       -0.3863  -25.7736  -52.0882 H         1 UNK         0.3000 
    206 H206       -1.4623  -25.8349  -54.0277 H         1 UNK         0.0600 
    207 H207       -1.4888  -23.3590  -53.6562 H         1 UNK         0.0600 
    208 H208       -2.8530  -23.8948  -54.6233 H         1 UNK         0.0600 
    209 H209       -3.0896  -23.4832  -52.9285 H         1 UNK         0.0600 
    210 H210       -2.2605  -27.8210  -52.5026 H         1 UNK         0.3000 
    211 H211       -3.7386  -29.4246  -52.1008 H         1 UNK         0.0600 
    212 H212       -5.2984  -28.2772  -54.4747 H         1 UNK         0.0600 
    213 H213       -5.4690  -29.8943  -53.8081 H         1 UNK         0.0600 
    214 H214       -3.9644  -29.4223  -54.5802 H         1 UNK         0.0600 
    215 H215       -3.9127  -27.3967  -50.3706 H         1 UNK         0.3000 
    216 H216       -5.0188  -26.4661  -48.7429 H         1 UNK         0.0600 
    217 H217       -7.1162  -27.4173  -47.8783 H         1 UNK         0.0600 
    218 H218       -6.0128  -28.7084  -48.3256 H         1 UNK         0.0600 
    219 H219       -7.3798  -28.3120  -49.3677 H         1 UNK         0.0600 
    220 H220       -4.7618  -24.8838  -50.7040 H         1 UNK         0.3000 
    221 H221       -5.3631  -23.0522  -51.7719 H         1 UNK         0.0600 
    222 H222       -7.4902  -22.8509  -49.5737 H         1 UNK         0.0600 
    223 H223       -5.8122  -22.3203  -49.4531 H         1 UNK         0.0600 
    224 H224       -6.9082  -21.5188  -50.5609 H         1 UNK         0.0600 
    225 H225       -6.1913  -25.1170  -53.2324 H         1 UNK         0.3000 
    226 H226       -9.0055  -25.0293  -53.9544 H         1 UNK         0.0600 
    227 H227       -8.2833  -26.6769  -55.6770 H         1 UNK         0.0600 
    228 H228       -6.5980  -26.4058  -55.2508 H         1 UNK         0.0600 
    229 H229       -7.7023  -27.1244  -54.0802 H         1 UNK         0.0600 
    230 H230       -9.2565  -22.8009  -54.4047 H         1 UNK         0.3000 
    231 H231       -9.5174  -20.9655  -55.6230 H         1 UNK         0.0600 
    232 H232      -10.3563  -22.4899  -57.4223 H         1 UNK         0.0600 
    233 H233       -8.7286  -22.6071  -58.0894 H         1 UNK         0.0600 
    234 H234       -9.5718  -21.0654  -58.0845 H         1 UNK         0.0600 
    235 H235       -7.2820  -21.0818  -54.1606 H         1 UNK         0.3000 
    236 H236       -5.3388  -19.3776  -55.4675 H         1 UNK         0.0600 
    237 H237       -4.5219  -21.6564  -56.1584 H         1 UNK         0.0600 
    238 H238       -3.4324  -20.9774  -54.9634 H         1 UNK         0.0600 
    239 H239       -4.6055  -22.2045  -54.4888 H         1 UNK         0.0600 
    240 H240       -3.5120  -19.0232  -53.7194 H         1 UNK         0.3000 
    241 H241       -4.7147  -18.0347  -51.3387 H         1 UNK         0.0600 
    242 H242       -3.2529  -21.6950  -50.1936 H         1 UNK         0.3800 
    243 H243       -3.1388  -21.2343  -51.8839 H         1 UNK         0.3800 
    244 H244       -2.1765  -17.7717  -50.6502 H         1 UNK         0.0800 
    245 H245       -1.8171  -18.3527  -52.2379 H         1 UNK         0.0800 
    246 H246       -3.3359  -14.1899  -51.0571 H         1 UNK         0.0800 
    247 H247       -3.8586  -15.6232  -50.2109 H         1 UNK         0.0800 
@<TRIPOS>BOND
     1    1    2 1    
     2    1  127 1    
     3    1  128 1    
     4    1  129 1    
     5    2    3 2    
     6    2    4 am   BACKBONE|DICT|INTERRES
     7    4    5 1    
     8    4  130 1    
     9    5    6 1    
    10    5   65 1    
    11    5  131 1    
    12    6    7 1    
    13    6  132 1    
    14    6  133 1    
    15    7    8 1    
    16    8    9 1    
    17    8  134 1    
    18    8  135 1    
    19    9   10 ar   
    20    9   14 ar   
    21   10   11 ar   
    22   10  136 1    
    23   11   12 ar   
    24   11  126 1    
    25   12   13 ar   
    26   12  137 1    
    27   13   14 ar   
    28   13   15 1    
    29   14  138 1    
    30   15   16 1    
    31   15  139 1    
    32   15  140 1    
    33   16   17 1    
    34   17   18 1    
    35   17  141 1    
    36   17  142 1    
    37   18   19 1    
    38   18   67 1    
    39   18  143 1    
    40   19   20 am   BACKBONE|DICT|INTERRES
    41   19  144 1    
    42   20   21 2    
    43   20   22 1    
    44   22   23 1    
    45   22   24 1    
    46   22  145 1    
    47   23  146 1    
    48   23  147 1    
    49   23  148 1    
    50   24   25 am   BACKBONE|DICT|INTERRES
    51   24  149 1    
    52   25   26 2    
    53   25   27 1    
    54   27   28 1    
    55   27   29 1    
    56   27  150 1    
    57   28  151 1    
    58   28  152 1    
    59   28  153 1    
    60   29   30 am   BACKBONE|DICT|INTERRES
    61   29  154 1    
    62   30   31 2    
    63   30   32 1    
    64   32   33 1    
    65   32   34 1    
    66   32  155 1    
    67   33  156 1    
    68   33  157 1    
    69   33  158 1    
    70   34   35 am   BACKBONE|DICT|INTERRES
    71   34  159 1    
    72   35   36 2    
    73   35   37 1    
    74   37   38 1    
    75   37   39 1    
    76   37  160 1    
    77   38  161 1    
    78   38  162 1    
    79   38  163 1    
    80   39   40 am   BACKBONE|DICT|INTERRES
    81   39  164 1    
    82   40   41 2    
    83   40   42 1    
    84   42   43 1    
    85   42   44 1    
    86   42  165 1    
    87   43  166 1    
    88   43  167 1    
    89   43  168 1    
    90   44   45 am   BACKBONE|DICT|INTERRES
    91   44  169 1    
    92   45   46 2    
    93   45   47 1    
    94   47   48 1    
    95   47   49 1    
    96   47  170 1    
    97   48  171 1    
    98   48  172 1    
    99   48  173 1    
   100   49   50 am   BACKBONE|DICT|INTERRES
   101   49  174 1    
   102   50   51 2    
   103   50   52 1    
   104   52   53 1    
   105   52   54 1    
   106   52  175 1    
   107   53  176 1    
   108   53  177 1    
   109   53  178 1    
   110   54   55 am   BACKBONE|DICT|INTERRES
   111   54  179 1    
   112   55   56 2    
   113   55   57 1    
   114   57   58 1    
   115   57   59 1    
   116   57  180 1    
   117   58  181 1    
   118   58  182 1    
   119   58  183 1    
   120   59   60 am   BACKBONE|DICT|INTERRES
   121   59  184 1    
   122   60   61 2    
   123   60   62 1    
   124   62   63 1    
   125   62   64 1    
   126   62  185 1    
   127   63  186 1    
   128   63  187 1    
   129   63  188 1    
   130   64   65 am   BACKBONE|DICT|INTERRES
   131   64  189 1    
   132   65   66 2    
   133   67   68 2    
   134   67   69 am   BACKBONE|DICT|INTERRES
   135   69   70 1    
   136   69  190 1    
   137   70   71 1    
   138   70   72 1    
   139   70  191 1    
   140   71  192 1    
   141   71  193 1    
   142   71  194 1    
   143   72   73 2    
   144   72   74 am   BACKBONE|DICT|INTERRES
   145   74   75 1    
   146   74  195 1    
   147   75   76 1    
   148   75   77 1    
   149   75  196 1    
   150   76  197 1    
   151   76  198 1    
   152   76  199 1    
   153   77   78 2    
   154   77   79 am   BACKBONE|DICT|INTERRES
   155   79   80 1    
   156   79  200 1    
   157   80   81 1    
   158   80   82 1    
   159   80  201 1    
   160   81  202 1    
   161   81  203 1    
   162   81  204 1    
   163   82   83 2    
   164   82   84 am   BACKBONE|DICT|INTERRES
   165   84   85 1    
   166   84  205 1    
   167   85   86 1    
   168   85   87 1    
   169   85  206 1    
   170   86  207 1    
   171   86  208 1    
   172   86  209 1    
   173   87   88 2    
   174   87   89 am   BACKBONE|DICT|INTERRES
   175   89   90 1    
   176   89  210 1    
   177   90   91 1    
   178   90   92 1    
   179   90  211 1    
   180   91  212 1    
   181   91  213 1    
   182   91  214 1    
   183   92   93 2    
   184   92   94 am   BACKBONE|DICT|INTERRES
   185   94   95 1    
   186   94  215 1    
   187   95   96 1    
   188   95   97 1    
   189   95  216 1    
   190   96  217 1    
   191   96  218 1    
   192   96  219 1    
   193   97   98 2    
   194   97   99 am   BACKBONE|DICT|INTERRES
   195   99  100 1    
   196   99  220 1    
   197  100  101 1    
   198  100  102 1    
   199  100  221 1    
   200  101  222 1    
   201  101  223 1    
   202  101  224 1    
   203  102  103 2    
   204  102  104 am   BACKBONE|DICT|INTERRES
   205  104  105 1    
   206  104  225 1    
   207  105  106 1    
   208  105  107 1    
   209  105  226 1    
   210  106  227 1    
   211  106  228 1    
   212  106  229 1    
   213  107  108 2    
   214  107  109 am   BACKBONE|DICT|INTERRES
   215  109  110 1    
   216  109  230 1    
   217  110  111 1    
   218  110  112 1    
   219  110  231 1    
   220  111  232 1    
   221  111  233 1    
   222  111  234 1    
   223  112  113 2    
   224  112  114 am   BACKBONE|DICT|INTERRES
   225  114  115 1    
   226  114  235 1    
   227  115  116 1    
   228  115  117 1    
   229  115  236 1    
   230  116  237 1    
   231  116  238 1    
   232  116  239 1    
   233  117  118 2    
   234  117  119 am   BACKBONE|DICT|INTERRES
   235  119  120 1    
   236  119  240 1    
   237  120  121 1    
   238  120  124 1    
   239  120  241 1    
   240  121  122 am   BACKBONE|DICT|INTERRES
   241  121  123 2    
   242  122  242 1    
   243  122  243 1    
   244  124  125 1    
   245  124  244 1    
   246  124  245 1    
   247  125  126 1    
   248  126  246 1    
   249  126  247 1    
@<TRIPOS>SUBSTRUCTURE
     1 UNK         1 GROUP             0       ****    0 ROOT    
