@<TRIPOS>MOLECULE
3R540
247   249    1
SMALL
USER_CHARGES


@<TRIPOS>ATOM
      1 CA          3.6163  -14.5149  -46.4403 C.3       0 UNK        -0.1800 
      2 C           2.1447  -14.4054  -46.0772 C.2       0 UNK         0.5000 
      3 O           1.6576  -15.1933  -45.2666 O.2       0 UNK        -0.5000 
      4 N           1.4308  -13.4620  -46.7025 N.am      1 UNK        -0.5000 
      5 CA         -0.0024  -13.2168  -46.4836 C.3       1 UNK         0.1400 
      6 C6         -0.6838  -12.6056  -47.7313 C.3       23 UNK        -0.0398 
      7 S7         -0.7793  -13.8188  -49.0893 S.3       23 UNK        -0.2404 
      8 C8         -2.5277  -14.3138  -48.9703 C.3       23 UNK        -0.0205 
      9 C9         -2.8084  -15.5946  -49.7414 C.ar      23 UNK        -0.0193 
     10 C10        -2.7460  -15.6060  -51.1386 C.ar      23 UNK        -0.1150 
     11 C11        -2.9876  -16.7863  -51.8460 C.ar      23 UNK        -0.0193 
     12 C12        -3.3096  -17.9507  -51.1480 C.ar      23 UNK        -0.1150 
     13 C13        -3.4144  -17.9517  -49.7557 C.ar      23 UNK        -0.0193 
     14 C14        -3.1433  -16.7684  -49.0572 C.ar      23 UNK        -0.1150 
     15 C15        -3.7765  -19.2599  -49.0550 C.3       23 UNK        -0.0205 
     16 S16        -4.6423  -19.0754  -47.4552 S.3       23 UNK        -0.2404 
     17 C17        -4.9815  -20.8248  -47.0673 C.3       23 UNK        -0.0398 
     18 CA         -3.7287  -21.5870  -46.5677 C.3       11 UNK         0.1400 
     19 N          -3.2175  -21.0745  -45.2880 N.am      11 UNK        -0.5000 
     20 C          -2.0362  -21.3783  -44.7306 C.2       10 UNK         0.5000 
     21 O          -1.2796  -22.2424  -45.1782 O.2       10 UNK        -0.5000 
     22 CA         -1.6405  -20.5705  -43.4757 C.3       10 UNK         0.1400 
     23 CB         -0.4267  -21.1729  -42.7464 C.3       10 UNK        -0.1800 
     24 N          -1.3307  -19.1894  -43.8345 N.am      10 UNK        -0.5000 
     25 C          -2.2293  -18.2568  -44.1767 C.2       9 UNK         0.5000 
     26 O          -3.4458  -18.4054  -44.0495 O.2       9 UNK        -0.5000 
     27 CA         -1.6804  -16.9594  -44.8009 C.3       9 UNK         0.1400 
     28 CB         -1.4302  -15.9184  -43.7000 C.3       9 UNK        -0.1800 
     29 N          -0.4533  -17.1527  -45.5838 N.am      9 UNK        -0.5000 
     30 C          -0.3323  -17.9644  -46.6489 C.2       8 UNK         0.5000 
     31 O          -1.2467  -18.6580  -47.0848 O.2       8 UNK        -0.5000 
     32 CA          1.0394  -18.0524  -47.3327 C.3       8 UNK         0.1400 
     33 CB          1.1578  -17.0091  -48.4533 C.3       8 UNK        -0.1800 
     34 N           2.1246  -17.8824  -46.3653 N.am      8 UNK        -0.5000 
     35 C           2.9049  -18.8812  -45.9345 C.2       7 UNK         0.5000 
     36 O           2.8549  -20.0306  -46.3745 O.2       7 UNK        -0.5000 
     37 CA          3.9186  -18.5592  -44.8201 C.3       7 UNK         0.1400 
     38 CB          5.2657  -18.1407  -45.4292 C.3       7 UNK        -0.1800 
     39 N           3.5026  -17.5415  -43.8523 N.am      7 UNK        -0.5000 
     40 C           2.3989  -17.5588  -43.0950 C.2       6 UNK         0.5000 
     41 O           1.4929  -18.3819  -43.2334 O.2       6 UNK        -0.5000 
     42 CA          2.2670  -16.4928  -41.9850 C.3       6 UNK         0.1400 
     43 CB          2.4397  -17.1348  -40.5960 C.3       6 UNK        -0.1800 
     44 N           3.1094  -15.2946  -42.1026 N.am      6 UNK        -0.5000 
     45 C           4.4438  -15.1734  -42.0529 C.2       5 UNK         0.5000 
     46 O           5.2237  -16.1245  -42.0204 O.2       5 UNK        -0.5000 
     47 CA          4.9963  -13.7393  -42.0207 C.3       5 UNK         0.1400 
     48 CB          4.9351  -13.0865  -43.4102 C.3       5 UNK        -0.1800 
     49 N           4.2531  -12.9177  -41.0664 N.am      5 UNK        -0.5000 
     50 C           4.5684  -12.7865  -39.7701 C.2       4 UNK         0.5000 
     51 O           5.5508  -13.3158  -39.2489 O.2       4 UNK        -0.5000 
     52 CA          3.6431  -11.9065  -38.9055 C.3       4 UNK         0.1400 
     53 CB          4.2029  -10.4790  -38.8061 C.3       4 UNK        -0.1800 
     54 N           2.2735  -11.8421  -39.4156 N.am      4 UNK        -0.5000 
     55 C           1.3748  -12.8306  -39.3117 C.2       3 UNK         0.5000 
     56 O           1.5803  -13.8811  -38.7038 O.2       3 UNK        -0.5000 
     57 CA          0.0255  -12.6187  -40.0285 C.3       3 UNK         0.1400 
     58 CB         -1.0218  -12.0650  -39.0506 C.3       3 UNK        -0.1800 
     59 N           0.1010  -11.7378  -41.2010 N.am      3 UNK        -0.5000 
     60 C           0.8189  -11.9999  -42.3000 C.2       2 UNK         0.5000 
     61 O           1.5550  -12.9820  -42.4145 O.2       2 UNK        -0.5000 
     62 CA          0.7546  -10.9739  -43.4424 C.3       2 UNK         0.1400 
     63 CB          1.9559  -10.0191  -43.3659 C.3       2 UNK        -0.1800 
     64 N           0.7737  -11.6614  -44.7314 N.am      2 UNK        -0.5000 
     65 C          -0.2606  -12.3503  -45.2329 C.2       1 UNK         0.5000 
     66 O          -1.3884  -12.3329  -44.7380 O.2       1 UNK        -0.5000 
     67 C          -3.9557  -23.1127  -46.6231 C.2       11 UNK         0.5000 
     68 O          -4.1793  -23.6355  -47.7147 O.2       11 UNK        -0.5000 
     69 N          -3.8152  -23.8238  -45.4961 N.am      12 UNK        -0.5000 
     70 CA         -3.6764  -25.2820  -45.4472 C.3       12 UNK         0.1400 
     71 CB         -3.5941  -25.7318  -43.9816 C.3       12 UNK        -0.1800 
     72 C          -2.4543  -25.7944  -46.2424 C.2       12 UNK         0.5000 
     73 O          -2.5214  -26.8796  -46.8194 O.2       12 UNK        -0.5000 
     74 N          -1.3906  -24.9780  -46.3261 N.am      13 UNK        -0.5000 
     75 CA         -0.2175  -25.2133  -47.1746 C.3       13 UNK         0.1400 
     76 CB          0.9005  -24.2431  -46.7634 C.3       13 UNK        -0.1800 
     77 C          -0.5194  -25.0768  -48.6829 C.2       13 UNK         0.5000 
     78 O           0.2128  -25.6356  -49.4993 O.2       13 UNK        -0.5000 
     79 N          -1.6036  -24.3661  -49.0211 N.am      14 UNK        -0.5000 
     80 CA         -2.1557  -24.2188  -50.3680 C.3       14 UNK         0.1400 
     81 CB         -2.5181  -22.7392  -50.5923 C.3       14 UNK        -0.1800 
     82 C          -3.3858  -25.1306  -50.5630 C.2       14 UNK         0.5000 
     83 O          -4.2171  -24.8493  -51.4286 O.2       14 UNK        -0.5000 
     84 N          -3.5163  -26.1707  -49.7213 N.am      15 UNK        -0.5000 
     85 CA         -4.5781  -27.1858  -49.6903 C.3       15 UNK         0.1400 
     86 CB         -4.4935  -28.0707  -50.9516 C.3       15 UNK        -0.1800 
     87 C          -5.9995  -26.6180  -49.4764 C.2       15 UNK         0.5000 
     88 O          -6.9767  -27.2857  -49.8176 O.2       15 UNK        -0.5000 
     89 N          -6.0886  -25.3815  -48.9606 N.am      16 UNK        -0.5000 
     90 CA         -7.2766  -24.5235  -48.8750 C.3       16 UNK         0.1400 
     91 CB         -8.3321  -25.1286  -47.9275 C.3       16 UNK        -0.1800 
     92 C          -7.8665  -24.1298  -50.2511 C.2       16 UNK         0.5000 
     93 O          -8.9722  -23.5891  -50.3031 O.2       16 UNK        -0.5000 
     94 N          -7.1238  -24.3864  -51.3374 N.am      17 UNK        -0.5000 
     95 CA         -7.5108  -24.0915  -52.7156 C.3       17 UNK         0.1400 
     96 CB         -6.9552  -25.1952  -53.6295 C.3       17 UNK        -0.1800 
     97 C          -6.9976  -22.7175  -53.1750 C.2       17 UNK         0.5000 
     98 O          -7.5634  -22.1490  -54.1096 O.2       17 UNK        -0.5000 
     99 N          -5.9289  -22.2222  -52.5299 N.am      18 UNK        -0.5000 
    100 CA        -5.2182  -20.9545  -52.7502 C.3       18 UNK         0.1400 
    101 CB        -6.1500  -19.7391  -52.5752 C.3       18 UNK        -0.1800 
    102 C         -4.4485  -20.8941  -54.0831 C.2       18 UNK         0.5000 
    103 O         -3.2442  -20.6311  -54.0848 O.2       18 UNK        -0.5000 
    104 N         -5.1381  -21.1974  -55.1887 N.am      19 UNK        -0.5000 
    105 CA        -4.5986  -21.2743  -56.5478 C.3       19 UNK         0.1400 
    106 CB        -5.7567  -21.4932  -57.5317 C.3       19 UNK        -0.1800 
    107 C         -3.5270  -22.3674  -56.7232 C.2       19 UNK         0.5000 
    108 O         -2.6777  -22.2439  -57.6045 O.2       19 UNK        -0.5000 
    109 N         -3.5498  -23.3902  -55.8567 N.am      20 UNK        -0.5000 
    110 CA        -2.5309  -24.4379  -55.7741 C.3       20 UNK         0.1400 
    111 CB        -3.0073  -25.5233  -54.7978 C.3       20 UNK        -0.1800 
    112 C         -1.1420  -23.9091  -55.3591 C.2       20 UNK         0.5000 
    113 O         -0.1371  -24.5203  -55.7243 O.2       20 UNK        -0.5000 
    114 N         -1.1082  -22.7879  -54.6242 N.am      21 UNK        -0.5000 
    115 CA         0.1158  -22.0794  -54.2599 C.3       21 UNK         0.1400 
    116 CB         0.0176  -21.5926  -52.8053 C.3       21 UNK        -0.1800 
    117 C          0.3724  -20.9013  -55.2123 C.2       21 UNK         0.5000 
    118 O          1.4880  -20.7660  -55.7167 O.2       21 UNK        -0.5000 
    119 N         -0.6505  -20.0630  -55.4261 N.am      22 UNK        -0.5000 
    120 CA        -0.5284  -18.7940  -56.1661 C.3       22 UNK         0.1400 
    121 C         -0.5910  -18.9137  -57.7157 C.2       22 UNK         0.5000 
    122 N         -0.9780  -20.0408  -58.2968 N.am      22 UNK        -0.7600 
    123 O         -0.2629  -17.9583  -58.4141 O.2       22 UNK        -0.5000 
    124 C124       -1.5252  -17.7286  -55.6459 C.3       23 UNK        -0.0398 
    125 S125       -1.2349  -17.3397  -53.8869 S.3       23 UNK        -0.2404 
    126 C126       -2.8947  -16.8237  -53.3615 C.3       23 UNK        -0.0205 
    127 H127        4.1768  -14.9544  -45.6162 H         1 UNK         0.0600 
    128 H128        3.7398  -15.1555  -47.3134 H         1 UNK         0.0600 
    129 H129        4.0445  -13.5372  -46.6616 H         1 UNK         0.0600 
    130 H130        1.8781  -12.8735  -47.3912 H         1 UNK         0.3000 
    131 H131       -0.4879  -14.1753  -46.2874 H         1 UNK         0.0600 
    132 H132       -0.1368  -11.7282  -48.0798 H         1 UNK         0.0800 
    133 H133       -1.6930  -12.2574  -47.5021 H         1 UNK         0.0800 
    134 H134       -3.1584  -13.5112  -49.3553 H         1 UNK         0.0800 
    135 H135       -2.7947  -14.4424  -47.9200 H         1 UNK         0.0800 
    136 H136       -2.4883  -14.7015  -51.6716 H         1 UNK         0.1150 
    137 H137       -3.4663  -18.8648  -51.6990 H         1 UNK         0.1150 
    138 H138       -3.1844  -16.7611  -47.9777 H         1 UNK         0.1150 
    139 H139       -2.8548  -19.8223  -48.9085 H         1 UNK         0.0800 
    140 H140       -4.4080  -19.8597  -49.7114 H         1 UNK         0.0800 
    141 H141       -5.3971  -21.2855  -47.9657 H         1 UNK         0.0800 
    142 H142       -5.7724  -20.8657  -46.3167 H         1 UNK         0.0800 
    143 H143       -2.9296  -21.4146  -47.2900 H         1 UNK         0.0600 
    144 H144       -3.7298  -20.2956  -44.8883 H         1 UNK         0.3000 
    145 H145       -2.4877  -20.5806  -42.7870 H         1 UNK         0.0600 
    146 H146       -0.1952  -20.6132  -41.8399 H         1 UNK         0.0600 
    147 H147       -0.6183  -22.2056  -42.4529 H         1 UNK         0.0600 
    148 H148        0.4645  -21.1676  -43.3758 H         1 UNK         0.0600 
    149 H149       -0.3459  -18.9623  -43.9314 H         1 UNK         0.3000 
    150 H150       -2.4386  -16.5684  -45.4820 H         1 UNK         0.0600 
    151 H151       -0.7965  -16.3202  -42.9114 H         1 UNK         0.0600 
    152 H152       -2.3688  -15.6130  -43.2362 H         1 UNK         0.0600 
    153 H153       -0.9519  -15.0212  -44.0879 H         1 UNK         0.0600 
    154 H154        0.3456  -16.5922  -45.3057 H         1 UNK         0.3000 
    155 H155        1.0995  -19.0360  -47.8031 H         1 UNK         0.0600 
    156 H156        1.0100  -15.9972  -48.0834 H         1 UNK         0.0600 
    157 H157        0.4027  -17.1810  -49.2219 H         1 UNK         0.0600 
    158 H158        2.1334  -17.0542  -48.9370 H         1 UNK         0.0600 
    159 H159        2.1975  -16.9791  -45.9100 H         1 UNK         0.3000 
    160 H160        4.0751  -19.4811  -44.2567 H         1 UNK         0.0600 
    161 H161        5.1827  -17.2065  -45.9851 H         1 UNK         0.0600 
    162 H162        5.6364  -18.9004  -46.1186 H         1 UNK         0.0600 
    163 H163        6.0240  -18.0064  -44.6574 H         1 UNK         0.0600 
    164 H164        4.2055  -16.8606  -43.5929 H         1 UNK         0.3000 
    165 H165        1.2465  -16.1183  -42.0439 H         1 UNK         0.0600 
    166 H166        2.2594  -16.4099  -39.8021 H         1 UNK         0.0600 
    167 H167        3.4425  -17.5404  -40.4592 H         1 UNK         0.0600 
    168 H168        1.7340  -17.9542  -40.4531 H         1 UNK         0.0600 
    169 H169        2.5740  -14.4337  -42.2087 H         1 UNK         0.3000 
    170 H170        6.0461  -13.7878  -41.7234 H         1 UNK         0.0600 
    171 H171        5.5342  -13.6477  -44.1276 H         1 UNK         0.0600 
    172 H172        3.9157  -13.0363  -43.7934 H         1 UNK         0.0600 
    173 H173        5.3311  -12.0713  -43.3845 H         1 UNK         0.0600 
    174 H174        3.3865  -12.5166  -41.3986 H         1 UNK         0.3000 
    175 H175        3.6214  -12.3349  -37.9011 H         1 UNK         0.0600 
    176 H176        4.2397   -9.9917  -39.7814 H         1 UNK         0.0600 
    177 H177        3.5949   -9.8619  -38.1442 H         1 UNK         0.0600 
    178 H178        5.2166  -10.4841  -38.4033 H         1 UNK         0.0600 
    179 H179        2.0112  -11.0063  -39.9167 H         1 UNK         0.3000 
    180 H180       -0.3136  -13.5981  -40.3731 H         1 UNK         0.0600 
    181 H181       -0.7523  -11.0703  -38.6931 H         1 UNK         0.0600 
    182 H182       -1.1223  -12.7116  -38.1778 H         1 UNK         0.0600 
    183 H183       -2.0041  -12.0000  -39.5190 H         1 UNK         0.0600 
    184 H184       -0.4674  -10.9034  -41.1722 H         1 UNK         0.3000 
    185 H185       -0.1665  -10.3930  -43.3593 H         1 UNK         0.0600 
    186 H186        2.9039  -10.5536  -43.4412 H         1 UNK         0.0600 
    187 H187        1.9236   -9.2811  -44.1677 H         1 UNK         0.0600 
    188 H188        1.9617   -9.4719  -42.4224 H         1 UNK         0.0600 
    189 H189        1.6742  -11.7688  -45.1728 H         1 UNK         0.3000 
    190 H190       -3.6235  -23.3223  -44.6418 H         1 UNK         0.3000 
    191 H191       -4.5710  -25.7200  -45.8950 H         1 UNK         0.0600 
    192 H192       -3.5114  -26.8172  -43.9105 H         1 UNK         0.0600 
    193 H193       -4.4862  -25.4380  -43.4281 H         1 UNK         0.0600 
    194 H194       -2.7278  -25.3021  -43.4768 H         1 UNK         0.0600 
    195 H195       -1.4100  -24.0893  -45.8322 H         1 UNK         0.3000 
    196 H196        0.1315  -26.2328  -46.9981 H         1 UNK         0.0600 
    197 H197        0.6161  -23.2044  -46.9374 H         1 UNK         0.0600 
    198 H198        1.1477  -24.3493  -45.7070 H         1 UNK         0.0600 
    199 H199        1.8118  -24.4328  -47.3318 H         1 UNK         0.0600 
    200 H200       -2.1813  -23.9915  -48.2799 H         1 UNK         0.3000 
    201 H201       -1.4134  -24.5066  -51.1149 H         1 UNK         0.0600 
    202 H202       -3.3801  -22.4361  -49.9976 H         1 UNK         0.0600 
    203 H203       -2.7574  -22.5581  -51.6403 H         1 UNK         0.0600 
    204 H204       -1.6890  -22.0817  -50.3311 H         1 UNK         0.0600 
    205 H205       -2.8099  -26.2820  -49.0057 H         1 UNK         0.3000 
    206 H206       -4.3718  -27.8169  -48.8249 H         1 UNK         0.0600 
    207 H207       -3.4884  -28.4704  -51.0860 H         1 UNK         0.0600 
    208 H208       -5.1714  -28.9221  -50.8826 H         1 UNK         0.0600 
    209 H209       -4.7566  -27.5153  -51.8528 H         1 UNK         0.0600 
    210 H210       -5.2251  -24.9204  -48.6862 H         1 UNK         0.3000 
    211 H211       -6.9332  -23.5910  -48.4251 H         1 UNK         0.0600 
    212 H212       -9.1351  -24.4173  -47.7315 H         1 UNK         0.0600 
    213 H213       -7.8924  -25.3920  -46.9655 H         1 UNK         0.0600 
    214 H214       -8.7887  -26.0256  -48.3461 H         1 UNK         0.0600 
    215 H215       -6.2065  -24.8027  -51.2125 H         1 UNK         0.3000 
    216 H216       -8.5992  -24.0904  -52.8040 H         1 UNK         0.0600 
    217 H217       -5.8668  -25.2435  -53.5881 H         1 UNK         0.0600 
    218 H218       -7.2382  -25.0242  -54.6689 H         1 UNK         0.0600 
    219 H219       -7.3424  -26.1734  -53.3434 H         1 UNK         0.0600 
    220 H220       -5.5229  -22.8202  -51.8228 H         1 UNK         0.3000 
    221 H221       -4.4695  -20.9038  -51.9607 H         1 UNK         0.0600 
    222 H222       -6.5891  -19.7233  -51.5776 H         1 UNK         0.0600 
    223 H223       -6.9647  -19.7342  -53.2989 H         1 UNK         0.0600 
    224 H224       -5.6078  -18.8028  -52.7057 H         1 UNK         0.0600 
    225 H225       -6.1194  -21.4370  -55.0681 H         1 UNK         0.3000 
    226 H226       -4.1274  -20.3158  -56.7750 H         1 UNK         0.0600 
    227 H227       -6.2834  -22.4270  -57.3302 H         1 UNK         0.0600 
    228 H228       -6.4811  -20.6806  -57.4745 H         1 UNK         0.0600 
    229 H229       -5.3949  -21.5336  -58.5601 H         1 UNK         0.0600 
    230 H230       -4.2859  -23.4155  -55.1676 H         1 UNK         0.3000 
    231 H231       -2.4299  -24.8872  -56.7643 H         1 UNK         0.0600 
    232 H232       -3.1416  -25.1238  -53.7933 H         1 UNK         0.0600 
    233 H233       -2.2835  -26.3367  -54.7325 H         1 UNK         0.0600 
    234 H234       -3.9543  -25.9576  -55.1184 H         1 UNK         0.0600 
    235 H235       -1.9790  -22.3224  -54.4018 H         1 UNK         0.3000 
    236 H236        0.9756  -22.7499  -54.3223 H         1 UNK         0.0600 
    237 H237       -0.0397  -22.4363  -52.1183 H         1 UNK         0.0600 
    238 H238        0.8970  -21.0105  -52.5274 H         1 UNK         0.0600 
    239 H239       -0.8573  -20.9616  -52.6429 H         1 UNK         0.0600 
    240 H240       -1.5358  -20.2258  -54.9569 H         1 UNK         0.3000 
    241 H241        0.4696  -18.3987  -55.9650 H         1 UNK         0.0600 
    242 H242       -0.9960  -20.0874  -59.3029 H         1 UNK         0.3800 
    243 H243       -1.3156  -20.8350  -57.7647 H         1 UNK         0.3800 
    244 H244       -2.5496  -18.0776  -55.7854 H         1 UNK         0.0800 
    245 H245       -1.4342  -16.7977  -56.2084 H         1 UNK         0.0800 
    246 H246       -3.6394  -17.5173  -53.7550 H         1 UNK         0.0800 
    247 H247       -3.1245  -15.8448  -53.7850 H         1 UNK         0.0800 
@<TRIPOS>BOND
     1    1    2 1    
     2    1  127 1    
     3    1  128 1    
     4    1  129 1    
     5    2    3 2    
     6    2    4 am   BACKBONE|DICT|INTERRES
     7    4    5 1    
     8    4  130 1    
     9    5    6 1    
    10    5   65 1    
    11    5  131 1    
    12    6    7 1    
    13    6  132 1    
    14    6  133 1    
    15    7    8 1    
    16    8    9 1    
    17    8  134 1    
    18    8  135 1    
    19    9   10 ar   
    20    9   14 ar   
    21   10   11 ar   
    22   10  136 1    
    23   11   12 ar   
    24   11  126 1    
    25   12   13 ar   
    26   12  137 1    
    27   13   14 ar   
    28   13   15 1    
    29   14  138 1    
    30   15   16 1    
    31   15  139 1    
    32   15  140 1    
    33   16   17 1    
    34   17   18 1    
    35   17  141 1    
    36   17  142 1    
    37   18   19 1    
    38   18   67 1    
    39   18  143 1    
    40   19   20 am   BACKBONE|DICT|INTERRES
    41   19  144 1    
    42   20   21 2    
    43   20   22 1    
    44   22   23 1    
    45   22   24 1    
    46   22  145 1    
    47   23  146 1    
    48   23  147 1    
    49   23  148 1    
    50   24   25 am   BACKBONE|DICT|INTERRES
    51   24  149 1    
    52   25   26 2    
    53   25   27 1    
    54   27   28 1    
    55   27   29 1    
    56   27  150 1    
    57   28  151 1    
    58   28  152 1    
    59   28  153 1    
    60   29   30 am   BACKBONE|DICT|INTERRES
    61   29  154 1    
    62   30   31 2    
    63   30   32 1    
    64   32   33 1    
    65   32   34 1    
    66   32  155 1    
    67   33  156 1    
    68   33  157 1    
    69   33  158 1    
    70   34   35 am   BACKBONE|DICT|INTERRES
    71   34  159 1    
    72   35   36 2    
    73   35   37 1    
    74   37   38 1    
    75   37   39 1    
    76   37  160 1    
    77   38  161 1    
    78   38  162 1    
    79   38  163 1    
    80   39   40 am   BACKBONE|DICT|INTERRES
    81   39  164 1    
    82   40   41 2    
    83   40   42 1    
    84   42   43 1    
    85   42   44 1    
    86   42  165 1    
    87   43  166 1    
    88   43  167 1    
    89   43  168 1    
    90   44   45 am   BACKBONE|DICT|INTERRES
    91   44  169 1    
    92   45   46 2    
    93   45   47 1    
    94   47   48 1    
    95   47   49 1    
    96   47  170 1    
    97   48  171 1    
    98   48  172 1    
    99   48  173 1    
   100   49   50 am   BACKBONE|DICT|INTERRES
   101   49  174 1    
   102   50   51 2    
   103   50   52 1    
   104   52   53 1    
   105   52   54 1    
   106   52  175 1    
   107   53  176 1    
   108   53  177 1    
   109   53  178 1    
   110   54   55 am   BACKBONE|DICT|INTERRES
   111   54  179 1    
   112   55   56 2    
   113   55   57 1    
   114   57   58 1    
   115   57   59 1    
   116   57  180 1    
   117   58  181 1    
   118   58  182 1    
   119   58  183 1    
   120   59   60 am   BACKBONE|DICT|INTERRES
   121   59  184 1    
   122   60   61 2    
   123   60   62 1    
   124   62   63 1    
   125   62   64 1    
   126   62  185 1    
   127   63  186 1    
   128   63  187 1    
   129   63  188 1    
   130   64   65 am   BACKBONE|DICT|INTERRES
   131   64  189 1    
   132   65   66 2    
   133   67   68 2    
   134   67   69 am   BACKBONE|DICT|INTERRES
   135   69   70 1    
   136   69  190 1    
   137   70   71 1    
   138   70   72 1    
   139   70  191 1    
   140   71  192 1    
   141   71  193 1    
   142   71  194 1    
   143   72   73 2    
   144   72   74 am   BACKBONE|DICT|INTERRES
   145   74   75 1    
   146   74  195 1    
   147   75   76 1    
   148   75   77 1    
   149   75  196 1    
   150   76  197 1    
   151   76  198 1    
   152   76  199 1    
   153   77   78 2    
   154   77   79 am   BACKBONE|DICT|INTERRES
   155   79   80 1    
   156   79  200 1    
   157   80   81 1    
   158   80   82 1    
   159   80  201 1    
   160   81  202 1    
   161   81  203 1    
   162   81  204 1    
   163   82   83 2    
   164   82   84 am   BACKBONE|DICT|INTERRES
   165   84   85 1    
   166   84  205 1    
   167   85   86 1    
   168   85   87 1    
   169   85  206 1    
   170   86  207 1    
   171   86  208 1    
   172   86  209 1    
   173   87   88 2    
   174   87   89 am   BACKBONE|DICT|INTERRES
   175   89   90 1    
   176   89  210 1    
   177   90   91 1    
   178   90   92 1    
   179   90  211 1    
   180   91  212 1    
   181   91  213 1    
   182   91  214 1    
   183   92   93 2    
   184   92   94 am   BACKBONE|DICT|INTERRES
   185   94   95 1    
   186   94  215 1    
   187   95   96 1    
   188   95   97 1    
   189   95  216 1    
   190   96  217 1    
   191   96  218 1    
   192   96  219 1    
   193   97   98 2    
   194   97   99 am   BACKBONE|DICT|INTERRES
   195   99  100 1    
   196   99  220 1    
   197  100  101 1    
   198  100  102 1    
   199  100  221 1    
   200  101  222 1    
   201  101  223 1    
   202  101  224 1    
   203  102  103 2    
   204  102  104 am   BACKBONE|DICT|INTERRES
   205  104  105 1    
   206  104  225 1    
   207  105  106 1    
   208  105  107 1    
   209  105  226 1    
   210  106  227 1    
   211  106  228 1    
   212  106  229 1    
   213  107  108 2    
   214  107  109 am   BACKBONE|DICT|INTERRES
   215  109  110 1    
   216  109  230 1    
   217  110  111 1    
   218  110  112 1    
   219  110  231 1    
   220  111  232 1    
   221  111  233 1    
   222  111  234 1    
   223  112  113 2    
   224  112  114 am   BACKBONE|DICT|INTERRES
   225  114  115 1    
   226  114  235 1    
   227  115  116 1    
   228  115  117 1    
   229  115  236 1    
   230  116  237 1    
   231  116  238 1    
   232  116  239 1    
   233  117  118 2    
   234  117  119 am   BACKBONE|DICT|INTERRES
   235  119  120 1    
   236  119  240 1    
   237  120  121 1    
   238  120  124 1    
   239  120  241 1    
   240  121  122 am   BACKBONE|DICT|INTERRES
   241  121  123 2    
   242  122  242 1    
   243  122  243 1    
   244  124  125 1    
   245  124  244 1    
   246  124  245 1    
   247  125  126 1    
   248  126  246 1    
   249  126  247 1    
@<TRIPOS>SUBSTRUCTURE
     1 UNK         1 GROUP             0       ****    0 ROOT    
