@<TRIPOS>MOLECULE
3R540
247   249    1
SMALL
USER_CHARGES


@<TRIPOS>ATOM
      1 CA          2.7845   -9.3992  -49.0187 C.3       0 UNK        -0.1800 
      2 C           2.3591  -10.8005  -48.6043 C.2       0 UNK         0.5000 
      3 O           1.9866  -11.0129  -47.4496 O.2       0 UNK        -0.5000 
      4 N           2.4070  -11.7581  -49.5393 N.am      1 UNK        -0.5000 
      5 CA          2.0140  -13.1564  -49.3409 C.3       1 UNK         0.1400 
      6 C6          2.7617  -14.0972  -50.3201 C.3       23 UNK        -0.0398 
      7 S7          2.7538  -15.8333  -49.7605 S.3       23 UNK        -0.2404 
      8 C8          3.9019  -16.5694  -50.9621 C.3       23 UNK        -0.0205 
      9 C9          3.8400  -18.0881  -50.9254 C.ar      23 UNK        -0.0193 
     10 C10         3.0591  -18.7813  -51.8551 C.ar      23 UNK        -0.1150 
     11 C11         2.9942  -20.1771  -51.8269 C.ar      23 UNK        -0.0193 
     12 C12         3.7244  -20.8805  -50.8670 C.ar      23 UNK        -0.1150 
     13 C13         4.4934  -20.1988  -49.9202 C.ar      23 UNK        -0.0193 
     14 C14         4.5573  -18.8024  -49.9610 C.ar      23 UNK        -0.1150 
     15 C15         5.2374  -20.9726  -48.8422 C.3       23 UNK        -0.0205 
     16 S16         4.4458  -20.7940  -47.2118 S.3       23 UNK        -0.2404 
     17 C17         2.8133  -21.5771  -47.4685 C.3       23 UNK        -0.0398 
     18 CA          2.6000  -22.8462  -46.6070 C.3       11 UNK         0.1400 
     19 N           2.7867  -22.5642  -45.1841 N.am      11 UNK        -0.5000 
     20 C           3.1332  -23.4568  -44.2507 C.2       10 UNK         0.5000 
     21 O           3.4407  -24.6232  -44.5059 O.2       10 UNK        -0.5000 
     22 CA          3.1073  -22.9608  -42.7893 C.3       10 UNK         0.1400 
     23 CB          3.9570  -23.8255  -41.8341 C.3       10 UNK        -0.1800 
     24 N           3.4351  -21.5374  -42.6552 N.am      10 UNK        -0.5000 
     25 C           4.6055  -20.9334  -42.9144 C.2       9 UNK         0.5000 
     26 O           5.6189  -21.5338  -43.2745 O.2       9 UNK        -0.5000 
     27 CA          4.6692  -19.3984  -42.7455 C.3       9 UNK         0.1400 
     28 CB          4.9623  -18.7117  -44.0891 C.3       9 UNK        -0.1800 
     29 N           3.4508  -18.8153  -42.1799 N.am      9 UNK        -0.5000 
     30 C           3.0925  -18.8648  -40.8904 C.2       8 UNK         0.5000 
     31 O           3.7951  -19.3512  -40.0039 O.2       8 UNK        -0.5000 
     32 CA          1.6936  -18.3192  -40.5405 C.3       8 UNK         0.1400 
     33 CB          1.7568  -16.8148  -40.2370 C.3       8 UNK        -0.1800 
     34 N           0.6985  -18.5685  -41.5888 N.am      8 UNK        -0.5000 
     35 C           0.2838  -19.7860  -41.9705 C.2       7 UNK         0.5000 
     36 O           0.6766  -20.8318  -41.4535 O.2       7 UNK        -0.5000 
     37 CA         -0.6894  -19.8561  -43.1618 C.3       7 UNK         0.1400 
     38 CB         -2.1252  -19.5468  -42.7131 C.3       7 UNK        -0.1800 
     39 N          -0.3038  -18.9680  -44.2601 N.am      7 UNK        -0.5000 
     40 C           0.8322  -19.0887  -44.9624 C.2       6 UNK         0.5000 
     41 O           1.6450  -19.9939  -44.7811 O.2       6 UNK        -0.5000 
     42 CA          1.1474  -17.9898  -45.9946 C.3       6 UNK         0.1400 
     43 CB          0.3870  -18.2023  -47.3111 C.3       6 UNK        -0.1800 
     44 N           0.8559  -16.6520  -45.4884 N.am      6 UNK        -0.5000 
     45 C           1.4635  -16.0777  -44.4426 C.2       5 UNK         0.5000 
     46 O           2.3856  -16.5952  -43.8140 O.2       5 UNK        -0.5000 
     47 CA          0.9026  -14.7195  -43.9914 C.3       5 UNK         0.1400 
     48 CB          1.4110  -13.5843  -44.8940 C.3       5 UNK        -0.1800 
     49 N          -0.5609  -14.7200  -43.9706 N.am      5 UNK        -0.5000 
     50 C          -1.3038  -15.4225  -43.1033 C.2       4 UNK         0.5000 
     51 O          -0.8305  -16.1221  -42.2083 O.2       4 UNK        -0.5000 
     52 CA         -2.8311  -15.3561  -43.2850 C.3       4 UNK         0.1400 
     53 CB         -3.4039  -14.1090  -42.5955 C.3       4 UNK        -0.1800 
     54 N          -3.2359  -15.3609  -44.6912 N.am      4 UNK        -0.5000 
     55 C          -3.0891  -16.4065  -45.5176 C.2       3 UNK         0.5000 
     56 O          -2.6093  -17.4855  -45.1763 O.2       3 UNK        -0.5000 
     57 CA         -3.5010  -16.1855  -46.9857 C.3       3 UNK         0.1400 
     58 CB         -5.0204  -16.3563  -47.1380 C.3       3 UNK        -0.1800 
     59 N          -3.0971  -14.8739  -47.5087 N.am      3 UNK        -0.5000 
     60 C          -1.8327  -14.4298  -47.5382 C.2       2 UNK         0.5000 
     61 O          -0.8772  -15.0779  -47.1052 O.2       2 UNK        -0.5000 
     62 CA         -1.6082  -13.0033  -48.0750 C.3       2 UNK         0.1400 
     63 CB         -2.0642  -11.9643  -47.0380 C.3       2 UNK        -0.1800 
     64 N          -0.1940  -12.7735  -48.3634 N.am      2 UNK        -0.5000 
     65 C           0.4752  -13.2988  -49.3955 C.2       1 UNK         0.5000 
     66 O          -0.0755  -13.8411  -50.3551 O.2       1 UNK        -0.5000 
     67 C           1.1945  -23.4474  -46.8441 C.2       11 UNK         0.5000 
     68 O           0.3628  -23.4753  -45.9320 O.2       11 UNK        -0.5000 
     69 N           0.9315  -23.8960  -48.0790 N.am      12 UNK        -0.5000 
     70 CA         -0.2992  -24.5618  -48.5291 C.3       12 UNK         0.1400 
     71 CB         -0.0017  -25.2602  -49.8686 C.3       12 UNK        -0.1800 
     72 C          -1.5552  -23.6572  -48.6165 C.2       12 UNK         0.5000 
     73 O          -2.4013  -23.8668  -49.4873 O.2       12 UNK        -0.5000 
     74 N          -1.6868  -22.6855  -47.7055 N.am      13 UNK        -0.5000 
     75 CA         -2.7900  -21.7241  -47.6332 C.3       13 UNK         0.1400 
     76 CB         -2.4880  -20.6969  -46.5347 C.3       13 UNK        -0.1800 
     77 C          -4.1582  -22.3839  -47.3832 C.2       13 UNK         0.5000 
     78 O          -5.1618  -21.9447  -47.9447 O.2       13 UNK        -0.5000 
     79 N          -4.1660  -23.4518  -46.5729 N.am      14 UNK        -0.5000 
     80 CA         -5.3539  -24.2483  -46.2601 C.3       14 UNK         0.1400 
     81 CB         -5.0340  -25.1903  -45.0897 C.3       14 UNK        -0.1800 
     82 C          -5.8801  -25.0455  -47.4688 C.2       14 UNK         0.5000 
     83 O          -7.0902  -25.2418  -47.5834 O.2       14 UNK        -0.5000 
     84 N          -4.9669  -25.4769  -48.3502 N.am      15 UNK        -0.5000 
     85 CA         -5.2918  -26.1471  -49.6086 C.3       15 UNK         0.1400 
     86 CB         -4.0834  -26.9723  -50.0767 C.3       15 UNK        -0.1800 
     87 C          -5.7168  -25.1379  -50.6890 C.2       15 UNK         0.5000 
     88 O          -6.6275  -25.4286  -51.4650 O.2       15 UNK        -0.5000 
     89 N          -5.0544  -23.9721  -50.7113 N.am      16 UNK        -0.5000 
     90 CA         -5.3374  -22.8590  -51.6143 C.3       16 UNK         0.1400 
     91 CB         -4.2458  -21.7924  -51.4538 C.3       16 UNK        -0.1800 
     92 C          -6.7251  -22.2402  -51.3833 C.2       16 UNK         0.5000 
     93 O          -7.4482  -22.0032  -52.3519 O.2       16 UNK        -0.5000 
     94 N          -7.0635  -21.9922  -50.1087 N.am      17 UNK        -0.5000 
     95 CA         -8.3143  -21.4047  -49.6245 C.3       17 UNK         0.1400 
     96 CB         -9.4661  -22.4258  -49.7522 C.3       17 UNK        -0.1800 
     97 C          -8.5953  -20.0474  -50.3019 C.2       17 UNK         0.5000 
     98 O          -7.9012  -19.0738  -50.0070 O.2       17 UNK        -0.5000 
     99 N          -9.5584  -20.0146  -51.2331 N.am      18 UNK        -0.5000 
    100 CA        -9.9192  -18.8511  -52.0466 C.3       18 UNK         0.1400 
    101 CB       -11.1739  -19.1884  -52.8663 C.3       18 UNK        -0.1800 
    102 C         -8.7902  -18.3484  -52.9715 C.2       18 UNK         0.5000 
    103 O         -8.7844  -17.1666  -53.3176 O.2       18 UNK        -0.5000 
    104 N         -7.8465  -19.2295  -53.3385 N.am      19 UNK        -0.5000 
    105 CA        -6.6497  -18.8806  -54.1113 C.3       19 UNK         0.1400 
    106 CB        -6.1171  -20.1357  -54.8190 C.3       19 UNK        -0.1800 
    107 C         -5.5473  -18.2165  -53.2579 C.2       19 UNK         0.5000 
    108 O         -4.5886  -17.6915  -53.8255 O.2       19 UNK        -0.5000 
    109 N         -5.7051  -18.2396  -51.9250 N.am      20 UNK        -0.5000 
    110 CA        -4.8750  -17.6303  -50.8823 C.3       20 UNK         0.1400 
    111 CB        -4.8333  -16.0945  -51.0195 C.3       20 UNK        -0.1800 
    112 C         -3.4621  -18.2236  -50.7551 C.2       20 UNK         0.5000 
    113 O         -3.1403  -18.7890  -49.7109 O.2       20 UNK        -0.5000 
    114 N         -2.6447  -18.0677  -51.7995 N.am      21 UNK        -0.5000 
    115 CA        -1.2320  -18.4246  -51.8287 C.3       21 UNK         0.1400 
    116 CB        -0.4293  -17.4506  -50.9416 C.3       21 UNK        -0.1800 
    117 C         -0.7552  -18.3978  -53.2953 C.2       21 UNK         0.5000 
    118 O         -0.2914  -17.3531  -53.7508 O.2       21 UNK        -0.5000 
    119 N         -0.8829  -19.4780  -54.0759 N.am      22 UNK        -0.5000 
    120 CA        -1.4902  -20.7832  -53.7748 C.3       22 UNK         0.1400 
    121 C         -2.4306  -21.2215  -54.9334 C.2       22 UNK         0.5000 
    122 N         -3.1901  -22.2945  -54.7554 N.am      22 UNK        -0.7600 
    123 O         -2.4723  -20.6151  -56.0022 O.2       22 UNK        -0.5000 
    124 C124       -0.4262  -21.8803  -53.4851 C.3       23 UNK        -0.0398 
    125 S125        0.6060  -21.5353  -52.0234 S.3       23 UNK        -0.2404 
    126 C126        2.1243  -20.9271  -52.8202 C.3       23 UNK        -0.0205 
    127 H127        3.0911   -9.3606  -50.0643 H         1 UNK         0.0600 
    128 H128        3.6218   -9.0653  -48.4061 H         1 UNK         0.0600 
    129 H129        1.9592   -8.7009  -48.8800 H         1 UNK         0.0600 
    130 H130        2.6900  -11.5131  -50.4776 H         1 UNK         0.3000 
    131 H131        2.3214  -13.4425  -48.3320 H         1 UNK         0.0600 
    132 H132        2.3535  -14.0338  -51.3304 H         1 UNK         0.0800 
    133 H133        3.8059  -13.7900  -50.3964 H         1 UNK         0.0800 
    134 H134        4.9172  -16.2319  -50.7490 H         1 UNK         0.0800 
    135 H135        3.6597  -16.2107  -51.9639 H         1 UNK         0.0800 
    136 H136        2.4927  -18.2319  -52.5943 H         1 UNK         0.1150 
    137 H137        3.6686  -21.9597  -50.8429 H         1 UNK         0.1150 
    138 H138        5.1488  -18.2711  -49.2286 H         1 UNK         0.1150 
    139 H139        5.3057  -22.0315  -49.0965 H         1 UNK         0.0800 
    140 H140        6.2628  -20.6059  -48.7792 H         1 UNK         0.0800 
    141 H141        2.6881  -21.8133  -48.5239 H         1 UNK         0.0800 
    142 H142        2.0527  -20.8323  -47.2427 H         1 UNK         0.0800 
    143 H143        3.3341  -23.5936  -46.9149 H         1 UNK         0.0600 
    144 H144        2.5045  -21.6321  -44.8888 H         1 UNK         0.3000 
    145 H145        2.0689  -23.0538  -42.4687 H         1 UNK         0.0600 
    146 H146        3.9117  -23.4457  -40.8134 H         1 UNK         0.0600 
    147 H147        3.5943  -24.8537  -41.8127 H         1 UNK         0.0600 
    148 H148        5.0041  -23.8570  -42.1357 H         1 UNK         0.0600 
    149 H149        2.6586  -20.9495  -42.3781 H         1 UNK         0.3000 
    150 H150        5.4999  -19.1848  -42.0700 H         1 UNK         0.0600 
    151 H151        5.8772  -19.0976  -44.5401 H         1 UNK         0.0600 
    152 H152        5.0905  -17.6366  -43.9630 H         1 UNK         0.0600 
    153 H153        4.1539  -18.8693  -44.8029 H         1 UNK         0.0600 
    154 H154        2.8406  -18.3330  -42.8321 H         1 UNK         0.3000 
    155 H155        1.3582  -18.8322  -39.6368 H         1 UNK         0.0600 
    156 H156        2.4779  -16.6051  -39.4460 H         1 UNK         0.0600 
    157 H157        0.7895  -16.4397  -39.9026 H         1 UNK         0.0600 
    158 H158        2.0537  -16.2390  -41.1138 H         1 UNK         0.0600 
    159 H159        0.2944  -17.7496  -42.0336 H         1 UNK         0.3000 
    160 H160       -0.6694  -20.8791  -43.5440 H         1 UNK         0.0600 
    161 H161       -2.2237  -18.5219  -42.3555 H         1 UNK         0.0600 
    162 H162       -2.4325  -20.2089  -41.9029 H         1 UNK         0.0600 
    163 H163       -2.8330  -19.6846  -43.5303 H         1 UNK         0.0600 
    164 H164       -0.9635  -18.2349  -44.5052 H         1 UNK         0.3000 
    165 H165        2.2162  -18.0409  -46.2124 H         1 UNK         0.0600 
    166 H166        0.7400  -17.5058  -48.0710 H         1 UNK         0.0600 
    167 H167        0.5276  -19.2079  -47.7053 H         1 UNK         0.0600 
    168 H168       -0.6843  -18.0408  -47.1896 H         1 UNK         0.0600 
    169 H169        0.1296  -16.1316  -45.9763 H         1 UNK         0.3000 
    170 H170        1.2571  -14.5300  -42.9760 H         1 UNK         0.0600 
    171 H171        2.5002  -13.5325  -44.8760 H         1 UNK         0.0600 
    172 H172        1.1110  -13.7244  -45.9320 H         1 UNK         0.0600 
    173 H173        1.0346  -12.6159  -44.5642 H         1 UNK         0.0600 
    174 H174       -1.0263  -14.2237  -44.7149 H         1 UNK         0.3000 
    175 H175       -3.2614  -16.2378  -42.8054 H         1 UNK         0.0600 
    176 H176       -3.1314  -14.0878  -41.5394 H         1 UNK         0.0600 
    177 H177       -3.0322  -13.1893  -43.0492 H         1 UNK         0.0600 
    178 H178       -4.4927  -14.0941  -42.6491 H         1 UNK         0.0600 
    179 H179       -3.6360  -14.5095  -45.0560 H         1 UNK         0.3000 
    180 H180       -3.0053  -16.9488  -47.5892 H         1 UNK         0.0600 
    181 H181       -5.3303  -17.3564  -46.8316 H         1 UNK         0.0600 
    182 H182       -5.5709  -15.6400  -46.5268 H         1 UNK         0.0600 
    183 H183       -5.3392  -16.2222  -48.1698 H         1 UNK         0.0600 
    184 H184       -3.8352  -14.2803  -47.8583 H         1 UNK         0.3000 
    185 H185       -2.1865  -12.8765  -48.9925 H         1 UNK         0.0600 
    186 H186       -3.1266  -12.0666  -46.8142 H         1 UNK         0.0600 
    187 H187       -1.5183  -12.0653  -46.0988 H         1 UNK         0.0600 
    188 H188       -1.9094  -10.9494  -47.4052 H         1 UNK         0.0600 
    189 H189        0.3460  -12.2928  -47.6532 H         1 UNK         0.3000 
    190 H190        1.6501  -23.8133  -48.7831 H         1 UNK         0.3000 
    191 H191       -0.5367  -25.3389  -47.8000 H         1 UNK         0.0600 
    192 H192        0.2104  -24.5372  -50.6576 H         1 UNK         0.0600 
    193 H193       -0.8459  -25.8665  -50.1975 H         1 UNK         0.0600 
    194 H194        0.8553  -25.9288  -49.7855 H         1 UNK         0.0600 
    195 H195       -0.9836  -22.6411  -46.9743 H         1 UNK         0.3000 
    196 H196       -2.8360  -21.2023  -48.5899 H         1 UNK         0.0600 
    197 H197       -3.2564  -19.9234  -46.4991 H         1 UNK         0.0600 
    198 H198       -1.5377  -20.2002  -46.7166 H         1 UNK         0.0600 
    199 H199       -2.4373  -21.1609  -45.5494 H         1 UNK         0.0600 
    200 H200       -3.2955  -23.7434  -46.1530 H         1 UNK         0.3000 
    201 H201       -6.1460  -23.5662  -45.9437 H         1 UNK         0.0600 
    202 H202       -5.9077  -25.7833  -44.8160 H         1 UNK         0.0600 
    203 H203       -4.2307  -25.8849  -45.3388 H         1 UNK         0.0600 
    204 H204       -4.7324  -24.6308  -44.2040 H         1 UNK         0.0600 
    205 H205       -3.9975  -25.2399  -48.1992 H         1 UNK         0.3000 
    206 H206       -6.1242  -26.8340  -49.4408 H         1 UNK         0.0600 
    207 H207       -3.7897  -27.7048  -49.3247 H         1 UNK         0.0600 
    208 H208       -4.3179  -27.5200  -50.9903 H         1 UNK         0.0600 
    209 H209       -3.2199  -26.3416  -50.2873 H         1 UNK         0.0600 
    210 H210       -4.2658  -23.8531  -50.0831 H         1 UNK         0.3000 
    211 H211       -5.3029  -23.2398  -52.6369 H         1 UNK         0.0600 
    212 H212       -4.3682  -20.9948  -52.1857 H         1 UNK         0.0600 
    213 H213       -3.2530  -22.2216  -51.5852 H         1 UNK         0.0600 
    214 H214       -4.2755  -21.3301  -50.4679 H         1 UNK         0.0600 
    215 H215       -6.3615  -22.1522  -49.3896 H         1 UNK         0.3000 
    216 H216       -8.1702  -21.1964  -48.5634 H         1 UNK         0.0600 
    217 H217      -10.4030  -22.0121  -49.3770 H         1 UNK         0.0600 
    218 H218       -9.2529  -23.3200  -49.1658 H         1 UNK         0.0600 
    219 H219       -9.6285  -22.7442  -50.7825 H         1 UNK         0.0600 
    220 H220      -10.0445  -20.8747  -51.4412 H         1 UNK         0.3000 
    221 H221      -10.1659  -18.0352  -51.3641 H         1 UNK         0.0600 
    222 H222      -10.9952  -20.0190  -53.5504 H         1 UNK         0.0600 
    223 H223      -12.0083  -19.4587  -52.2189 H         1 UNK         0.0600 
    224 H224      -11.4925  -18.3334  -53.4642 H         1 UNK         0.0600 
    225 H225       -7.9120  -20.1901  -53.0126 H         1 UNK         0.3000 
    226 H226       -6.9322  -18.1624  -54.8839 H         1 UNK         0.0600 
    227 H227       -6.8848  -20.5933  -55.4430 H         1 UNK         0.0600 
    228 H228       -5.2769  -19.8886  -55.4690 H         1 UNK         0.0600 
    229 H229       -5.7705  -20.8867  -54.1111 H         1 UNK         0.0600 
    230 H230       -6.5366  -18.6945  -51.5656 H         1 UNK         0.3000 
    231 H231       -5.3840  -17.8558  -49.9441 H         1 UNK         0.0600 
    232 H232       -5.8327  -15.6674  -50.9365 H         1 UNK         0.0600 
    233 H233       -4.4126  -15.7751  -51.9730 H         1 UNK         0.0600 
    234 H234       -4.2207  -15.6481  -50.2356 H         1 UNK         0.0600 
    235 H235       -3.0285  -17.6644  -52.6506 H         1 UNK         0.3000 
    236 H236       -1.1090  -19.4213  -51.4089 H         1 UNK         0.0600 
    237 H237       -0.7673  -17.4781  -49.9068 H         1 UNK         0.0600 
    238 H238        0.6279  -17.7111  -50.9388 H         1 UNK         0.0600 
    239 H239       -0.5154  -16.4194  -51.2852 H         1 UNK         0.0600 
    240 H240       -0.6383  -19.3788  -55.0509 H         1 UNK         0.3000 
    241 H241       -2.1370  -20.6783  -52.9079 H         1 UNK         0.0600 
    242 H242       -3.1506  -22.8490  -53.9168 H         1 UNK         0.3800 
    243 H243       -3.7875  -22.5883  -55.5124 H         1 UNK         0.3800 
    244 H244       -0.9087  -22.8411  -53.2993 H         1 UNK         0.0800 
    245 H245        0.2129  -22.0337  -54.3564 H         1 UNK         0.0800 
    246 H246        2.6782  -21.7689  -53.2382 H         1 UNK         0.0800 
    247 H247        1.8679  -20.2775  -53.6583 H         1 UNK         0.0800 
@<TRIPOS>BOND
     1    1    2 1    
     2    1  127 1    
     3    1  128 1    
     4    1  129 1    
     5    2    3 2    
     6    2    4 am   BACKBONE|DICT|INTERRES
     7    4    5 1    
     8    4  130 1    
     9    5    6 1    
    10    5   65 1    
    11    5  131 1    
    12    6    7 1    
    13    6  132 1    
    14    6  133 1    
    15    7    8 1    
    16    8    9 1    
    17    8  134 1    
    18    8  135 1    
    19    9   10 ar   
    20    9   14 ar   
    21   10   11 ar   
    22   10  136 1    
    23   11   12 ar   
    24   11  126 1    
    25   12   13 ar   
    26   12  137 1    
    27   13   14 ar   
    28   13   15 1    
    29   14  138 1    
    30   15   16 1    
    31   15  139 1    
    32   15  140 1    
    33   16   17 1    
    34   17   18 1    
    35   17  141 1    
    36   17  142 1    
    37   18   19 1    
    38   18   67 1    
    39   18  143 1    
    40   19   20 am   BACKBONE|DICT|INTERRES
    41   19  144 1    
    42   20   21 2    
    43   20   22 1    
    44   22   23 1    
    45   22   24 1    
    46   22  145 1    
    47   23  146 1    
    48   23  147 1    
    49   23  148 1    
    50   24   25 am   BACKBONE|DICT|INTERRES
    51   24  149 1    
    52   25   26 2    
    53   25   27 1    
    54   27   28 1    
    55   27   29 1    
    56   27  150 1    
    57   28  151 1    
    58   28  152 1    
    59   28  153 1    
    60   29   30 am   BACKBONE|DICT|INTERRES
    61   29  154 1    
    62   30   31 2    
    63   30   32 1    
    64   32   33 1    
    65   32   34 1    
    66   32  155 1    
    67   33  156 1    
    68   33  157 1    
    69   33  158 1    
    70   34   35 am   BACKBONE|DICT|INTERRES
    71   34  159 1    
    72   35   36 2    
    73   35   37 1    
    74   37   38 1    
    75   37   39 1    
    76   37  160 1    
    77   38  161 1    
    78   38  162 1    
    79   38  163 1    
    80   39   40 am   BACKBONE|DICT|INTERRES
    81   39  164 1    
    82   40   41 2    
    83   40   42 1    
    84   42   43 1    
    85   42   44 1    
    86   42  165 1    
    87   43  166 1    
    88   43  167 1    
    89   43  168 1    
    90   44   45 am   BACKBONE|DICT|INTERRES
    91   44  169 1    
    92   45   46 2    
    93   45   47 1    
    94   47   48 1    
    95   47   49 1    
    96   47  170 1    
    97   48  171 1    
    98   48  172 1    
    99   48  173 1    
   100   49   50 am   BACKBONE|DICT|INTERRES
   101   49  174 1    
   102   50   51 2    
   103   50   52 1    
   104   52   53 1    
   105   52   54 1    
   106   52  175 1    
   107   53  176 1    
   108   53  177 1    
   109   53  178 1    
   110   54   55 am   BACKBONE|DICT|INTERRES
   111   54  179 1    
   112   55   56 2    
   113   55   57 1    
   114   57   58 1    
   115   57   59 1    
   116   57  180 1    
   117   58  181 1    
   118   58  182 1    
   119   58  183 1    
   120   59   60 am   BACKBONE|DICT|INTERRES
   121   59  184 1    
   122   60   61 2    
   123   60   62 1    
   124   62   63 1    
   125   62   64 1    
   126   62  185 1    
   127   63  186 1    
   128   63  187 1    
   129   63  188 1    
   130   64   65 am   BACKBONE|DICT|INTERRES
   131   64  189 1    
   132   65   66 2    
   133   67   68 2    
   134   67   69 am   BACKBONE|DICT|INTERRES
   135   69   70 1    
   136   69  190 1    
   137   70   71 1    
   138   70   72 1    
   139   70  191 1    
   140   71  192 1    
   141   71  193 1    
   142   71  194 1    
   143   72   73 2    
   144   72   74 am   BACKBONE|DICT|INTERRES
   145   74   75 1    
   146   74  195 1    
   147   75   76 1    
   148   75   77 1    
   149   75  196 1    
   150   76  197 1    
   151   76  198 1    
   152   76  199 1    
   153   77   78 2    
   154   77   79 am   BACKBONE|DICT|INTERRES
   155   79   80 1    
   156   79  200 1    
   157   80   81 1    
   158   80   82 1    
   159   80  201 1    
   160   81  202 1    
   161   81  203 1    
   162   81  204 1    
   163   82   83 2    
   164   82   84 am   BACKBONE|DICT|INTERRES
   165   84   85 1    
   166   84  205 1    
   167   85   86 1    
   168   85   87 1    
   169   85  206 1    
   170   86  207 1    
   171   86  208 1    
   172   86  209 1    
   173   87   88 2    
   174   87   89 am   BACKBONE|DICT|INTERRES
   175   89   90 1    
   176   89  210 1    
   177   90   91 1    
   178   90   92 1    
   179   90  211 1    
   180   91  212 1    
   181   91  213 1    
   182   91  214 1    
   183   92   93 2    
   184   92   94 am   BACKBONE|DICT|INTERRES
   185   94   95 1    
   186   94  215 1    
   187   95   96 1    
   188   95   97 1    
   189   95  216 1    
   190   96  217 1    
   191   96  218 1    
   192   96  219 1    
   193   97   98 2    
   194   97   99 am   BACKBONE|DICT|INTERRES
   195   99  100 1    
   196   99  220 1    
   197  100  101 1    
   198  100  102 1    
   199  100  221 1    
   200  101  222 1    
   201  101  223 1    
   202  101  224 1    
   203  102  103 2    
   204  102  104 am   BACKBONE|DICT|INTERRES
   205  104  105 1    
   206  104  225 1    
   207  105  106 1    
   208  105  107 1    
   209  105  226 1    
   210  106  227 1    
   211  106  228 1    
   212  106  229 1    
   213  107  108 2    
   214  107  109 am   BACKBONE|DICT|INTERRES
   215  109  110 1    
   216  109  230 1    
   217  110  111 1    
   218  110  112 1    
   219  110  231 1    
   220  111  232 1    
   221  111  233 1    
   222  111  234 1    
   223  112  113 2    
   224  112  114 am   BACKBONE|DICT|INTERRES
   225  114  115 1    
   226  114  235 1    
   227  115  116 1    
   228  115  117 1    
   229  115  236 1    
   230  116  237 1    
   231  116  238 1    
   232  116  239 1    
   233  117  118 2    
   234  117  119 am   BACKBONE|DICT|INTERRES
   235  119  120 1    
   236  119  240 1    
   237  120  121 1    
   238  120  124 1    
   239  120  241 1    
   240  121  122 am   BACKBONE|DICT|INTERRES
   241  121  123 2    
   242  122  242 1    
   243  122  243 1    
   244  124  125 1    
   245  124  244 1    
   246  124  245 1    
   247  125  126 1    
   248  126  246 1    
   249  126  247 1    
@<TRIPOS>SUBSTRUCTURE
     1 UNK         1 GROUP             0       ****    0 ROOT    
