@<TRIPOS>MOLECULE
3R540
247   249    1
SMALL
USER_CHARGES


@<TRIPOS>ATOM
      1 CA          6.8895  -14.7632  -46.0808 C.3       0 UNK        -0.1800 
      2 C           5.7915  -13.8023  -45.6518 C.2       0 UNK         0.5000 
      3 O           5.6151  -13.5713  -44.4565 O.2       0 UNK        -0.5000 
      4 N           5.0665  -13.2275  -46.6208 N.am      1 UNK        -0.5000 
      5 CA          3.9070  -12.3436  -46.4207 C.3       1 UNK         0.1400 
      6 C6          3.2413  -11.9244  -47.7582 C.3       23 UNK        -0.0398 
      7 S7          3.0177  -13.2834  -48.9553 S.3       23 UNK        -0.2404 
      8 C8          1.5209  -14.0851  -48.3109 C.3       23 UNK        -0.0205 
      9 C9          1.0533  -15.2031  -49.2298 C.ar      23 UNK        -0.0193 
     10 C10        -0.1751  -15.1046  -49.8899 C.ar      23 UNK        -0.1150 
     11 C11        -0.6364  -16.1464  -50.7002 C.ar      23 UNK        -0.0193 
     12 C12         0.1596  -17.2851  -50.8645 C.ar      23 UNK        -0.1150 
     13 C13         1.4005  -17.3871  -50.2294 C.ar      23 UNK        -0.0193 
     14 C14         1.8360  -16.3489  -49.4020 C.ar      23 UNK        -0.1150 
     15 C15         2.2726  -18.6153  -50.4462 C.3       23 UNK        -0.0205 
     16 S16         2.1021  -19.8296  -49.1027 S.3       23 UNK        -0.2404 
     17 C17         0.3422  -20.2768  -49.2580 C.3       23 UNK        -0.0398 
     18 CA         -0.0259  -21.5122  -48.4082 C.3       11 UNK         0.1400 
     19 N           0.0416  -21.2537  -46.9666 N.am      11 UNK        -0.5000 
     20 C          -0.0742  -22.1971  -46.0207 C.2       10 UNK         0.5000 
     21 O          -0.1995  -23.3974  -46.2647 O.2       10 UNK        -0.5000 
     22 CA         -0.1179  -21.7176  -44.5583 C.3       10 UNK         0.1400 
     23 CB          1.2886  -21.3818  -44.0410 C.3       10 UNK        -0.1800 
     24 N          -1.0026  -20.5665  -44.3768 N.am      10 UNK        -0.5000 
     25 C          -2.3253  -20.5847  -44.5950 C.2       9 UNK         0.5000 
     26 O          -2.9514  -21.5949  -44.9139 O.2       9 UNK        -0.5000 
     27 CA         -3.0660  -19.2399  -44.4914 C.3       9 UNK         0.1400 
     28 CB         -3.4188  -18.9109  -43.0330 C.3       9 UNK        -0.1800 
     29 N          -2.2985  -18.1409  -45.0770 N.am      9 UNK        -0.5000 
     30 C          -2.0257  -18.0210  -46.3843 C.2       8 UNK         0.5000 
     31 O          -2.4271  -18.8051  -47.2435 O.2       8 UNK        -0.5000 
     32 CA         -1.1116  -16.8533  -46.7901 C.3       8 UNK         0.1400 
     33 CB         -1.9228  -15.5561  -46.9273 C.3       8 UNK        -0.1800 
     34 N          -0.0141  -16.6545  -45.8415 N.am      8 UNK        -0.5000 
     35 C           0.9823  -17.5362  -45.6617 C.2       7 UNK         0.5000 
     36 O           1.0707  -18.5933  -46.2813 O.2       7 UNK        -0.5000 
     37 CA          2.0116  -17.2288  -44.5566 C.3       7 UNK         0.1400 
     38 CB          3.1339  -16.3284  -45.0933 C.3       7 UNK        -0.1800 
     39 N           1.4075  -16.6080  -43.3780 N.am      7 UNK        -0.5000 
     40 C           0.4380  -17.1693  -42.6383 C.2       6 UNK         0.5000 
     41 O           0.0403  -18.3216  -42.8088 O.2       6 UNK        -0.5000 
     42 CA         -0.2451  -16.2953  -41.5667 C.3       6 UNK         0.1400 
     43 CB          0.2705  -16.6656  -40.1683 C.3       6 UNK        -0.1800 
     44 N          -0.0760  -14.8544  -41.7669 N.am      6 UNK        -0.5000 
     45 C          -0.4531  -14.1483  -42.8442 C.2       5 UNK         0.5000 
     46 O          -1.0557  -14.6338  -43.8014 O.2       5 UNK        -0.5000 
     47 CA         -0.0266  -12.6663  -42.8817 C.3       5 UNK         0.1400 
     48 CB         -1.1951  -11.7595  -42.4688 C.3       5 UNK        -0.1800 
     49 N           1.1322  -12.3810  -42.0269 N.am      5 UNK        -0.5000 
     50 C           2.3644  -12.8651  -42.2337 C.2       4 UNK         0.5000 
     51 O           2.6688  -13.5720  -43.1959 O.2       4 UNK        -0.5000 
     52 CA          3.3932  -12.5946  -41.1315 C.3       4 UNK         0.1400 
     53 CB          3.4403  -13.7806  -40.1487 C.3       4 UNK        -0.1800 
     54 N           4.7065  -12.3746  -41.7262 N.am      4 UNK        -0.5000 
     55 C           5.7287  -11.7709  -41.1061 C.2       3 UNK         0.5000 
     56 O           5.6852  -11.3730  -39.9410 O.2       3 UNK        -0.5000 
     57 CA          7.0029  -11.5363  -41.9320 C.3       3 UNK         0.1400 
     58 CB          7.8513  -12.8149  -42.0233 C.3       3 UNK        -0.1800 
     59 N           6.6773  -11.0519  -43.2724 N.am      3 UNK        -0.5000 
     60 C           6.3935   -9.7724  -43.5582 C.2       2 UNK         0.5000 
     61 O           6.4358   -8.8642  -42.7272 O.2       2 UNK        -0.5000 
     62 CA          6.0063   -9.4357  -45.0110 C.3       2 UNK         0.1400 
     63 CB          7.2196   -8.8822  -45.7742 C.3       2 UNK        -0.1800 
     64 N           5.4728  -10.5829  -45.7432 N.am      2 UNK        -0.5000 
     65 C           4.2373  -11.0808  -45.5947 C.2       1 UNK         0.5000 
     66 O           3.3861  -10.5921  -44.8514 O.2       1 UNK        -0.5000 
     67 C          -1.4008  -22.0652  -48.8301 C.2       11 UNK         0.5000 
     68 O          -1.4446  -23.0233  -49.5995 O.2       11 UNK        -0.5000 
     69 N          -2.4930  -21.4914  -48.3025 N.am      12 UNK        -0.5000 
     70 CA         -3.8600  -21.9634  -48.5312 C.3       12 UNK         0.1400 
     71 CB         -4.8683  -20.9927  -47.9000 C.3       12 UNK        -0.1800 
     72 C          -4.0872  -23.3952  -48.0168 C.2       12 UNK         0.5000 
     73 O          -4.6813  -24.2019  -48.7321 O.2       12 UNK        -0.5000 
     74 N          -3.5816  -23.6964  -46.8128 N.am      13 UNK        -0.5000 
     75 CA         -3.6141  -25.0276  -46.2067 C.3       13 UNK         0.1400 
     76 CB         -3.1207  -24.9497  -44.7543 C.3       13 UNK        -0.1800 
     77 C          -2.8065  -26.0624  -47.0106 C.2       13 UNK         0.5000 
     78 O          -3.3130  -27.1552  -47.2684 O.2       13 UNK        -0.5000 
     79 N          -1.5922  -25.6846  -47.4380 N.am      14 UNK        -0.5000 
     80 CA         -0.7227  -26.4898  -48.3021 C.3       14 UNK         0.1400 
     81 CB          0.6432  -25.8012  -48.4402 C.3       14 UNK        -0.1800 
     82 C          -1.3384  -26.7627  -49.6887 C.2       14 UNK         0.5000 
     83 O          -1.1636  -27.8541  -50.2306 O.2       14 UNK        -0.5000 
     84 N          -2.0923  -25.7861  -50.2078 N.am      15 UNK        -0.5000 
     85 CA         -2.8769  -25.8646  -51.4389 C.3       15 UNK         0.1400 
     86 CB         -3.0004  -24.4529  -52.0374 C.3       15 UNK        -0.1800 
     87 C          -4.2612  -26.5230  -51.2473 C.2       15 UNK         0.5000 
     88 O          -5.1223  -26.3487  -52.1077 O.2       15 UNK        -0.5000 
     89 N          -4.4668  -27.2582  -50.1431 N.am      16 UNK        -0.5000 
     90 CA         -5.6584  -28.0499  -49.8167 C.3       16 UNK         0.1400 
     91 CB         -5.7859  -29.2508  -50.7779 C.3       16 UNK        -0.1800 
     92 C          -6.9416  -27.1976  -49.7415 C.2       16 UNK         0.5000 
     93 O          -7.9368  -27.5089  -50.3981 O.2       16 UNK        -0.5000 
     94 N          -6.8689  -26.1246  -48.9428 N.am      17 UNK        -0.5000 
     95 CA         -7.8797  -25.0783  -48.7619 C.3       17 UNK         0.1400 
     96 CB         -9.2146  -25.6459  -48.2332 C.3       17 UNK        -0.1800 
     97 C          -8.0265  -24.2079  -50.0256 C.2       17 UNK         0.5000 
     98 O          -9.1422  -23.9352  -50.4720 O.2       17 UNK        -0.5000 
     99 N          -6.8715  -23.7774  -50.5540 N.am      18 UNK        -0.5000 
    100 CA        -6.6909  -22.8635  -51.6849 C.3       18 UNK         0.1400 
    101 CB        -7.1694  -21.4470  -51.3052 C.3       18 UNK        -0.1800 
    102 C         -7.3054  -23.3765  -53.0046 C.2       18 UNK         0.5000 
    103 O         -7.9438  -22.6109  -53.7299 O.2       18 UNK        -0.5000 
    104 N         -7.0979  -24.6647  -53.3081 N.am      19 UNK        -0.5000 
    105 CA        -7.5162  -25.2924  -54.5591 C.3       19 UNK         0.1400 
    106 CB        -7.4944  -26.8221  -54.3987 C.3       19 UNK        -0.1800 
    107 C         -6.6076  -24.8179  -55.7082 C.2       19 UNK         0.5000 
    108 O         -5.4707  -25.2807  -55.8190 O.2       19 UNK        -0.5000 
    109 N         -7.1201  -23.8712  -56.5079 N.am      20 UNK        -0.5000 
    110 CA        -6.4372  -23.1754  -57.6062 C.3       20 UNK         0.1400 
    111 CB        -6.1170  -24.1476  -58.7618 C.3       20 UNK        -0.1800 
    112 C         -5.2091  -22.3674  -57.1296 C.2       20 UNK         0.5000 
    113 O         -4.1690  -22.3646  -57.7913 O.2       20 UNK        -0.5000 
    114 N         -5.3572  -21.6931  -55.9840 N.am      21 UNK        -0.5000 
    115 CA        -4.3488  -20.8438  -55.3573 C.3       21 UNK         0.1400 
    116 CB        -3.5000  -21.6916  -54.3929 C.3       21 UNK        -0.1800 
    117 C         -5.0490  -19.6945  -54.6170 C.2       21 UNK         0.5000 
    118 O         -6.2721  -19.7207  -54.4597 O.2       21 UNK        -0.5000 
    119 N         -4.2636  -18.7106  -54.1646 N.am      22 UNK        -0.5000 
    120 CA        -4.7410  -17.5852  -53.3425 C.3       22 UNK         0.1400 
    121 C         -5.0200  -17.9391  -51.8515 C.2       22 UNK         0.5000 
    122 N         -4.5431  -19.0653  -51.3344 N.am      22 UNK        -0.7600 
    123 O         -5.6804  -17.1756  -51.1530 O.2       22 UNK        -0.5000 
    124 C124       -3.8285  -16.3371  -53.4779 C.3       23 UNK        -0.0398 
    125 S125       -2.0701  -16.6290  -53.0680 S.3       23 UNK        -0.2404 
    126 C126       -2.0178  -16.0490  -51.3385 C.3       23 UNK        -0.0205 
    127 H127        7.8544  -14.4202  -45.7075 H         1 UNK         0.0600 
    128 H128        6.9531  -14.8485  -47.1658 H         1 UNK         0.0600 
    129 H129        6.6967  -15.7548  -45.6714 H         1 UNK         0.0600 
    130 H130        5.2577  -13.4633  -47.5846 H         1 UNK         0.3000 
    131 H131        3.1753  -12.9150  -45.8465 H         1 UNK         0.0600 
    132 H132        2.2738  -11.4552  -47.5704 H         1 UNK         0.0800 
    133 H133        3.8464  -11.1675  -48.2614 H         1 UNK         0.0800 
    134 H134        0.7370  -13.3369  -48.1849 H         1 UNK         0.0800 
    135 H135        1.7219  -14.4955  -47.3215 H         1 UNK         0.0800 
    136 H136       -0.7876  -14.2250  -49.7496 H         1 UNK         0.1150 
    137 H137       -0.1892  -18.0982  -51.4850 H         1 UNK         0.1150 
    138 H138        2.7867  -16.4303  -48.8940 H         1 UNK         0.1150 
    139 H139        2.0333  -19.0913  -51.3984 H         1 UNK         0.0800 
    140 H140        3.3181  -18.3113  -50.5144 H         1 UNK         0.0800 
    141 H141        0.1409  -20.4625  -50.3149 H         1 UNK         0.0800 
    142 H142       -0.2696  -19.4207  -48.9686 H         1 UNK         0.0800 
    143 H143        0.7036  -22.2950  -48.6269 H         1 UNK         0.0600 
    144 H144        0.2090  -20.2904  -46.6880 H         1 UNK         0.3000 
    145 H145       -0.5130  -22.5358  -43.9528 H         1 UNK         0.0600 
    146 H146        1.2620  -21.0790  -42.9941 H         1 UNK         0.0600 
    147 H147        1.9464  -22.2487  -44.1139 H         1 UNK         0.0600 
    148 H148        1.7480  -20.5744  -44.6104 H         1 UNK         0.0600 
    149 H149       -0.5726  -19.7020  -44.0617 H         1 UNK         0.3000 
    150 H150       -3.9995  -19.3304  -45.0503 H         1 UNK         0.0600 
    151 H151       -4.0403  -19.6952  -42.5993 H         1 UNK         0.0600 
    152 H152       -3.9778  -17.9777  -42.9628 H         1 UNK         0.0600 
    153 H153       -2.5303  -18.8179  -42.4088 H         1 UNK         0.0600 
    154 H154       -1.8987  -17.4693  -44.4386 H         1 UNK         0.3000 
    155 H155       -0.6773  -17.0940  -47.7620 H         1 UNK         0.0600 
    156 H156       -2.4564  -15.3122  -46.0082 H         1 UNK         0.0600 
    157 H157       -2.6639  -15.6469  -47.7223 H         1 UNK         0.0600 
    158 H158       -1.2824  -14.7098  -47.1731 H         1 UNK         0.0600 
    159 H159       -0.0778  -15.8441  -45.2365 H         1 UNK         0.3000 
    160 H160        2.4549  -18.1762  -44.2437 H         1 UNK         0.0600 
    161 H161        3.9198  -16.1925  -44.3499 H         1 UNK         0.0600 
    162 H162        2.7620  -15.3404  -45.3629 H         1 UNK         0.0600 
    163 H163        3.5957  -16.7609  -45.9819 H         1 UNK         0.0600 
    164 H164        1.6862  -15.6553  -43.1795 H         1 UNK         0.3000 
    165 H165       -1.3147  -16.5103  -41.6087 H         1 UNK         0.0600 
    166 H166       -0.2639  -16.1181  -39.3916 H         1 UNK         0.0600 
    167 H167        0.1300  -17.7289  -39.9686 H         1 UNK         0.0600 
    168 H168        1.3344  -16.4496  -40.0620 H         1 UNK         0.0600 
    169 H169        0.4101  -14.3597  -41.0347 H         1 UNK         0.3000 
    170 H170        0.2460  -12.4296  -43.9125 H         1 UNK         0.0600 
    171 H171       -2.0651  -11.9305  -43.1043 H         1 UNK         0.0600 
    172 H172       -1.5011  -11.9403  -41.4376 H         1 UNK         0.0600 
    173 H173       -0.9290  -10.7064  -42.5616 H         1 UNK         0.0600 
    174 H174        0.9568  -11.8139  -41.2096 H         1 UNK         0.3000 
    175 H175        3.0958  -11.6914  -40.5944 H         1 UNK         0.0600 
    176 H176        3.7549  -14.6991  -40.6461 H         1 UNK         0.0600 
    177 H177        4.1311  -13.5933  -39.3268 H         1 UNK         0.0600 
    178 H178        2.4604  -13.9644  -39.7070 H         1 UNK         0.0600 
    179 H179        4.8093  -12.6944  -42.6859 H         1 UNK         0.3000 
    180 H180        7.6028  -10.7813  -41.4190 H         1 UNK         0.0600 
    181 H181        7.3032  -13.6406  -42.4763 H         1 UNK         0.0600 
    182 H182        8.1653  -13.1408  -41.0310 H         1 UNK         0.0600 
    183 H183        8.7538  -12.6484  -42.6115 H         1 UNK         0.0600 
    184 H184        6.5406  -11.7596  -43.9837 H         1 UNK         0.3000 
    185 H185        5.2411   -8.6572  -44.9771 H         1 UNK         0.0600 
    186 H186        7.6292   -8.0042  -45.2729 H         1 UNK         0.0600 
    187 H187        8.0193   -9.6201  -45.8493 H         1 UNK         0.0600 
    188 H188        6.9454   -8.5788  -46.7848 H         1 UNK         0.0600 
    189 H189        6.1050  -11.0531  -46.3748 H         1 UNK         0.3000 
    190 H190       -2.3873  -20.6661  -47.7185 H         1 UNK         0.3000 
    191 H191       -4.0302  -21.9703  -49.6097 H         1 UNK         0.0600 
    192 H192       -4.7380  -20.9216  -46.8206 H         1 UNK         0.0600 
    193 H193       -5.8926  -21.3193  -48.0826 H         1 UNK         0.0600 
    194 H194       -4.7659  -19.9895  -48.3130 H         1 UNK         0.0600 
    195 H195       -3.1509  -22.9572  -46.2638 H         1 UNK         0.3000 
    196 H196       -4.6543  -25.3592  -46.1915 H         1 UNK         0.0600 
    197 H197       -3.1522  -25.9301  -44.2774 H         1 UNK         0.0600 
    198 H198       -3.7449  -24.2797  -44.1629 H         1 UNK         0.0600 
    199 H199       -2.0944  -24.5872  -44.6944 H         1 UNK         0.0600 
    200 H200       -1.2312  -24.7791  -47.1490 H         1 UNK         0.3000 
    201 H201       -0.5702  -27.4539  -47.8129 H         1 UNK         0.0600 
    202 H202        1.1174  -25.6674  -47.4678 H         1 UNK         0.0600 
    203 H203        0.5532  -24.8196  -48.9059 H         1 UNK         0.0600 
    204 H204        1.3207  -26.3958  -49.0542 H         1 UNK         0.0600 
    205 H205       -2.1251  -24.8963  -49.7198 H         1 UNK         0.3000 
    206 H206       -2.3366  -26.4817  -52.1593 H         1 UNK         0.0600 
    207 H207       -2.0186  -24.0218  -52.2336 H         1 UNK         0.0600 
    208 H208       -3.5397  -24.4679  -52.9854 H         1 UNK         0.0600 
    209 H209       -3.5286  -23.7807  -51.3621 H         1 UNK         0.0600 
    210 H210       -3.7281  -27.2887  -49.4518 H         1 UNK         0.3000 
    211 H211       -5.4960  -28.4488  -48.8142 H         1 UNK         0.0600 
    212 H212       -5.9807  -28.9324  -51.8026 H         1 UNK         0.0600 
    213 H213       -6.6052  -29.9051  -50.4779 H         1 UNK         0.0600 
    214 H214       -4.8762  -29.8510  -50.7807 H         1 UNK         0.0600 
    215 H215       -5.9664  -25.9127  -48.5339 H         1 UNK         0.3000 
    216 H216       -7.4869  -24.4170  -47.9881 H         1 UNK         0.0600 
    217 H217       -9.8929  -24.8390  -47.9536 H         1 UNK         0.0600 
    218 H218       -9.0587  -26.2602  -47.3466 H         1 UNK         0.0600 
    219 H219       -9.7278  -26.2538  -48.9783 H         1 UNK         0.0600 
    220 H220       -6.0190  -24.0736  -50.0866 H         1 UNK         0.3000 
    221 H221       -5.6173  -22.8048  -51.8580 H         1 UNK         0.0600 
    222 H222       -8.2475  -21.4119  -51.1467 H         1 UNK         0.0600 
    223 H223       -6.6850  -21.0956  -50.3953 H         1 UNK         0.0600 
    224 H224       -6.9336  -20.7291  -52.0902 H         1 UNK         0.0600 
    225 H225       -6.5054  -25.2327  -52.7060 H         1 UNK         0.3000 
    226 H226       -8.5465  -24.9988  -54.7710 H         1 UNK         0.0600 
    227 H227       -7.8640  -27.3114  -55.3004 H         1 UNK         0.0600 
    228 H228       -6.4887  -27.1993  -54.2119 H         1 UNK         0.0600 
    229 H229       -8.1271  -27.1405  -53.5697 H         1 UNK         0.0600 
    230 H230       -8.0453  -23.5262  -56.2898 H         1 UNK         0.3000 
    231 H231       -7.1476  -22.4410  -57.9883 H         1 UNK         0.0600 
    232 H232       -7.0083  -24.6876  -59.0811 H         1 UNK         0.0600 
    233 H233       -5.3628  -24.8823  -58.4788 H         1 UNK         0.0600 
    234 H234       -5.7369  -23.6090  -59.6305 H         1 UNK         0.0600 
    235 H235       -6.2570  -21.6883  -55.5172 H         1 UNK         0.3000 
    236 H236       -3.7062  -20.4054  -56.1238 H         1 UNK         0.0600 
    237 H237       -3.0283  -22.5267  -54.9113 H         1 UNK         0.0600 
    238 H238       -2.7023  -21.1019  -53.9403 H         1 UNK         0.0600 
    239 H239       -4.1065  -22.1015  -53.5860 H         1 UNK         0.0600 
    240 H240       -3.2673  -18.7445  -54.3270 H         1 UNK         0.3000 
    241 H241       -5.7126  -17.2892  -53.7435 H         1 UNK         0.0600 
    242 H242       -4.7218  -19.2671  -50.3656 H         1 UNK         0.3800 
    243 H243       -3.9783  -19.6850  -51.8895 H         1 UNK         0.3800 
    244 H244       -3.8634  -15.9864  -54.5101 H         1 UNK         0.0800 
    245 H245       -4.2148  -15.5076  -52.8829 H         1 UNK         0.0800 
    246 H246       -2.3753  -15.0185  -51.3079 H         1 UNK         0.0800 
    247 H247       -2.7086  -16.6370  -50.7342 H         1 UNK         0.0800 
@<TRIPOS>BOND
     1    1    2 1    
     2    1  127 1    
     3    1  128 1    
     4    1  129 1    
     5    2    3 2    
     6    2    4 am   BACKBONE|DICT|INTERRES
     7    4    5 1    
     8    4  130 1    
     9    5    6 1    
    10    5   65 1    
    11    5  131 1    
    12    6    7 1    
    13    6  132 1    
    14    6  133 1    
    15    7    8 1    
    16    8    9 1    
    17    8  134 1    
    18    8  135 1    
    19    9   10 ar   
    20    9   14 ar   
    21   10   11 ar   
    22   10  136 1    
    23   11   12 ar   
    24   11  126 1    
    25   12   13 ar   
    26   12  137 1    
    27   13   14 ar   
    28   13   15 1    
    29   14  138 1    
    30   15   16 1    
    31   15  139 1    
    32   15  140 1    
    33   16   17 1    
    34   17   18 1    
    35   17  141 1    
    36   17  142 1    
    37   18   19 1    
    38   18   67 1    
    39   18  143 1    
    40   19   20 am   BACKBONE|DICT|INTERRES
    41   19  144 1    
    42   20   21 2    
    43   20   22 1    
    44   22   23 1    
    45   22   24 1    
    46   22  145 1    
    47   23  146 1    
    48   23  147 1    
    49   23  148 1    
    50   24   25 am   BACKBONE|DICT|INTERRES
    51   24  149 1    
    52   25   26 2    
    53   25   27 1    
    54   27   28 1    
    55   27   29 1    
    56   27  150 1    
    57   28  151 1    
    58   28  152 1    
    59   28  153 1    
    60   29   30 am   BACKBONE|DICT|INTERRES
    61   29  154 1    
    62   30   31 2    
    63   30   32 1    
    64   32   33 1    
    65   32   34 1    
    66   32  155 1    
    67   33  156 1    
    68   33  157 1    
    69   33  158 1    
    70   34   35 am   BACKBONE|DICT|INTERRES
    71   34  159 1    
    72   35   36 2    
    73   35   37 1    
    74   37   38 1    
    75   37   39 1    
    76   37  160 1    
    77   38  161 1    
    78   38  162 1    
    79   38  163 1    
    80   39   40 am   BACKBONE|DICT|INTERRES
    81   39  164 1    
    82   40   41 2    
    83   40   42 1    
    84   42   43 1    
    85   42   44 1    
    86   42  165 1    
    87   43  166 1    
    88   43  167 1    
    89   43  168 1    
    90   44   45 am   BACKBONE|DICT|INTERRES
    91   44  169 1    
    92   45   46 2    
    93   45   47 1    
    94   47   48 1    
    95   47   49 1    
    96   47  170 1    
    97   48  171 1    
    98   48  172 1    
    99   48  173 1    
   100   49   50 am   BACKBONE|DICT|INTERRES
   101   49  174 1    
   102   50   51 2    
   103   50   52 1    
   104   52   53 1    
   105   52   54 1    
   106   52  175 1    
   107   53  176 1    
   108   53  177 1    
   109   53  178 1    
   110   54   55 am   BACKBONE|DICT|INTERRES
   111   54  179 1    
   112   55   56 2    
   113   55   57 1    
   114   57   58 1    
   115   57   59 1    
   116   57  180 1    
   117   58  181 1    
   118   58  182 1    
   119   58  183 1    
   120   59   60 am   BACKBONE|DICT|INTERRES
   121   59  184 1    
   122   60   61 2    
   123   60   62 1    
   124   62   63 1    
   125   62   64 1    
   126   62  185 1    
   127   63  186 1    
   128   63  187 1    
   129   63  188 1    
   130   64   65 am   BACKBONE|DICT|INTERRES
   131   64  189 1    
   132   65   66 2    
   133   67   68 2    
   134   67   69 am   BACKBONE|DICT|INTERRES
   135   69   70 1    
   136   69  190 1    
   137   70   71 1    
   138   70   72 1    
   139   70  191 1    
   140   71  192 1    
   141   71  193 1    
   142   71  194 1    
   143   72   73 2    
   144   72   74 am   BACKBONE|DICT|INTERRES
   145   74   75 1    
   146   74  195 1    
   147   75   76 1    
   148   75   77 1    
   149   75  196 1    
   150   76  197 1    
   151   76  198 1    
   152   76  199 1    
   153   77   78 2    
   154   77   79 am   BACKBONE|DICT|INTERRES
   155   79   80 1    
   156   79  200 1    
   157   80   81 1    
   158   80   82 1    
   159   80  201 1    
   160   81  202 1    
   161   81  203 1    
   162   81  204 1    
   163   82   83 2    
   164   82   84 am   BACKBONE|DICT|INTERRES
   165   84   85 1    
   166   84  205 1    
   167   85   86 1    
   168   85   87 1    
   169   85  206 1    
   170   86  207 1    
   171   86  208 1    
   172   86  209 1    
   173   87   88 2    
   174   87   89 am   BACKBONE|DICT|INTERRES
   175   89   90 1    
   176   89  210 1    
   177   90   91 1    
   178   90   92 1    
   179   90  211 1    
   180   91  212 1    
   181   91  213 1    
   182   91  214 1    
   183   92   93 2    
   184   92   94 am   BACKBONE|DICT|INTERRES
   185   94   95 1    
   186   94  215 1    
   187   95   96 1    
   188   95   97 1    
   189   95  216 1    
   190   96  217 1    
   191   96  218 1    
   192   96  219 1    
   193   97   98 2    
   194   97   99 am   BACKBONE|DICT|INTERRES
   195   99  100 1    
   196   99  220 1    
   197  100  101 1    
   198  100  102 1    
   199  100  221 1    
   200  101  222 1    
   201  101  223 1    
   202  101  224 1    
   203  102  103 2    
   204  102  104 am   BACKBONE|DICT|INTERRES
   205  104  105 1    
   206  104  225 1    
   207  105  106 1    
   208  105  107 1    
   209  105  226 1    
   210  106  227 1    
   211  106  228 1    
   212  106  229 1    
   213  107  108 2    
   214  107  109 am   BACKBONE|DICT|INTERRES
   215  109  110 1    
   216  109  230 1    
   217  110  111 1    
   218  110  112 1    
   219  110  231 1    
   220  111  232 1    
   221  111  233 1    
   222  111  234 1    
   223  112  113 2    
   224  112  114 am   BACKBONE|DICT|INTERRES
   225  114  115 1    
   226  114  235 1    
   227  115  116 1    
   228  115  117 1    
   229  115  236 1    
   230  116  237 1    
   231  116  238 1    
   232  116  239 1    
   233  117  118 2    
   234  117  119 am   BACKBONE|DICT|INTERRES
   235  119  120 1    
   236  119  240 1    
   237  120  121 1    
   238  120  124 1    
   239  120  241 1    
   240  121  122 am   BACKBONE|DICT|INTERRES
   241  121  123 2    
   242  122  242 1    
   243  122  243 1    
   244  124  125 1    
   245  124  244 1    
   246  124  245 1    
   247  125  126 1    
   248  126  246 1    
   249  126  247 1    
@<TRIPOS>SUBSTRUCTURE
     1 UNK         1 GROUP             0       ****    0 ROOT    
