@<TRIPOS>MOLECULE
3R540
247   249    1
SMALL
USER_CHARGES


@<TRIPOS>ATOM
      1 CA          4.4009  -17.9780  -44.7874 C.3       0 UNK        -0.1800 
      2 C           4.2943  -17.5490  -46.2428 C.2       0 UNK         0.5000 
      3 O           4.6620  -18.3109  -47.1331 O.2       0 UNK        -0.5000 
      4 N           3.8056  -16.3301  -46.4818 N.am      1 UNK        -0.5000 
      5 CA          3.5665  -15.7262  -47.7898 C.3       1 UNK         0.1400 
      6 C6          4.8743  -15.4348  -48.5745 C.3       23 UNK        -0.0398 
      7 S7          4.5965  -15.1772  -50.3612 S.3       23 UNK        -0.2404 
      8 C8          4.8675  -16.8463  -51.0459 C.3       23 UNK        -0.0205 
      9 C9          3.6901  -17.7941  -50.8362 C.ar      23 UNK        -0.0193 
     10 C10         2.4019  -17.4333  -51.2472 C.ar      23 UNK        -0.1150 
     11 C11         1.3348  -18.3276  -51.1185 C.ar      23 UNK        -0.0193 
     12 C12         1.5614  -19.5943  -50.5729 C.ar      23 UNK        -0.1150 
     13 C13         2.8458  -19.9759  -50.1723 C.ar      23 UNK        -0.0193 
     14 C14         3.9023  -19.0682  -50.2990 C.ar      23 UNK        -0.1150 
     15 C15         3.1050  -21.3940  -49.6781 C.3       23 UNK        -0.0205 
     16 S16         3.5035  -21.4946  -47.9012 S.3       23 UNK        -0.2404 
     17 C17         1.9794  -20.8891  -47.1028 C.3       23 UNK        -0.0398 
     18 CA          0.9930  -22.0243  -46.7274 C.3       11 UNK         0.1400 
     19 N           0.0930  -21.6336  -45.6389 N.am      11 UNK        -0.5000 
     20 C          -0.7963  -22.4390  -45.0397 C.2       10 UNK         0.5000 
     21 O          -0.9128  -23.6389  -45.2921 O.2       10 UNK        -0.5000 
     22 CA         -1.7528  -21.7803  -44.0269 C.3       10 UNK         0.1400 
     23 CB         -1.0748  -21.5946  -42.6613 C.3       10 UNK        -0.1800 
     24 N          -2.2683  -20.4953  -44.5037 N.am      10 UNK        -0.5000 
     25 C          -3.0884  -20.3586  -45.5564 C.2       9 UNK         0.5000 
     26 O          -3.5434  -21.3074  -46.1923 O.2       9 UNK        -0.5000 
     27 CA         -3.4206  -18.9254  -46.0065 C.3       9 UNK         0.1400 
     28 CB         -4.5852  -18.3504  -45.1883 C.3       9 UNK        -0.1800 
     29 N          -2.2742  -18.0230  -45.9288 N.am      9 UNK        -0.5000 
     30 C          -1.1362  -18.1766  -46.6209 C.2       8 UNK         0.5000 
     31 O          -0.9253  -19.1012  -47.4024 O.2       8 UNK        -0.5000 
     32 CA         -0.0214  -17.1590  -46.3347 C.3       8 UNK         0.1400 
     33 CB         -0.3775  -15.7950  -46.9448 C.3       8 UNK        -0.1800 
     34 N           0.2174  -17.0052  -44.8997 N.am      8 UNK        -0.5000 
     35 C           0.5606  -17.9870  -44.0544 C.2       7 UNK         0.5000 
     36 O           0.7960  -19.1415  -44.4059 O.2       7 UNK        -0.5000 
     37 CA          0.5955  -17.6315  -42.5588 C.3       7 UNK         0.1400 
     38 CB          1.9695  -17.0817  -42.1505 C.3       7 UNK        -0.1800 
     39 N          -0.4406  -16.6579  -42.2193 N.am      7 UNK        -0.5000 
     40 C          -1.7399  -16.9546  -42.0843 C.2       6 UNK         0.5000 
     41 O          -2.1933  -18.0961  -42.1762 O.2       6 UNK        -0.5000 
     42 CA         -2.6928  -15.7684  -41.8389 C.3       6 UNK         0.1400 
     43 CB         -2.7086  -15.3842  -40.3518 C.3       6 UNK        -0.1800 
     44 N          -2.3515  -14.5901  -42.6410 N.am      6 UNK        -0.5000 
     45 C          -2.4607  -14.5367  -43.9756 C.2       5 UNK         0.5000 
     46 O          -2.8947  -15.4662  -44.6553 O.2       5 UNK        -0.5000 
     47 CA         -1.9779  -13.2494  -44.6768 C.3       5 UNK         0.1400 
     48 CB         -3.1225  -12.2291  -44.7611 C.3       5 UNK        -0.1800 
     49 N          -0.7978  -12.5979  -44.0913 N.am      5 UNK        -0.5000 
     50 C           0.3655  -13.1868  -43.7815 C.2       4 UNK         0.5000 
     51 O           0.5518  -14.4020  -43.8262 O.2       4 UNK        -0.5000 
     52 CA          1.5249  -12.2522  -43.4153 C.3       4 UNK         0.1400 
     53 CB          2.6076  -12.9584  -42.5792 C.3       4 UNK        -0.1800 
     54 N           2.1149  -11.7939  -44.6664 N.am      4 UNK        -0.5000 
     55 C           2.3394  -10.5197  -45.0088 C.2       3 UNK         0.5000 
     56 O           2.1263   -9.5645  -44.2608 O.2       3 UNK        -0.5000 
     57 CA          2.8852  -10.2562  -46.4301 C.3       3 UNK         0.1400 
     58 CB          4.4119  -10.0884  -46.3944 C.3       3 UNK        -0.1800 
     59 N           2.5487  -11.3050  -47.3964 N.am      3 UNK        -0.5000 
     60 C           1.3081  -11.6112  -47.7988 C.2       2 UNK         0.5000 
     61 O           0.3123  -10.9632  -47.4749 O.2       2 UNK        -0.5000 
     62 CA          1.1329  -12.8530  -48.6992 C.3       2 UNK         0.1400 
     63 CB          0.9779  -12.4200  -50.1653 C.3       2 UNK        -0.1800 
     64 N           2.1762  -13.8881  -48.6345 N.am      2 UNK        -0.5000 
     65 C           2.7076  -14.4682  -47.5494 C.2       1 UNK         0.5000 
     66 O           2.5279  -14.0671  -46.3959 O.2       1 UNK        -0.5000 
     67 C           0.2023  -22.5090  -47.9577 C.2       11 UNK         0.5000 
     68 O           0.4692  -23.5955  -48.4674 O.2       11 UNK        -0.5000 
     69 N          -0.7823  -21.7112  -48.3873 N.am      12 UNK        -0.5000 
     70 CA         -1.6706  -22.0077  -49.5060 C.3       12 UNK         0.1400 
     71 CB         -2.5196  -20.7690  -49.8071 C.3       12 UNK        -0.1800 
     72 C          -2.5546  -23.2438  -49.2650 C.2       12 UNK         0.5000 
     73 O          -2.8089  -23.9943  -50.2050 O.2       12 UNK        -0.5000 
     74 N          -3.0122  -23.4521  -48.0230 N.am      13 UNK        -0.5000 
     75 CA         -3.7509  -24.6471  -47.6140 C.3       13 UNK         0.1400 
     76 CB         -4.3193  -24.4649  -46.1997 C.3       13 UNK        -0.1800 
     77 C          -2.8925  -25.9213  -47.7104 C.2       13 UNK         0.5000 
     78 O          -3.3634  -26.9288  -48.2400 O.2       13 UNK        -0.5000 
     79 N          -1.6377  -25.8389  -47.2448 N.am      14 UNK        -0.5000 
     80 CA         -0.6426  -26.9065  -47.3625 C.3       14 UNK         0.1400 
     81 CB          0.5909  -26.5569  -46.5164 C.3       14 UNK        -0.1800 
     82 C          -0.2485  -27.1922  -48.8250 C.2       14 UNK         0.5000 
     83 O          -0.1025  -28.3567  -49.2004 O.2       14 UNK        -0.5000 
     84 N          -0.1268  -26.1333  -49.6361 N.am      15 UNK        -0.5000 
     85 CA          0.1557  -26.1693  -51.0716 C.3       15 UNK         0.1400 
     86 CB          0.7233  -24.8054  -51.5030 C.3       15 UNK        -0.1800 
     87 C          -1.0740  -26.5916  -51.9063 C.2       15 UNK         0.5000 
     88 O          -1.5369  -25.8359  -52.7624 O.2       15 UNK        -0.5000 
     89 N          -1.5634  -27.8112  -51.6464 N.am      16 UNK        -0.5000 
     90 CA         -2.6342  -28.5157  -52.3579 C.3       16 UNK         0.1400 
     91 CB         -2.1926  -28.8572  -53.7972 C.3       16 UNK        -0.1800 
     92 C          -4.0039  -27.8057  -52.2984 C.2       16 UNK         0.5000 
     93 O          -4.7387  -27.8060  -53.2881 O.2       16 UNK        -0.5000 
     94 N          -4.3356  -27.2479  -51.1241 N.am      17 UNK        -0.5000 
     95 CA         -5.6257  -26.6419  -50.7768 C.3       17 UNK         0.1400 
     96 CB         -6.7337  -27.7155  -50.7270 C.3       17 UNK        -0.1800 
     97 C          -6.0055  -25.4210  -51.6419 C.2       17 UNK         0.5000 
     98 O          -7.1785  -25.2447  -51.9767 O.2       17 UNK        -0.5000 
     99 N          -5.0154  -24.5774  -51.9659 N.am      18 UNK        -0.5000 
    100 CA        -5.2204  -23.2906  -52.6379 C.3       18 UNK         0.1400 
    101 CB        -3.8821  -22.7926  -53.2046 C.3       18 UNK        -0.1800 
    102 C         -5.8619  -22.2442  -51.7017 C.2       18 UNK         0.5000 
    103 O         -6.6012  -21.3833  -52.1774 O.2       18 UNK        -0.5000 
    104 N         -5.5888  -22.3795  -50.3935 N.am      19 UNK        -0.5000 
    105 CA        -6.1918  -21.7143  -49.2322 C.3       19 UNK         0.1400 
    106 CB        -7.5098  -22.4261  -48.8675 C.3       19 UNK        -0.1800 
    107 C         -6.3580  -20.1858  -49.3632 C.2       19 UNK         0.5000 
    108 O         -5.4703  -19.4369  -48.9604 O.2       19 UNK        -0.5000 
    109 N         -7.4958  -19.7463  -49.9153 N.am      20 UNK        -0.5000 
    110 CA        -7.8577  -18.3418  -50.1102 C.3       20 UNK         0.1400 
    111 CB        -9.3377  -18.2696  -50.5168 C.3       20 UNK        -0.1800 
    112 C         -6.9815  -17.5881  -51.1325 C.2       20 UNK         0.5000 
    113 O         -7.0041  -16.3567  -51.1285 O.2       20 UNK        -0.5000 
    114 N         -6.2291  -18.3218  -51.9691 N.am      21 UNK        -0.5000 
    115 CA        -5.3940  -17.8381  -53.0782 C.3       21 UNK         0.1400 
    116 CB        -4.6133  -19.0258  -53.6603 C.3       21 UNK        -0.1800 
    117 C         -4.4261  -16.6769  -52.7627 C.2       21 UNK         0.5000 
    118 O         -4.1223  -15.8921  -53.6626 O.2       21 UNK        -0.5000 
    119 N         -3.9803  -16.5689  -51.5078 N.am      22 UNK        -0.5000 
    120 CA        -3.1975  -15.4380  -50.9869 C.3       22 UNK         0.1400 
    121 C         -3.6597  -14.9831  -49.5725 C.2       22 UNK         0.5000 
    122 N         -4.8924  -15.2695  -49.1684 N.am      22 UNK        -0.7600 
    123 O         -2.9158  -14.3319  -48.8451 O.2       22 UNK        -0.5000 
    124 C124       -1.6660  -15.6386  -51.1404 C.3       23 UNK        -0.0398 
    125 S125       -1.0139  -17.1251  -50.3025 S.3       23 UNK        -0.2404 
    126 C126       -0.0506  -17.9399  -51.6130 C.3       23 UNK        -0.0205 
    127 H127        3.6607  -18.7475  -44.5686 H         1 UNK         0.0600 
    128 H128        5.3905  -18.3885  -44.5872 H         1 UNK         0.0600 
    129 H129        4.2408  -17.1390  -44.1105 H         1 UNK         0.0600 
    130 H130        3.4912  -15.7373  -45.7212 H         1 UNK         0.3000 
    131 H131        2.9554  -16.4330  -48.3551 H         1 UNK         0.0600 
    132 H132        5.5826  -16.2559  -48.4657 H         1 UNK         0.0800 
    133 H133        5.3835  -14.5602  -48.1661 H         1 UNK         0.0800 
    134 H134        5.0383  -16.7524  -52.1190 H         1 UNK         0.0800 
    135 H135        5.7858  -17.2631  -50.6295 H         1 UNK         0.0800 
    136 H136        2.2326  -16.4597  -51.6852 H         1 UNK         0.1150 
    137 H137        0.7404  -20.2915  -50.4859 H         1 UNK         0.1150 
    138 H138        4.8961  -19.3670  -49.9961 H         1 UNK         0.1150 
    139 H139        2.2573  -22.0417  -49.9021 H         1 UNK         0.0800 
    140 H140        3.9442  -21.8082  -50.2385 H         1 UNK         0.0800 
    141 H141        1.5085  -20.1171  -47.7122 H         1 UNK         0.0800 
    142 H142        2.3071  -20.3778  -46.1973 H         1 UNK         0.0800 
    143 H143        1.5714  -22.8722  -46.3541 H         1 UNK         0.0600 
    144 H144        0.1506  -20.6652  -45.3346 H         1 UNK         0.3000 
    145 H145       -2.6038  -22.4508  -43.8901 H         1 UNK         0.0600 
    146 H146       -1.7631  -21.1620  -41.9350 H         1 UNK         0.0600 
    147 H147       -0.7384  -22.5521  -42.2619 H         1 UNK         0.0600 
    148 H148       -0.2035  -20.9433  -42.7243 H         1 UNK         0.0600 
    149 H149       -1.9465  -19.6641  -44.0261 H         1 UNK         0.3000 
    150 H150       -3.7273  -18.9700  -47.0522 H         1 UNK         0.0600 
    151 H151       -5.4587  -19.0013  -45.2422 H         1 UNK         0.0600 
    152 H152       -4.8845  -17.3727  -45.5664 H         1 UNK         0.0600 
    153 H153       -4.3203  -18.2359  -44.1364 H         1 UNK         0.0600 
    154 H154       -2.3805  -17.2024  -45.3385 H         1 UNK         0.3000 
    155 H155        0.9076  -17.5153  -46.7845 H         1 UNK         0.0600 
    156 H156       -1.4471  -15.5891  -46.9112 H         1 UNK         0.0600 
    157 H157       -0.0790  -15.7543  -47.9904 H         1 UNK         0.0600 
    158 H158        0.1196  -14.9758  -46.4317 H         1 UNK         0.0600 
    159 H159        0.1209  -16.0668  -44.5198 H         1 UNK         0.3000 
    160 H160        0.4152  -18.5458  -41.9895 H         1 UNK         0.0600 
    161 H161        1.9843  -16.7971  -41.0984 H         1 UNK         0.0600 
    162 H162        2.2487  -16.2068  -42.7382 H         1 UNK         0.0600 
    163 H163        2.7433  -17.8367  -42.2908 H         1 UNK         0.0600 
    164 H164       -0.1622  -15.6853  -42.2348 H         1 UNK         0.3000 
    165 H165       -3.6989  -16.0894  -42.1178 H         1 UNK         0.0600 
    166 H166       -3.4399  -14.6001  -40.1551 H         1 UNK         0.0600 
    167 H167       -2.9764  -16.2402  -39.7310 H         1 UNK         0.0600 
    168 H168       -1.7341  -15.0272  -40.0163 H         1 UNK         0.0600 
    169 H169       -1.9807  -13.7887  -42.1523 H         1 UNK         0.3000 
    170 H170       -1.7085  -13.5226  -45.6978 H         1 UNK         0.0600 
    171 H171       -4.0087  -12.6723  -45.2178 H         1 UNK         0.0600 
    172 H172       -3.4085  -11.8628  -43.7745 H         1 UNK         0.0600 
    173 H173       -2.8414  -11.3706  -45.3716 H         1 UNK         0.0600 
    174 H174       -0.8414  -11.5906  -44.0365 H         1 UNK         0.3000 
    175 H175        1.1220  -11.4199  -42.8346 H         1 UNK         0.0600 
    176 H176        3.0741  -13.7763  -43.1301 H         1 UNK         0.0600 
    177 H177        3.3944  -12.2618  -42.2901 H         1 UNK         0.0600 
    178 H178        2.1859  -13.3746  -41.6636 H         1 UNK         0.0600 
    179 H179        2.2863  -12.5269  -45.3529 H         1 UNK         0.3000 
    180 H180        2.4450   -9.3211  -46.7823 H         1 UNK         0.0600 
    181 H181        4.9087  -11.0033  -46.0687 H         1 UNK         0.0600 
    182 H182        4.7019   -9.2940  -45.7054 H         1 UNK         0.0600 
    183 H183        4.8036   -9.8236  -47.3768 H         1 UNK         0.0600 
    184 H184        3.3041  -11.9019  -47.6986 H         1 UNK         0.3000 
    185 H185        0.1995  -13.3272  -48.3918 H         1 UNK         0.0600 
    186 H186        0.1620  -11.7051  -50.2799 H         1 UNK         0.0600 
    187 H187        1.8863  -11.9458  -50.5392 H         1 UNK         0.0600 
    188 H188        0.7558  -13.2696  -50.8107 H         1 UNK         0.0600 
    189 H189        2.4496  -14.2692  -49.5302 H         1 UNK         0.3000 
    190 H190       -0.9159  -20.8088  -47.9308 H         1 UNK         0.3000 
    191 H191       -1.0506  -22.2083  -50.3805 H         1 UNK         0.0600 
    192 H192       -3.1199  -20.4878  -48.9432 H         1 UNK         0.0600 
    193 H193       -3.1934  -20.9333  -50.6469 H         1 UNK         0.0600 
    194 H194       -1.8909  -19.9176  -50.0604 H         1 UNK         0.0600 
    195 H195       -2.8491  -22.7482  -47.3088 H         1 UNK         0.3000 
    196 H196       -4.5961  -24.7602  -48.2935 H         1 UNK         0.0600 
    197 H197       -3.5329  -24.2884  -45.4664 H         1 UNK         0.0600 
    198 H198       -4.8707  -25.3512  -45.8835 H         1 UNK         0.0600 
    199 H199       -5.0103  -23.6228  -46.1595 H         1 UNK         0.0600 
    200 H200       -1.3346  -24.9785  -46.7995 H         1 UNK         0.3000 
    201 H201       -1.0831  -27.8190  -46.9554 H         1 UNK         0.0600 
    202 H202        1.0720  -25.6410  -46.8599 H         1 UNK         0.0600 
    203 H203        1.3334  -27.3545  -46.5607 H         1 UNK         0.0600 
    204 H204        0.3228  -26.4186  -45.4688 H         1 UNK         0.0600 
    205 H205       -0.2083  -25.2075  -49.2244 H         1 UNK         0.3000 
    206 H206        0.9331  -26.9153  -51.2483 H         1 UNK         0.0600 
    207 H207        1.6089  -24.5435  -50.9237 H         1 UNK         0.0600 
    208 H208        1.0137  -24.8165  -52.5541 H         1 UNK         0.0600 
    209 H209       -0.0094  -24.0099  -51.3735 H         1 UNK         0.0600 
    210 H210       -1.1282  -28.3208  -50.8826 H         1 UNK         0.3000 
    211 H211       -2.7701  -29.4606  -51.8300 H         1 UNK         0.0600 
    212 H212       -2.0859  -27.9623  -54.4110 H         1 UNK         0.0600 
    213 H213       -2.9205  -29.5047  -54.2875 H         1 UNK         0.0600 
    214 H214       -1.2383  -29.3839  -53.8028 H         1 UNK         0.0600 
    215 H215       -3.6610  -27.2776  -50.3678 H         1 UNK         0.3000 
    216 H216       -5.5161  -26.2594  -49.7635 H         1 UNK         0.0600 
    217 H217       -6.4482  -28.5461  -50.0816 H         1 UNK         0.0600 
    218 H218       -7.6615  -27.3030  -50.3288 H         1 UNK         0.0600 
    219 H219       -6.9537  -28.1185  -51.7160 H         1 UNK         0.0600 
    220 H220       -4.0759  -24.7653  -51.6293 H         1 UNK         0.3000 
    221 H221       -5.9020  -23.4466  -53.4767 H         1 UNK         0.0600 
    222 H222       -3.1606  -22.5704  -52.4195 H         1 UNK         0.0600 
    223 H223       -3.4341  -23.5375  -53.8628 H         1 UNK         0.0600 
    224 H224       -4.0202  -21.8855  -53.7920 H         1 UNK         0.0600 
    225 H225       -4.9193  -23.1021  -50.1675 H         1 UNK         0.3000 
    226 H226       -5.5019  -21.8682  -48.4006 H         1 UNK         0.0600 
    227 H227       -7.3243  -23.4615  -48.5811 H         1 UNK         0.0600 
    228 H228       -8.0000  -21.9415  -48.0220 H         1 UNK         0.0600 
    229 H229       -8.2142  -22.4384  -49.7000 H         1 UNK         0.0600 
    230 H230       -8.1452  -20.4315  -50.2736 H         1 UNK         0.3000 
    231 H231       -7.7422  -17.8322  -49.1514 H         1 UNK         0.0600 
    232 H232       -9.9782  -18.7221  -49.7595 H         1 UNK         0.0600 
    233 H233       -9.5194  -18.7828  -51.4621 H         1 UNK         0.0600 
    234 H234       -9.6619  -17.2350  -50.6372 H         1 UNK         0.0600 
    235 H235       -6.3098  -19.3302  -51.8914 H         1 UNK         0.3000 
    236 H236       -6.0780  -17.4743  -53.8471 H         1 UNK         0.0600 
    237 H237       -3.9763  -19.4916  -52.9072 H         1 UNK         0.0600 
    238 H238       -5.2901  -19.7860  -54.0499 H         1 UNK         0.0600 
    239 H239       -3.9727  -18.7125  -54.4858 H         1 UNK         0.0600 
    240 H240       -4.2629  -17.2573  -50.8241 H         1 UNK         0.3000 
    241 H241       -3.4424  -14.5650  -51.5948 H         1 UNK         0.0600 
    242 H242       -5.1907  -14.9633  -48.2566 H         1 UNK         0.3800 
    243 H243       -5.5597  -15.6916  -49.8026 H         1 UNK         0.3800 
    244 H244       -1.4294  -15.6791  -52.2033 H         1 UNK         0.0800 
    245 H245       -1.1280  -14.7706  -50.7586 H         1 UNK         0.0800 
    246 H246        0.0502  -17.2959  -52.4868 H         1 UNK         0.0800 
    247 H247       -0.5929  -18.8234  -51.9529 H         1 UNK         0.0800 
@<TRIPOS>BOND
     1    1    2 1    
     2    1  127 1    
     3    1  128 1    
     4    1  129 1    
     5    2    3 2    
     6    2    4 am   BACKBONE|DICT|INTERRES
     7    4    5 1    
     8    4  130 1    
     9    5    6 1    
    10    5   65 1    
    11    5  131 1    
    12    6    7 1    
    13    6  132 1    
    14    6  133 1    
    15    7    8 1    
    16    8    9 1    
    17    8  134 1    
    18    8  135 1    
    19    9   10 ar   
    20    9   14 ar   
    21   10   11 ar   
    22   10  136 1    
    23   11   12 ar   
    24   11  126 1    
    25   12   13 ar   
    26   12  137 1    
    27   13   14 ar   
    28   13   15 1    
    29   14  138 1    
    30   15   16 1    
    31   15  139 1    
    32   15  140 1    
    33   16   17 1    
    34   17   18 1    
    35   17  141 1    
    36   17  142 1    
    37   18   19 1    
    38   18   67 1    
    39   18  143 1    
    40   19   20 am   BACKBONE|DICT|INTERRES
    41   19  144 1    
    42   20   21 2    
    43   20   22 1    
    44   22   23 1    
    45   22   24 1    
    46   22  145 1    
    47   23  146 1    
    48   23  147 1    
    49   23  148 1    
    50   24   25 am   BACKBONE|DICT|INTERRES
    51   24  149 1    
    52   25   26 2    
    53   25   27 1    
    54   27   28 1    
    55   27   29 1    
    56   27  150 1    
    57   28  151 1    
    58   28  152 1    
    59   28  153 1    
    60   29   30 am   BACKBONE|DICT|INTERRES
    61   29  154 1    
    62   30   31 2    
    63   30   32 1    
    64   32   33 1    
    65   32   34 1    
    66   32  155 1    
    67   33  156 1    
    68   33  157 1    
    69   33  158 1    
    70   34   35 am   BACKBONE|DICT|INTERRES
    71   34  159 1    
    72   35   36 2    
    73   35   37 1    
    74   37   38 1    
    75   37   39 1    
    76   37  160 1    
    77   38  161 1    
    78   38  162 1    
    79   38  163 1    
    80   39   40 am   BACKBONE|DICT|INTERRES
    81   39  164 1    
    82   40   41 2    
    83   40   42 1    
    84   42   43 1    
    85   42   44 1    
    86   42  165 1    
    87   43  166 1    
    88   43  167 1    
    89   43  168 1    
    90   44   45 am   BACKBONE|DICT|INTERRES
    91   44  169 1    
    92   45   46 2    
    93   45   47 1    
    94   47   48 1    
    95   47   49 1    
    96   47  170 1    
    97   48  171 1    
    98   48  172 1    
    99   48  173 1    
   100   49   50 am   BACKBONE|DICT|INTERRES
   101   49  174 1    
   102   50   51 2    
   103   50   52 1    
   104   52   53 1    
   105   52   54 1    
   106   52  175 1    
   107   53  176 1    
   108   53  177 1    
   109   53  178 1    
   110   54   55 am   BACKBONE|DICT|INTERRES
   111   54  179 1    
   112   55   56 2    
   113   55   57 1    
   114   57   58 1    
   115   57   59 1    
   116   57  180 1    
   117   58  181 1    
   118   58  182 1    
   119   58  183 1    
   120   59   60 am   BACKBONE|DICT|INTERRES
   121   59  184 1    
   122   60   61 2    
   123   60   62 1    
   124   62   63 1    
   125   62   64 1    
   126   62  185 1    
   127   63  186 1    
   128   63  187 1    
   129   63  188 1    
   130   64   65 am   BACKBONE|DICT|INTERRES
   131   64  189 1    
   132   65   66 2    
   133   67   68 2    
   134   67   69 am   BACKBONE|DICT|INTERRES
   135   69   70 1    
   136   69  190 1    
   137   70   71 1    
   138   70   72 1    
   139   70  191 1    
   140   71  192 1    
   141   71  193 1    
   142   71  194 1    
   143   72   73 2    
   144   72   74 am   BACKBONE|DICT|INTERRES
   145   74   75 1    
   146   74  195 1    
   147   75   76 1    
   148   75   77 1    
   149   75  196 1    
   150   76  197 1    
   151   76  198 1    
   152   76  199 1    
   153   77   78 2    
   154   77   79 am   BACKBONE|DICT|INTERRES
   155   79   80 1    
   156   79  200 1    
   157   80   81 1    
   158   80   82 1    
   159   80  201 1    
   160   81  202 1    
   161   81  203 1    
   162   81  204 1    
   163   82   83 2    
   164   82   84 am   BACKBONE|DICT|INTERRES
   165   84   85 1    
   166   84  205 1    
   167   85   86 1    
   168   85   87 1    
   169   85  206 1    
   170   86  207 1    
   171   86  208 1    
   172   86  209 1    
   173   87   88 2    
   174   87   89 am   BACKBONE|DICT|INTERRES
   175   89   90 1    
   176   89  210 1    
   177   90   91 1    
   178   90   92 1    
   179   90  211 1    
   180   91  212 1    
   181   91  213 1    
   182   91  214 1    
   183   92   93 2    
   184   92   94 am   BACKBONE|DICT|INTERRES
   185   94   95 1    
   186   94  215 1    
   187   95   96 1    
   188   95   97 1    
   189   95  216 1    
   190   96  217 1    
   191   96  218 1    
   192   96  219 1    
   193   97   98 2    
   194   97   99 am   BACKBONE|DICT|INTERRES
   195   99  100 1    
   196   99  220 1    
   197  100  101 1    
   198  100  102 1    
   199  100  221 1    
   200  101  222 1    
   201  101  223 1    
   202  101  224 1    
   203  102  103 2    
   204  102  104 am   BACKBONE|DICT|INTERRES
   205  104  105 1    
   206  104  225 1    
   207  105  106 1    
   208  105  107 1    
   209  105  226 1    
   210  106  227 1    
   211  106  228 1    
   212  106  229 1    
   213  107  108 2    
   214  107  109 am   BACKBONE|DICT|INTERRES
   215  109  110 1    
   216  109  230 1    
   217  110  111 1    
   218  110  112 1    
   219  110  231 1    
   220  111  232 1    
   221  111  233 1    
   222  111  234 1    
   223  112  113 2    
   224  112  114 am   BACKBONE|DICT|INTERRES
   225  114  115 1    
   226  114  235 1    
   227  115  116 1    
   228  115  117 1    
   229  115  236 1    
   230  116  237 1    
   231  116  238 1    
   232  116  239 1    
   233  117  118 2    
   234  117  119 am   BACKBONE|DICT|INTERRES
   235  119  120 1    
   236  119  240 1    
   237  120  121 1    
   238  120  124 1    
   239  120  241 1    
   240  121  122 am   BACKBONE|DICT|INTERRES
   241  121  123 2    
   242  122  242 1    
   243  122  243 1    
   244  124  125 1    
   245  124  244 1    
   246  124  245 1    
   247  125  126 1    
   248  126  246 1    
   249  126  247 1    
@<TRIPOS>SUBSTRUCTURE
     1 UNK         1 GROUP             0       ****    0 ROOT    
