@<TRIPOS>MOLECULE
3R540
247   249    1
SMALL
USER_CHARGES


@<TRIPOS>ATOM
      1 CA         -6.1599  -15.7275  -48.0945 C.3       0 UNK        -0.1800 
      2 C          -4.7079  -15.8742  -47.6629 C.2       0 UNK         0.5000 
      3 O          -4.3992  -16.7554  -46.8625 O.2       0 UNK        -0.5000 
      4 N          -3.8246  -15.0188  -48.1977 N.am      1 UNK        -0.5000 
      5 CA         -2.3715  -15.0085  -47.9736 C.3       1 UNK         0.1400 
      6 C6         -1.6418  -16.2447  -48.5665 C.3       23 UNK        -0.0398 
      7 S7         -1.8094  -16.3419  -50.3830 S.3       23 UNK        -0.2404 
      8 C8         -0.2184  -15.6359  -50.9272 C.3       23 UNK        -0.0205 
      9 C9          0.8424  -16.6901  -51.2300 C.ar      23 UNK        -0.0193 
     10 C10         1.5091  -16.6653  -52.4596 C.ar      23 UNK        -0.1150 
     11 C11         2.5103  -17.5965  -52.7494 C.ar      23 UNK        -0.0193 
     12 C12         2.8453  -18.5625  -51.7976 C.ar      23 UNK        -0.1150 
     13 C13         2.1769  -18.6114  -50.5721 C.ar      23 UNK        -0.0193 
     14 C14         1.1867  -17.6677  -50.2892 C.ar      23 UNK        -0.1150 
     15 C15         2.5262  -19.6891  -49.5599 C.3       23 UNK        -0.0205 
     16 S16         1.6793  -21.2518  -49.9434 S.3       23 UNK        -0.2404 
     17 C17        -0.0086  -20.9657  -49.3055 C.3       23 UNK        -0.0398 
     18 CA         -0.3406  -21.9676  -48.1745 C.3       11 UNK         0.1400 
     19 N           0.5024  -21.7592  -46.9951 N.am      11 UNK        -0.5000 
     20 C           0.9706  -22.7576  -46.2360 C.2       10 UNK         0.5000 
     21 O           0.4881  -23.8904  -46.2375 O.2       10 UNK        -0.5000 
     22 CA          2.2126  -22.4530  -45.3751 C.3       10 UNK         0.1400 
     23 CB          3.3029  -21.7146  -46.1735 C.3       10 UNK        -0.1800 
     24 N           1.8574  -21.6591  -44.2094 N.am      10 UNK        -0.5000 
     25 C           1.3674  -22.1495  -43.0648 C.2       9 UNK         0.5000 
     26 O           1.3405  -23.3476  -42.7845 O.2       9 UNK        -0.5000 
     27 CA          0.7741  -21.1247  -42.0760 C.3       9 UNK         0.1400 
     28 CB          1.8161  -20.7198  -41.0233 C.3       9 UNK        -0.1800 
     29 N           0.2513  -19.9187  -42.7265 N.am      9 UNK        -0.5000 
     30 C          -0.7054  -19.9058  -43.6659 C.2       8 UNK         0.5000 
     31 O          -1.2703  -20.9181  -44.0796 O.2       8 UNK        -0.5000 
     32 CA         -1.0273  -18.5466  -44.3026 C.3       8 UNK         0.1400 
     33 CB         -1.9292  -17.7053  -43.3858 C.3       8 UNK        -0.1800 
     34 N           0.2000  -17.8206  -44.6208 N.am      8 UNK        -0.5000 
     35 C           0.9753  -18.0816  -45.6827 C.2       7 UNK         0.5000 
     36 O           0.7150  -18.9471  -46.5188 O.2       7 UNK        -0.5000 
     37 CA          2.2910  -17.2880  -45.8074 C.3       7 UNK         0.1400 
     38 CB          2.1031  -16.0119  -46.6389 C.3       7 UNK        -0.1800 
     39 N           2.8680  -16.9418  -44.5081 N.am      7 UNK        -0.5000 
     40 C           3.3838  -17.8434  -43.6603 C.2       6 UNK         0.5000 
     41 O           3.4567  -19.0470  -43.9077 O.2       6 UNK        -0.5000 
     42 CA          3.8602  -17.3235  -42.2926 C.3       6 UNK         0.1400 
     43 CB          5.3110  -16.8279  -42.3807 C.3       6 UNK        -0.1800 
     44 N           3.0243  -16.2549  -41.7461 N.am      6 UNK        -0.5000 
     45 C           1.7172  -16.3285  -41.4688 C.2       5 UNK         0.5000 
     46 O           1.0449  -17.3391  -41.6719 O.2       5 UNK        -0.5000 
     47 CA          1.0282  -15.0703  -40.8953 C.3       5 UNK         0.1400 
     48 CB          0.9831  -15.1221  -39.3573 C.3       5 UNK        -0.1800 
     49 N           1.5681  -13.7875  -41.3725 N.am      5 UNK        -0.5000 
     50 C           2.7897  -13.2597  -41.1928 C.2       4 UNK         0.5000 
     51 O           3.6602  -13.7900  -40.5011 O.2       4 UNK        -0.5000 
     52 CA          3.1151  -11.9443  -41.9356 C.3       4 UNK         0.1400 
     53 CB          4.5919  -11.8799  -42.3792 C.3       4 UNK        -0.1800 
     54 N           2.2337  -11.6501  -43.0726 N.am      4 UNK        -0.5000 
     55 C           2.0339  -12.3907  -44.1733 C.2       3 UNK         0.5000 
     56 O           2.5570  -13.4881  -44.3818 O.2       3 UNK        -0.5000 
     57 CA          1.0419  -11.7983  -45.1943 C.3       3 UNK         0.1400 
     58 CB          1.6172  -11.8607  -46.6192 C.3       3 UNK        -0.1800 
     59 N          -0.2768  -12.4377  -45.1960 N.am      3 UNK        -0.5000 
     60 C          -1.0396  -12.7910  -44.1494 C.2       2 UNK         0.5000 
     61 O          -0.7068  -12.6490  -42.9715 O.2       2 UNK        -0.5000 
     62 CA         -2.4310  -13.3878  -44.4652 C.3       2 UNK         0.1400 
     63 CB         -3.5420  -12.4114  -44.0483 C.3       2 UNK        -0.1800 
     64 N          -2.6389  -13.7584  -45.8712 N.am      2 UNK        -0.5000 
     65 C          -2.0093  -14.7653  -46.4917 C.2       1 UNK         0.5000 
     66 O          -1.1664  -15.4649  -45.9375 O.2       1 UNK        -0.5000 
     67 C          -1.8466  -21.9884  -47.8662 C.2       11 UNK         0.5000 
     68 O          -2.5881  -22.5940  -48.6406 O.2       11 UNK        -0.5000 
     69 N          -2.3003  -21.3696  -46.7677 N.am      12 UNK        -0.5000 
     70 CA         -3.7026  -21.4550  -46.3386 C.3       12 UNK         0.1400 
     71 CB         -4.1105  -20.2245  -45.5154 C.3       12 UNK        -0.1800 
     72 C          -3.9658  -22.7620  -45.5779 C.2       12 UNK         0.5000 
     73 O          -5.0261  -23.3591  -45.7586 O.2       12 UNK        -0.5000 
     74 N          -2.9699  -23.2285  -44.8113 N.am      13 UNK        -0.5000 
     75 CA         -2.9573  -24.5459  -44.1704 C.3       13 UNK         0.1400 
     76 CB         -1.7312  -24.6508  -43.2543 C.3       13 UNK        -0.1800 
     77 C          -2.9740  -25.7010  -45.1926 C.2       13 UNK         0.5000 
     78 O          -3.6337  -26.7137  -44.9584 O.2       13 UNK        -0.5000 
     79 N          -2.2867  -25.5050  -46.3271 N.am      14 UNK        -0.5000 
     80 CA         -2.2920  -26.4077  -47.4813 C.3       14 UNK         0.1400 
     81 CB         -1.0442  -26.1221  -48.3322 C.3       14 UNK        -0.1800 
     82 C          -3.5629  -26.2925  -48.3515 C.2       14 UNK         0.5000 
     83 O          -3.7480  -27.1179  -49.2462 O.2       14 UNK        -0.5000 
     84 N          -4.3917  -25.2663  -48.1008 N.am      15 UNK        -0.5000 
     85 CA         -5.6063  -24.8847  -48.8336 C.3       15 UNK         0.1400 
     86 CB         -6.6845  -25.9834  -48.7370 C.3       15 UNK        -0.1800 
     87 C          -5.3447  -24.4281  -50.2864 C.2       15 UNK         0.5000 
     88 O          -6.2649  -24.4262  -51.1049 O.2       15 UNK        -0.5000 
     89 N          -4.1054  -24.0141  -50.5765 N.am      16 UNK        -0.5000 
     90 CA         -3.6828  -23.4564  -51.8581 C.3       16 UNK         0.1400 
     91 CB         -2.1658  -23.6443  -52.0124 C.3       16 UNK        -0.1800 
     92 C          -4.0678  -21.9726  -51.9658 C.2       16 UNK         0.5000 
     93 O          -4.5393  -21.5383  -53.0177 O.2       16 UNK        -0.5000 
     94 N          -3.9193  -21.2298  -50.8580 N.am      17 UNK        -0.5000 
     95 CA         -4.2325  -19.8001  -50.7653 C.3       17 UNK         0.1400 
     96 CB         -3.7592  -19.2515  -49.4156 C.3       17 UNK        -0.1800 
     97 C          -5.7253  -19.4821  -50.9690 C.2       17 UNK         0.5000 
     98 O          -6.0528  -18.3841  -51.4162 O.2       17 UNK        -0.5000 
     99 N          -6.5990  -20.4630  -50.7001 N.am      18 UNK        -0.5000 
    100 CA        -8.0370  -20.4102  -50.9759 C.3       18 UNK         0.1400 
    101 CB        -8.7103  -21.6353  -50.3391 C.3       18 UNK        -0.1800 
    102 C         -8.3661  -20.3319  -52.4823 C.2       18 UNK         0.5000 
    103 O         -9.4078  -19.7856  -52.8458 O.2       18 UNK        -0.5000 
    104 N         -7.4626  -20.8503  -53.3251 N.am      19 UNK        -0.5000 
    105 CA        -7.5067  -20.7583  -54.7851 C.3       19 UNK         0.1400 
    106 CB        -7.1551  -22.1399  -55.3638 C.3       19 UNK        -0.1800 
    107 C         -6.5401  -19.6794  -55.3199 C.2       19 UNK         0.5000 
    108 O         -6.3913  -19.5580  -56.5365 O.2       19 UNK        -0.5000 
    109 N         -5.8838  -18.9384  -54.4115 N.am      20 UNK        -0.5000 
    110 CA        -4.8194  -17.9556  -54.6453 C.3       20 UNK         0.1400 
    111 CB        -5.3637  -16.7275  -55.4041 C.3       20 UNK        -0.1800 
    112 C         -3.5566  -18.5604  -55.2999 C.2       20 UNK         0.5000 
    113 O         -2.8336  -17.8545  -56.0057 O.2       20 UNK        -0.5000 
    114 N         -3.3128  -19.8546  -55.0588 N.am      21 UNK        -0.5000 
    115 CA        -2.1628  -20.5970  -55.5619 C.3       21 UNK         0.1400 
    116 CB        -2.6116  -22.0308  -55.8887 C.3       21 UNK        -0.1800 
    117 C         -1.0283  -20.6054  -54.5247 C.2       21 UNK         0.5000 
    118 O         -1.2823  -20.4918  -53.3236 O.2       21 UNK        -0.5000 
    119 N          0.2016  -20.7797  -55.0173 N.am      22 UNK        -0.5000 
    120 CA         1.4311  -20.8572  -54.2090 C.3       22 UNK         0.1400 
    121 C          1.7942  -22.3022  -53.7508 C.2       22 UNK         0.5000 
    122 N          0.9971  -23.3207  -54.0515 N.am      22 UNK        -0.7600 
    123 O          2.8256  -22.5095  -53.1183 O.2       22 UNK        -0.5000 
    124 C124        2.6301  -20.1869  -54.9323 C.3       23 UNK        -0.0398 
    125 S125        2.3220  -18.4433  -55.3847 S.3       23 UNK        -0.2404 
    126 C126        3.2337  -17.5490  -54.0867 C.3       23 UNK        -0.0205 
    127 H127       -6.2992  -14.8860  -48.7735 H         1 UNK         0.0600 
    128 H128       -6.7970  -15.5719  -47.2239 H         1 UNK         0.0600 
    129 H129       -6.4902  -16.6331  -48.6039 H         1 UNK         0.0600 
    130 H130       -4.1593  -14.3254  -48.8518 H         1 UNK         0.3000 
    131 H131       -1.9950  -14.1314  -48.5022 H         1 UNK         0.0600 
    132 H132       -0.5822  -16.2106  -48.3169 H         1 UNK         0.0800 
    133 H133       -2.0181  -17.1675  -48.1232 H         1 UNK         0.0800 
    134 H134        0.1661  -14.9401  -50.1805 H         1 UNK         0.0800 
    135 H135       -0.4153  -15.0377  -51.8180 H         1 UNK         0.0800 
    136 H136        1.2540  -15.9160  -53.1959 H         1 UNK         0.1150 
    137 H137        3.6139  -19.2908  -52.0154 H         1 UNK         0.1150 
    138 H138        0.6808  -17.7086  -49.3375 H         1 UNK         0.1150 
    139 H139        2.2844  -19.3682  -48.5474 H         1 UNK         0.0800 
    140 H140        3.6030  -19.8633  -49.5721 H         1 UNK         0.0800 
    141 H141       -0.6941  -21.0779  -50.1480 H         1 UNK         0.0800 
    142 H142       -0.1204  -19.9386  -48.9572 H         1 UNK         0.0800 
    143 H143       -0.1196  -22.9603  -48.5724 H         1 UNK         0.0600 
    144 H144        0.8630  -20.8172  -46.8732 H         1 UNK         0.3000 
    145 H145        2.6310  -23.4080  -45.0503 H         1 UNK         0.0600 
    146 H146        3.5414  -22.2448  -47.0965 H         1 UNK         0.0600 
    147 H147        4.2234  -21.6382  -45.5946 H         1 UNK         0.0600 
    148 H148        3.0022  -20.7017  -46.4426 H         1 UNK         0.0600 
    149 H149        1.9034  -20.6539  -44.3123 H         1 UNK         0.3000 
    150 H150       -0.0614  -21.6078  -41.5656 H         1 UNK         0.0600 
    151 H151        2.6888  -20.2573  -41.4835 H         1 UNK         0.0600 
    152 H152        2.1632  -21.5895  -40.4641 H         1 UNK         0.0600 
    153 H153        1.4006  -20.0134  -40.3042 H         1 UNK         0.0600 
    154 H154        0.6440  -19.0304  -42.4248 H         1 UNK         0.3000 
    155 H155       -1.5715  -18.7246  -45.2320 H         1 UNK         0.0600 
    156 H156       -2.2151  -16.7705  -43.8657 H         1 UNK         0.0600 
    157 H157       -1.4453  -17.4625  -42.4405 H         1 UNK         0.0600 
    158 H158       -2.8507  -18.2396  -43.1521 H         1 UNK         0.0600 
    159 H159        0.4985  -17.1192  -43.9594 H         1 UNK         0.3000 
    160 H160        3.0047  -17.9253  -46.3340 H         1 UNK         0.0600 
    161 H161        1.4237  -15.3123  -46.1526 H         1 UNK         0.0600 
    162 H162        1.6979  -16.2407  -47.6240 H         1 UNK         0.0600 
    163 H163        3.0524  -15.4982  -46.7910 H         1 UNK         0.0600 
    164 H164        2.8391  -15.9669  -44.2373 H         1 UNK         0.3000 
    165 H165        3.8264  -18.1576  -41.5899 H         1 UNK         0.0600 
    166 H166        5.9683  -17.6076  -42.7679 H         1 UNK         0.0600 
    167 H167        5.4007  -15.9632  -43.0396 H         1 UNK         0.0600 
    168 H168        5.6898  -16.5414  -41.3994 H         1 UNK         0.0600 
    169 H169        3.4951  -15.3930  -41.4885 H         1 UNK         0.3000 
    170 H170       -0.0022  -15.0993  -41.2533 H         1 UNK         0.0600 
    171 H171        0.4376  -14.2708  -38.9502 H         1 UNK         0.0600 
    172 H172        1.9811  -15.1234  -38.9185 H         1 UNK         0.0600 
    173 H173        0.4776  -16.0259  -39.0149 H         1 UNK         0.0600 
    174 H174        0.9331  -13.2717  -41.9754 H         1 UNK         0.3000 
    175 H175        2.9527  -11.1454  -41.2109 H         1 UNK         0.0600 
    176 H176        4.8465  -12.6974  -43.0547 H         1 UNK         0.0600 
    177 H177        5.2644  -11.9423  -41.5228 H         1 UNK         0.0600 
    178 H178        4.8100  -10.9423  -42.8905 H         1 UNK         0.0600 
    179 H179        1.7051  -10.7931  -42.9852 H         1 UNK         0.3000 
    180 H180        0.8845  -10.7463  -44.9490 H         1 UNK         0.0600 
    181 H181        1.7232  -12.8894  -46.9662 H         1 UNK         0.0600 
    182 H182        2.6035  -11.3969  -46.6635 H         1 UNK         0.0600 
    183 H183        0.9792  -11.3322  -47.3277 H         1 UNK         0.0600 
    184 H184       -0.6637  -12.6211  -46.1084 H         1 UNK         0.3000 
    185 H185       -2.5320  -14.2916  -43.8611 H         1 UNK         0.0600 
    186 H186       -3.4529  -12.1410  -42.9952 H         1 UNK         0.0600 
    187 H187       -3.5041  -11.4885  -44.6283 H         1 UNK         0.0600 
    188 H188       -4.5287  -12.8547  -44.1842 H         1 UNK         0.0600 
    189 H189       -3.3296  -13.2283  -46.3829 H         1 UNK         0.3000 
    190 H190       -1.6423  -20.9593  -46.1158 H         1 UNK         0.3000 
    191 H191       -4.3437  -21.4731  -47.2214 H         1 UNK         0.0600 
    192 H192       -3.8260  -19.2996  -46.0165 H         1 UNK         0.0600 
    193 H193       -5.1923  -20.1981  -45.3808 H         1 UNK         0.0600 
    194 H194       -3.6688  -20.2244  -44.5207 H         1 UNK         0.0600 
    195 H195       -2.1580  -22.6364  -44.6683 H         1 UNK         0.3000 
    196 H196       -3.8554  -24.6282  -43.5548 H         1 UNK         0.0600 
    197 H197       -1.7293  -25.5958  -42.7100 H         1 UNK         0.0600 
    198 H198       -1.7160  -23.8481  -42.5167 H         1 UNK         0.0600 
    199 H199       -0.8034  -24.5992  -43.8247 H         1 UNK         0.0600 
    200 H200       -1.7115  -24.6763  -46.4039 H         1 UNK         0.3000 
    201 H201       -2.2318  -27.4366  -47.1207 H         1 UNK         0.0600 
    202 H202       -0.9654  -26.8266  -49.1611 H         1 UNK         0.0600 
    203 H203       -0.1321  -26.2137  -47.7422 H         1 UNK         0.0600 
    204 H204       -1.0710  -25.1195  -48.7586 H         1 UNK         0.0600 
    205 H205       -4.1609  -24.6609  -47.3241 H         1 UNK         0.3000 
    206 H206       -5.9956  -24.0056  -48.3185 H         1 UNK         0.0600 
    207 H207       -6.8534  -26.2789  -47.7014 H         1 UNK         0.0600 
    208 H208       -7.6382  -25.6312  -49.1316 H         1 UNK         0.0600 
    209 H209       -6.4088  -26.8746  -49.3010 H         1 UNK         0.0600 
    210 H210       -3.4349  -23.9535  -49.8182 H         1 UNK         0.3000 
    211 H211       -4.1790  -23.9964  -52.6673 H         1 UNK         0.0600 
    212 H212       -1.8928  -24.6985  -51.9647 H         1 UNK         0.0600 
    213 H213       -1.8208  -23.2629  -52.9729 H         1 UNK         0.0600 
    214 H214       -1.6089  -23.1201  -51.2354 H         1 UNK         0.0600 
    215 H215       -3.5267  -21.6731  -50.0334 H         1 UNK         0.3000 
    216 H216       -3.6754  -19.2894  -51.5541 H         1 UNK         0.0600 
    217 H217       -4.2997  -19.7001  -48.5852 H         1 UNK         0.0600 
    218 H218       -3.9325  -18.1775  -49.3617 H         1 UNK         0.0600 
    219 H219       -2.6926  -19.4152  -49.2665 H         1 UNK         0.0600 
    220 H220       -6.2377  -21.3378  -50.3510 H         1 UNK         0.3000 
    221 H221       -8.4380  -19.5114  -50.5028 H         1 UNK         0.0600 
    222 H222       -8.3416  -22.5668  -50.7705 H         1 UNK         0.0600 
    223 H223       -8.5342  -21.6697  -49.2637 H         1 UNK         0.0600 
    224 H224       -9.7902  -21.6094  -50.4901 H         1 UNK         0.0600 
    225 H225       -6.6183  -21.2632  -52.9451 H         1 UNK         0.3000 
    226 H226       -8.5109  -20.4918  -55.1205 H         1 UNK         0.0600 
    227 H227       -7.8325  -22.9076  -54.9897 H         1 UNK         0.0600 
    228 H228       -7.2328  -22.1427  -56.4517 H         1 UNK         0.0600 
    229 H229       -6.1374  -22.4368  -55.1068 H         1 UNK         0.0600 
    230 H230       -6.1102  -19.0889  -53.4368 H         1 UNK         0.3000 
    231 H231       -4.5048  -17.6144  -53.6582 H         1 UNK         0.0600 
    232 H232       -5.6333  -16.9720  -56.4317 H         1 UNK         0.0600 
    233 H233       -4.6206  -15.9303  -55.4426 H         1 UNK         0.0600 
    234 H234       -6.2473  -16.3207  -54.9122 H         1 UNK         0.0600 
    235 H235       -3.9033  -20.3556  -54.4011 H         1 UNK         0.3000 
    236 H236       -1.7956  -20.1351  -56.4809 H         1 UNK         0.0600 
    237 H237       -2.9775  -22.5538  -55.0053 H         1 UNK         0.0600 
    238 H238       -3.4130  -22.0307  -56.6280 H         1 UNK         0.0600 
    239 H239       -1.7900  -22.6166  -56.3020 H         1 UNK         0.0600 
    240 H240        0.3262  -20.8727  -56.0148 H         1 UNK         0.3000 
    241 H241        1.2628  -20.3038  -53.2840 H         1 UNK         0.0600 
    242 H242        0.1538  -23.1738  -54.5797 H         1 UNK         0.3800 
    243 H243        1.2491  -24.2489  -53.7511 H         1 UNK         0.3800 
    244 H244        3.5301  -20.2372  -54.3177 H         1 UNK         0.0800 
    245 H245        2.8663  -20.7323  -55.8473 H         1 UNK         0.0800 
    246 H246        4.2434  -17.9522  -53.9947 H         1 UNK         0.0800 
    247 H247        3.3531  -16.5100  -54.3974 H         1 UNK         0.0800 
@<TRIPOS>BOND
     1    1    2 1    
     2    1  127 1    
     3    1  128 1    
     4    1  129 1    
     5    2    3 2    
     6    2    4 am   BACKBONE|DICT|INTERRES
     7    4    5 1    
     8    4  130 1    
     9    5    6 1    
    10    5   65 1    
    11    5  131 1    
    12    6    7 1    
    13    6  132 1    
    14    6  133 1    
    15    7    8 1    
    16    8    9 1    
    17    8  134 1    
    18    8  135 1    
    19    9   10 ar   
    20    9   14 ar   
    21   10   11 ar   
    22   10  136 1    
    23   11   12 ar   
    24   11  126 1    
    25   12   13 ar   
    26   12  137 1    
    27   13   14 ar   
    28   13   15 1    
    29   14  138 1    
    30   15   16 1    
    31   15  139 1    
    32   15  140 1    
    33   16   17 1    
    34   17   18 1    
    35   17  141 1    
    36   17  142 1    
    37   18   19 1    
    38   18   67 1    
    39   18  143 1    
    40   19   20 am   BACKBONE|DICT|INTERRES
    41   19  144 1    
    42   20   21 2    
    43   20   22 1    
    44   22   23 1    
    45   22   24 1    
    46   22  145 1    
    47   23  146 1    
    48   23  147 1    
    49   23  148 1    
    50   24   25 am   BACKBONE|DICT|INTERRES
    51   24  149 1    
    52   25   26 2    
    53   25   27 1    
    54   27   28 1    
    55   27   29 1    
    56   27  150 1    
    57   28  151 1    
    58   28  152 1    
    59   28  153 1    
    60   29   30 am   BACKBONE|DICT|INTERRES
    61   29  154 1    
    62   30   31 2    
    63   30   32 1    
    64   32   33 1    
    65   32   34 1    
    66   32  155 1    
    67   33  156 1    
    68   33  157 1    
    69   33  158 1    
    70   34   35 am   BACKBONE|DICT|INTERRES
    71   34  159 1    
    72   35   36 2    
    73   35   37 1    
    74   37   38 1    
    75   37   39 1    
    76   37  160 1    
    77   38  161 1    
    78   38  162 1    
    79   38  163 1    
    80   39   40 am   BACKBONE|DICT|INTERRES
    81   39  164 1    
    82   40   41 2    
    83   40   42 1    
    84   42   43 1    
    85   42   44 1    
    86   42  165 1    
    87   43  166 1    
    88   43  167 1    
    89   43  168 1    
    90   44   45 am   BACKBONE|DICT|INTERRES
    91   44  169 1    
    92   45   46 2    
    93   45   47 1    
    94   47   48 1    
    95   47   49 1    
    96   47  170 1    
    97   48  171 1    
    98   48  172 1    
    99   48  173 1    
   100   49   50 am   BACKBONE|DICT|INTERRES
   101   49  174 1    
   102   50   51 2    
   103   50   52 1    
   104   52   53 1    
   105   52   54 1    
   106   52  175 1    
   107   53  176 1    
   108   53  177 1    
   109   53  178 1    
   110   54   55 am   BACKBONE|DICT|INTERRES
   111   54  179 1    
   112   55   56 2    
   113   55   57 1    
   114   57   58 1    
   115   57   59 1    
   116   57  180 1    
   117   58  181 1    
   118   58  182 1    
   119   58  183 1    
   120   59   60 am   BACKBONE|DICT|INTERRES
   121   59  184 1    
   122   60   61 2    
   123   60   62 1    
   124   62   63 1    
   125   62   64 1    
   126   62  185 1    
   127   63  186 1    
   128   63  187 1    
   129   63  188 1    
   130   64   65 am   BACKBONE|DICT|INTERRES
   131   64  189 1    
   132   65   66 2    
   133   67   68 2    
   134   67   69 am   BACKBONE|DICT|INTERRES
   135   69   70 1    
   136   69  190 1    
   137   70   71 1    
   138   70   72 1    
   139   70  191 1    
   140   71  192 1    
   141   71  193 1    
   142   71  194 1    
   143   72   73 2    
   144   72   74 am   BACKBONE|DICT|INTERRES
   145   74   75 1    
   146   74  195 1    
   147   75   76 1    
   148   75   77 1    
   149   75  196 1    
   150   76  197 1    
   151   76  198 1    
   152   76  199 1    
   153   77   78 2    
   154   77   79 am   BACKBONE|DICT|INTERRES
   155   79   80 1    
   156   79  200 1    
   157   80   81 1    
   158   80   82 1    
   159   80  201 1    
   160   81  202 1    
   161   81  203 1    
   162   81  204 1    
   163   82   83 2    
   164   82   84 am   BACKBONE|DICT|INTERRES
   165   84   85 1    
   166   84  205 1    
   167   85   86 1    
   168   85   87 1    
   169   85  206 1    
   170   86  207 1    
   171   86  208 1    
   172   86  209 1    
   173   87   88 2    
   174   87   89 am   BACKBONE|DICT|INTERRES
   175   89   90 1    
   176   89  210 1    
   177   90   91 1    
   178   90   92 1    
   179   90  211 1    
   180   91  212 1    
   181   91  213 1    
   182   91  214 1    
   183   92   93 2    
   184   92   94 am   BACKBONE|DICT|INTERRES
   185   94   95 1    
   186   94  215 1    
   187   95   96 1    
   188   95   97 1    
   189   95  216 1    
   190   96  217 1    
   191   96  218 1    
   192   96  219 1    
   193   97   98 2    
   194   97   99 am   BACKBONE|DICT|INTERRES
   195   99  100 1    
   196   99  220 1    
   197  100  101 1    
   198  100  102 1    
   199  100  221 1    
   200  101  222 1    
   201  101  223 1    
   202  101  224 1    
   203  102  103 2    
   204  102  104 am   BACKBONE|DICT|INTERRES
   205  104  105 1    
   206  104  225 1    
   207  105  106 1    
   208  105  107 1    
   209  105  226 1    
   210  106  227 1    
   211  106  228 1    
   212  106  229 1    
   213  107  108 2    
   214  107  109 am   BACKBONE|DICT|INTERRES
   215  109  110 1    
   216  109  230 1    
   217  110  111 1    
   218  110  112 1    
   219  110  231 1    
   220  111  232 1    
   221  111  233 1    
   222  111  234 1    
   223  112  113 2    
   224  112  114 am   BACKBONE|DICT|INTERRES
   225  114  115 1    
   226  114  235 1    
   227  115  116 1    
   228  115  117 1    
   229  115  236 1    
   230  116  237 1    
   231  116  238 1    
   232  116  239 1    
   233  117  118 2    
   234  117  119 am   BACKBONE|DICT|INTERRES
   235  119  120 1    
   236  119  240 1    
   237  120  121 1    
   238  120  124 1    
   239  120  241 1    
   240  121  122 am   BACKBONE|DICT|INTERRES
   241  121  123 2    
   242  122  242 1    
   243  122  243 1    
   244  124  125 1    
   245  124  244 1    
   246  124  245 1    
   247  125  126 1    
   248  126  246 1    
   249  126  247 1    
@<TRIPOS>SUBSTRUCTURE
     1 UNK         1 GROUP             0       ****    0 ROOT    
