@<TRIPOS>MOLECULE
3R540
247   249    1
SMALL
USER_CHARGES


@<TRIPOS>ATOM
      1 CA          1.7779  -12.3613  -53.0043 C.3       0 UNK        -0.1800 
      2 C           1.1680  -12.3487  -51.6095 C.2       0 UNK         0.5000 
      3 O           0.9446  -11.2737  -51.0537 O.2       0 UNK        -0.5000 
      4 N           0.9012  -13.5400  -51.0583 N.am      1 UNK        -0.5000 
      5 CA          0.3177  -13.7951  -49.7354 C.3       1 UNK         0.1400 
      6 C6         -1.1444  -13.2908  -49.5623 C.3       23 UNK        -0.0398 
      7 S7         -2.2912  -13.8148  -50.8864 S.3       23 UNK        -0.2404 
      8 C8         -2.7881  -15.4862  -50.3519 C.3       23 UNK        -0.0205 
      9 C9         -1.6639  -16.4941  -50.5421 C.ar      23 UNK        -0.0193 
     10 C10        -1.1816  -16.7669  -51.8247 C.ar      23 UNK        -0.1150 
     11 C11        -0.0890  -17.6158  -52.0092 C.ar      23 UNK        -0.0193 
     12 C12         0.5084  -18.2088  -50.8924 C.ar      23 UNK        -0.1150 
     13 C13         0.0138  -17.9837  -49.6016 C.ar      23 UNK        -0.0193 
     14 C14        -1.0790  -17.1213  -49.4383 C.ar      23 UNK        -0.1150 
     15 C15         0.7287  -18.6531  -48.4237 C.3       23 UNK        -0.0205 
     16 S16        -0.1138  -18.5746  -46.8021 S.3       23 UNK        -0.2404 
     17 C17        -1.4851  -19.7580  -47.0183 C.3       23 UNK        -0.0398 
     18 CA         -1.0878  -21.2148  -46.6731 C.3       11 UNK         0.1400 
     19 N          -0.5219  -21.3444  -45.3250 N.am      11 UNK        -0.5000 
     20 C           0.0111  -22.4576  -44.7990 C.2       10 UNK         0.5000 
     21 O           0.0387  -23.5447  -45.3772 O.2       10 UNK        -0.5000 
     22 CA          0.5674  -22.3467  -43.3723 C.3       10 UNK         0.1400 
     23 CB          2.0596  -21.9858  -43.4041 C.3       10 UNK        -0.1800 
     24 N          -0.1497  -21.3549  -42.5741 N.am      10 UNK        -0.5000 
     25 C          -1.3962  -21.4972  -42.1026 C.2       9 UNK         0.5000 
     26 O          -2.0970  -22.4851  -42.3278 O.2       9 UNK        -0.5000 
     27 CA         -1.9448  -20.3296  -41.2545 C.3       9 UNK         0.1400 
     28 CB         -3.0682  -20.7581  -40.2886 C.3       9 UNK        -0.1800 
     29 N          -0.8866  -19.5986  -40.5491 N.am      9 UNK        -0.5000 
     30 C          -0.0489  -20.0642  -39.6089 C.2       8 UNK         0.5000 
     31 O          -0.1259  -21.1897  -39.1149 O.2       8 UNK        -0.5000 
     32 CA          1.0979  -19.1309  -39.1674 C.3       8 UNK         0.1400 
     33 CB          2.4371  -19.6412  -39.7234 C.3       8 UNK        -0.1800 
     34 N           0.9131  -17.7407  -39.5896 N.am      8 UNK        -0.5000 
     35 C           0.0359  -16.8890  -39.0411 C.2       7 UNK         0.5000 
     36 O          -0.6611  -17.1610  -38.0630 O.2       7 UNK        -0.5000 
     37 CA         -0.1137  -15.5165  -39.7217 C.3       7 UNK         0.1400 
     38 CB          0.9314  -14.5318  -39.1763 C.3       7 UNK        -0.1800 
     39 N          -0.0138  -15.5849  -41.1829 N.am      7 UNK        -0.5000 
     40 C          -0.8903  -16.2118  -41.9822 C.2       6 UNK         0.5000 
     41 O          -1.8930  -16.7943  -41.5698 O.2       6 UNK        -0.5000 
     42 CA         -0.5716  -16.2411  -43.4886 C.3       6 UNK         0.1400 
     43 CB         -0.9289  -14.9071  -44.1603 C.3       6 UNK        -0.1800 
     44 N           0.8272  -16.5648  -43.7573 N.am      6 UNK        -0.5000 
     45 C           1.4060  -17.7384  -43.4687 C.2       5 UNK         0.5000 
     46 O           0.8126  -18.6953  -42.9701 O.2       5 UNK        -0.5000 
     47 CA          2.9137  -17.8460  -43.7466 C.3       5 UNK         0.1400 
     48 CB          3.1794  -18.1704  -45.2241 C.3       5 UNK        -0.1800 
     49 N           3.6248  -16.6233  -43.3746 N.am      5 UNK        -0.5000 
     50 C           3.7958  -16.2050  -42.1126 C.2       4 UNK         0.5000 
     51 O           3.3890  -16.8175  -41.1255 O.2       4 UNK        -0.5000 
     52 CA          4.5048  -14.8515  -41.9295 C.3       4 UNK         0.1400 
     53 CB          6.0268  -15.0098  -42.0630 C.3       4 UNK        -0.1800 
     54 N           4.0342  -13.8385  -42.8757 N.am      4 UNK        -0.5000 
     55 C           2.7912  -13.3380  -42.8842 C.2       3 UNK         0.5000 
     56 O           1.9125  -13.6741  -42.0930 O.2       3 UNK        -0.5000 
     57 CA          2.4589  -12.3159  -43.9830 C.3       3 UNK         0.1400 
     58 CB          2.8782  -10.9032  -43.5498 C.3       3 UNK        -0.1800 
     59 N           3.0546  -12.6221  -45.2849 N.am      3 UNK        -0.5000 
     60 C           2.8248  -13.7350  -45.9939 C.2       2 UNK         0.5000 
     61 O           2.1891  -14.7052  -45.5749 O.2       2 UNK        -0.5000 
     62 CA          3.4018  -13.7619  -47.4217 C.3       2 UNK         0.1400 
     63 CB          4.5003  -14.8301  -47.5380 C.3       2 UNK        -0.1800 
     64 N           2.3750  -14.0171  -48.4348 N.am      2 UNK        -0.5000 
     65 C           1.2513  -13.3045  -48.6098 C.2       1 UNK         0.5000 
     66 O           0.9651  -12.2982  -47.9574 O.2       1 UNK        -0.5000 
     67 C          -2.2727  -22.1694  -46.9337 C.2       11 UNK         0.5000 
     68 O          -2.5018  -22.5392  -48.0845 O.2       11 UNK        -0.5000 
     69 N          -2.9722  -22.6004  -45.8741 N.am      12 UNK        -0.5000 
     70 CA         -4.0328  -23.6090  -45.9286 C.3       12 UNK         0.1400 
     71 CB         -4.6641  -23.7482  -44.5360 C.3       12 UNK        -0.1800 
     72 C          -3.5511  -24.9811  -46.4439 C.2       12 UNK         0.5000 
     73 O          -4.3304  -25.6906  -47.0799 O.2       12 UNK        -0.5000 
     74 N          -2.2796  -25.3128  -46.1821 N.am      13 UNK        -0.5000 
     75 CA         -1.6294  -26.5411  -46.6302 C.3       13 UNK         0.1400 
     76 CB         -0.9004  -27.1867  -45.4407 C.3       13 UNK        -0.1800 
     77 C          -0.6473  -26.2567  -47.7769 C.2       13 UNK         0.5000 
     78 O          -0.7014  -26.9335  -48.8033 O.2       13 UNK        -0.5000 
     79 N           0.2304  -25.2612  -47.5882 N.am      14 UNK        -0.5000 
     80 CA          1.3442  -24.9453  -48.4865 C.3       14 UNK         0.1400 
     81 CB          2.3166  -24.0036  -47.7582 C.3       14 UNK        -0.1800 
     82 C           0.9133  -24.3260  -49.8275 C.2       14 UNK         0.5000 
     83 O           1.6149  -24.4961  -50.8250 O.2       14 UNK        -0.5000 
     84 N          -0.2197  -23.6167  -49.8211 N.am      15 UNK        -0.5000 
     85 CA         -0.7796  -22.9016  -50.9676 C.3       15 UNK         0.1400 
     86 CB         -0.7132  -21.3950  -50.6646 C.3       15 UNK        -0.1800 
     87 C          -2.2101  -23.3666  -51.2957 C.2       15 UNK         0.5000 
     88 O          -2.8682  -22.7441  -52.1312 O.2       15 UNK        -0.5000 
     89 N          -2.6744  -24.4308  -50.6200 N.am      16 UNK        -0.5000 
     90 CA         -4.0091  -25.0364  -50.7074 C.3       16 UNK         0.1400 
     91 CB         -4.1604  -25.7996  -52.0379 C.3       16 UNK        -0.1800 
     92 C          -5.1585  -24.0354  -50.4490 C.2       16 UNK         0.5000 
     93 O          -6.2116  -24.1266  -51.0809 O.2       16 UNK        -0.5000 
     94 N          -4.9123  -23.0859  -49.5340 N.am      17 UNK        -0.5000 
     95 CA         -5.7680  -21.9587  -49.1488 C.3       17 UNK         0.1400 
     96 CB         -7.1365  -22.4342  -48.6170 C.3       17 UNK        -0.1800 
     97 C          -5.8859  -20.8602  -50.2276 C.2       17 UNK         0.5000 
     98 O          -6.7600  -19.9991  -50.1136 O.2       17 UNK        -0.5000 
     99 N          -4.9762  -20.8719  -51.2144 N.am      18 UNK        -0.5000 
    100 CA        -4.8195  -19.8878  -52.2863 C.3       18 UNK         0.1400 
    101 CB        -4.3342  -18.5439  -51.7019 C.3       18 UNK        -0.1800 
    102 C         -6.0675  -19.7866  -53.1901 C.2       18 UNK         0.5000 
    103 O         -6.6469  -20.8215  -53.5279 O.2       18 UNK        -0.5000 
    104 N         -6.4414  -18.5613  -53.5873 N.am      19 UNK        -0.5000 
    105 CA        -7.5777  -18.2038  -54.4416 C.3       19 UNK         0.1400 
    106 CB        -8.9130  -18.4624  -53.7084 C.3       19 UNK        -0.1800 
    107 C         -7.4936  -18.8738  -55.8280 C.2       19 UNK         0.5000 
    108 O         -6.8074  -18.3552  -56.7091 O.2       19 UNK        -0.5000 
    109 N         -8.1807  -20.0112  -55.9945 N.am      20 UNK        -0.5000 
    110 CA        -8.1518  -20.8397  -57.2000 C.3       20 UNK         0.1400 
    111 CB        -9.3363  -21.8175  -57.1577 C.3       20 UNK        -0.1800 
    112 C         -6.8251  -21.6054  -57.3813 C.2       20 UNK         0.5000 
    113 O         -6.4983  -21.9732  -58.5107 O.2       20 UNK        -0.5000 
    114 N         -6.0971  -21.8404  -56.2804 N.am      21 UNK        -0.5000 
    115 CA        -4.7774  -22.4648  -56.2648 C.3       21 UNK         0.1400 
    116 CB        -4.6368  -23.3012  -54.9783 C.3       21 UNK        -0.1800 
    117 C         -3.6913  -21.3837  -56.4368 C.2       21 UNK         0.5000 
    118 O         -3.5332  -20.8588  -57.5400 O.2       21 UNK        -0.5000 
    119 N         -2.9532  -21.0815  -55.3611 N.am      22 UNK        -0.5000 
    120 CA        -1.9138  -20.0408  -55.2968 C.3       22 UNK         0.1400 
    121 C         -2.4551  -18.6184  -55.6176 C.2       22 UNK         0.5000 
    122 N         -1.7680  -17.8546  -56.4558 N.am      22 UNK        -0.7600 
    123 O         -3.4717  -18.1916  -55.0773 O.2       22 UNK        -0.5000 
    124 C124       -1.2193  -20.0662  -53.9127 C.3       23 UNK        -0.0398 
    125 S125        0.5349  -19.5724  -53.9389 S.3       23 UNK        -0.2404 
    126 C126        0.4764  -17.8271  -53.4104 C.3       23 UNK        -0.0205 
    127 H127        1.9128  -13.3760  -53.3802 H         1 UNK         0.0600 
    128 H128        2.7513  -11.8709  -52.9929 H         1 UNK         0.0600 
    129 H129        1.1328  -11.8251  -53.7003 H         1 UNK         0.0600 
    130 H130        1.1117  -14.3718  -51.5909 H         1 UNK         0.3000 
    131 H131        0.3014  -14.8771  -49.6359 H         1 UNK         0.0600 
    132 H132       -1.5458  -13.6209  -48.6028 H         1 UNK         0.0800 
    133 H133       -1.1665  -12.2002  -49.5358 H         1 UNK         0.0800 
    134 H134       -3.6487  -15.7991  -50.9435 H         1 UNK         0.0800 
    135 H135       -3.1235  -15.4559  -49.3142 H         1 UNK         0.0800 
    136 H136       -1.6372  -16.2815  -52.6767 H         1 UNK         0.1150 
    137 H137        1.3682  -18.8489  -51.0323 H         1 UNK         0.1150 
    138 H138       -1.4586  -16.8992  -48.4522 H         1 UNK         0.1150 
    139 H139        0.9275  -19.6985  -48.6624 H         1 UNK         0.0800 
    140 H140        1.7033  -18.1767  -48.3114 H         1 UNK         0.0800 
    141 H141       -1.8561  -19.6827  -48.0419 H         1 UNK         0.0800 
    142 H142       -2.3058  -19.4293  -46.3784 H         1 UNK         0.0800 
    143 H143       -0.2979  -21.5153  -47.3638 H         1 UNK         0.0600 
    144 H144       -0.4841  -20.4970  -44.7761 H         1 UNK         0.3000 
    145 H145        0.4572  -23.3216  -42.8928 H         1 UNK         0.0600 
    146 H146        2.4770  -21.9456  -42.3978 H         1 UNK         0.0600 
    147 H147        2.6290  -22.7289  -43.9640 H         1 UNK         0.0600 
    148 H148        2.2300  -21.0178  -43.8762 H         1 UNK         0.0600 
    149 H149        0.3185  -20.4650  -42.4252 H         1 UNK         0.3000 
    150 H150       -2.3748  -19.6214  -41.9640 H         1 UNK         0.0600 
    151 H151       -3.9216  -21.1594  -40.8363 H         1 UNK         0.0600 
    152 H152       -3.4282  -19.9115  -39.7039 H         1 UNK         0.0600 
    153 H153       -2.7357  -21.5298  -39.5941 H         1 UNK         0.0600 
    154 H154       -0.7250  -18.6584  -40.8865 H         1 UNK         0.3000 
    155 H155        1.1456  -19.1609  -38.0770 H         1 UNK         0.0600 
    156 H156        2.4528  -19.6210  -40.8138 H         1 UNK         0.0600 
    157 H157        2.6276  -20.6688  -39.4114 H         1 UNK         0.0600 
    158 H158        3.2692  -19.0347  -39.3655 H         1 UNK         0.0600 
    159 H159        1.4958  -17.4189  -40.3548 H         1 UNK         0.3000 
    160 H160       -1.1048  -15.1314  -39.4731 H         1 UNK         0.0600 
    161 H161        1.9453  -14.8362  -39.4394 H         1 UNK         0.0600 
    162 H162        0.8785  -14.4653  -38.0889 H         1 UNK         0.0600 
    163 H163        0.7699  -13.5284  -39.5704 H         1 UNK         0.0600 
    164 H164        0.7662  -15.0846  -41.6027 H         1 UNK         0.3000 
    165 H165       -1.1844  -17.0222  -43.9438 H         1 UNK         0.0600 
    166 H166       -0.7558  -14.9502  -45.2360 H         1 UNK         0.0600 
    167 H167       -1.9806  -14.6623  -44.0078 H         1 UNK         0.0600 
    168 H168       -0.3375  -14.0837  -43.7600 H         1 UNK         0.0600 
    169 H169        1.3803  -15.8503  -44.2221 H         1 UNK         0.3000 
    170 H170        3.3070  -18.6663  -43.1425 H         1 UNK         0.0600 
    171 H171        2.6987  -19.1069  -45.5094 H         1 UNK         0.0600 
    172 H172        2.7939  -17.3922  -45.8838 H         1 UNK         0.0600 
    173 H173        4.2460  -18.2799  -45.4201 H         1 UNK         0.0600 
    174 H174        3.9327  -16.0285  -44.1295 H         1 UNK         0.3000 
    175 H175        4.2868  -14.4975  -40.9195 H         1 UNK         0.0600 
    176 H176        6.3143  -15.3316  -43.0647 H         1 UNK         0.0600 
    177 H177        6.5404  -14.0718  -41.8513 H         1 UNK         0.0600 
    178 H178        6.4046  -15.7520  -41.3584 H         1 UNK         0.0600 
    179 H179        4.6921  -13.5112  -43.5675 H         1 UNK         0.3000 
    180 H180        1.3750  -12.3201  -44.1140 H         1 UNK         0.0600 
    181 H181        3.9604  -10.8180  -43.4439 H         1 UNK         0.0600 
    182 H182        2.4326  -10.6408  -42.5892 H         1 UNK         0.0600 
    183 H183        2.5510  -10.1553  -44.2724 H         1 UNK         0.0600 
    184 H184        3.5893  -11.8794  -45.7116 H         1 UNK         0.3000 
    185 H185        3.8450  -12.7892  -47.6439 H         1 UNK         0.0600 
    186 H186        5.2856  -14.6664  -46.7989 H         1 UNK         0.0600 
    187 H187        4.1046  -15.8341  -47.3795 H         1 UNK         0.0600 
    188 H188        4.9712  -14.8070  -48.5209 H         1 UNK         0.0600 
    189 H189        2.5264  -14.8250  -49.0201 H         1 UNK         0.3000 
    190 H190       -2.7069  -22.2760  -44.9547 H         1 UNK         0.3000 
    191 H191       -4.8016  -23.2510  -46.6142 H         1 UNK         0.0600 
    192 H192       -5.0713  -22.7982  -44.1895 H         1 UNK         0.0600 
    193 H193       -5.4838  -24.4677  -44.5486 H         1 UNK         0.0600 
    194 H194       -3.9374  -24.0905  -43.7979 H         1 UNK         0.0600 
    195 H195       -1.6947  -24.6481  -45.6892 H         1 UNK         0.3000 
    196 H196       -2.3689  -27.2569  -46.9955 H         1 UNK         0.0600 
    197 H197       -0.3871  -28.0998  -45.7451 H         1 UNK         0.0600 
    198 H198       -1.6026  -27.4566  -44.6518 H         1 UNK         0.0600 
    199 H199       -0.1551  -26.5179  -45.0081 H         1 UNK         0.0600 
    200 H200        0.1949  -24.7278  -46.7216 H         1 UNK         0.3000 
    201 H201        1.8723  -25.8751  -48.7080 H         1 UNK         0.0600 
    202 H202        2.6750  -24.4471  -46.8290 H         1 UNK         0.0600 
    203 H203        1.8470  -23.0500  -47.5141 H         1 UNK         0.0600 
    204 H204        3.1906  -23.7903  -48.3749 H         1 UNK         0.0600 
    205 H205       -0.7411  -23.5342  -48.9578 H         1 UNK         0.3000 
    206 H206       -0.1968  -23.0914  -51.8709 H         1 UNK         0.0600 
    207 H207        0.3028  -21.0291  -50.8043 H         1 UNK         0.0600 
    208 H208       -1.3667  -20.8039  -51.3008 H         1 UNK         0.0600 
    209 H209       -1.0049  -21.1696  -49.6436 H         1 UNK         0.0600 
    210 H210       -2.0395  -24.8770  -49.9742 H         1 UNK         0.3000 
    211 H211       -4.0645  -25.7691  -49.9012 H         1 UNK         0.0600 
    212 H212       -4.1391  -25.1242  -52.8915 H         1 UNK         0.0600 
    213 H213       -5.1032  -26.3464  -52.0743 H         1 UNK         0.0600 
    214 H214       -3.3594  -26.5274  -52.1671 H         1 UNK         0.0600 
    215 H215       -3.9907  -23.0778  -49.1028 H         1 UNK         0.3000 
    216 H216       -5.2515  -21.4816  -48.3150 H         1 UNK         0.0600 
    217 H217       -7.6762  -21.6139  -48.1427 H         1 UNK         0.0600 
    218 H218       -7.0212  -23.2198  -47.8703 H         1 UNK         0.0600 
    219 H219       -7.7714  -22.8187  -49.4153 H         1 UNK         0.0600 
    220 H220       -4.3363  -21.6572  -51.2644 H         1 UNK         0.3000 
    221 H221       -4.0257  -20.2727  -52.9231 H         1 UNK         0.0600 
    222 H222       -5.1034  -18.0548  -51.1035 H         1 UNK         0.0600 
    223 H223       -3.4653  -18.6961  -51.0615 H         1 UNK         0.0600 
    224 H224       -4.0301  -17.8516  -52.4867 H         1 UNK         0.0600 
    225 H225       -5.8544  -17.7871  -53.3111 H         1 UNK         0.3000 
    226 H226       -7.5063  -17.1292  -54.6162 H         1 UNK         0.0600 
    227 H227       -8.9814  -17.8556  -52.8055 H         1 UNK         0.0600 
    228 H228       -9.7632  -18.1982  -54.3385 H         1 UNK         0.0600 
    229 H229       -9.0326  -19.5041  -53.4098 H         1 UNK         0.0600 
    230 H230       -8.6831  -20.3833  -55.2012 H         1 UNK         0.3000 
    231 H231       -8.2776  -20.1886  -58.0677 H         1 UNK         0.0600 
    232 H232       -9.2727  -22.4892  -56.3005 H         1 UNK         0.0600 
    233 H233       -9.3660  -22.4345  -58.0568 H         1 UNK         0.0600 
    234 H234      -10.2859  -21.2853  -57.0988 H         1 UNK         0.0600 
    235 H235       -6.4334  -21.4831  -55.3909 H         1 UNK         0.3000 
    236 H236       -4.6827  -23.1500  -57.1098 H         1 UNK         0.0600 
    237 H237       -5.3702  -24.1075  -54.9599 H         1 UNK         0.0600 
    238 H238       -3.6512  -23.7642  -54.9140 H         1 UNK         0.0600 
    239 H239       -4.7879  -22.7070  -54.0769 H         1 UNK         0.0600 
    240 H240       -3.1358  -21.5833  -54.5034 H         1 UNK         0.3000 
    241 H241       -1.1781  -20.3083  -56.0578 H         1 UNK         0.0600 
    242 H242       -0.9288  -18.1848  -56.9063 H         1 UNK         0.3800 
    243 H243       -2.1096  -16.9292  -56.6622 H         1 UNK         0.3800 
    244 H244       -1.2116  -21.0903  -53.5404 H         1 UNK         0.0800 
    245 H245       -1.7695  -19.4835  -53.1728 H         1 UNK         0.0800 
    246 H246       -0.0915  -17.2567  -54.1465 H         1 UNK         0.0800 
    247 H247        1.4900  -17.4255  -53.4365 H         1 UNK         0.0800 
@<TRIPOS>BOND
     1    1    2 1    
     2    1  127 1    
     3    1  128 1    
     4    1  129 1    
     5    2    3 2    
     6    2    4 am   BACKBONE|DICT|INTERRES
     7    4    5 1    
     8    4  130 1    
     9    5    6 1    
    10    5   65 1    
    11    5  131 1    
    12    6    7 1    
    13    6  132 1    
    14    6  133 1    
    15    7    8 1    
    16    8    9 1    
    17    8  134 1    
    18    8  135 1    
    19    9   10 ar   
    20    9   14 ar   
    21   10   11 ar   
    22   10  136 1    
    23   11   12 ar   
    24   11  126 1    
    25   12   13 ar   
    26   12  137 1    
    27   13   14 ar   
    28   13   15 1    
    29   14  138 1    
    30   15   16 1    
    31   15  139 1    
    32   15  140 1    
    33   16   17 1    
    34   17   18 1    
    35   17  141 1    
    36   17  142 1    
    37   18   19 1    
    38   18   67 1    
    39   18  143 1    
    40   19   20 am   BACKBONE|DICT|INTERRES
    41   19  144 1    
    42   20   21 2    
    43   20   22 1    
    44   22   23 1    
    45   22   24 1    
    46   22  145 1    
    47   23  146 1    
    48   23  147 1    
    49   23  148 1    
    50   24   25 am   BACKBONE|DICT|INTERRES
    51   24  149 1    
    52   25   26 2    
    53   25   27 1    
    54   27   28 1    
    55   27   29 1    
    56   27  150 1    
    57   28  151 1    
    58   28  152 1    
    59   28  153 1    
    60   29   30 am   BACKBONE|DICT|INTERRES
    61   29  154 1    
    62   30   31 2    
    63   30   32 1    
    64   32   33 1    
    65   32   34 1    
    66   32  155 1    
    67   33  156 1    
    68   33  157 1    
    69   33  158 1    
    70   34   35 am   BACKBONE|DICT|INTERRES
    71   34  159 1    
    72   35   36 2    
    73   35   37 1    
    74   37   38 1    
    75   37   39 1    
    76   37  160 1    
    77   38  161 1    
    78   38  162 1    
    79   38  163 1    
    80   39   40 am   BACKBONE|DICT|INTERRES
    81   39  164 1    
    82   40   41 2    
    83   40   42 1    
    84   42   43 1    
    85   42   44 1    
    86   42  165 1    
    87   43  166 1    
    88   43  167 1    
    89   43  168 1    
    90   44   45 am   BACKBONE|DICT|INTERRES
    91   44  169 1    
    92   45   46 2    
    93   45   47 1    
    94   47   48 1    
    95   47   49 1    
    96   47  170 1    
    97   48  171 1    
    98   48  172 1    
    99   48  173 1    
   100   49   50 am   BACKBONE|DICT|INTERRES
   101   49  174 1    
   102   50   51 2    
   103   50   52 1    
   104   52   53 1    
   105   52   54 1    
   106   52  175 1    
   107   53  176 1    
   108   53  177 1    
   109   53  178 1    
   110   54   55 am   BACKBONE|DICT|INTERRES
   111   54  179 1    
   112   55   56 2    
   113   55   57 1    
   114   57   58 1    
   115   57   59 1    
   116   57  180 1    
   117   58  181 1    
   118   58  182 1    
   119   58  183 1    
   120   59   60 am   BACKBONE|DICT|INTERRES
   121   59  184 1    
   122   60   61 2    
   123   60   62 1    
   124   62   63 1    
   125   62   64 1    
   126   62  185 1    
   127   63  186 1    
   128   63  187 1    
   129   63  188 1    
   130   64   65 am   BACKBONE|DICT|INTERRES
   131   64  189 1    
   132   65   66 2    
   133   67   68 2    
   134   67   69 am   BACKBONE|DICT|INTERRES
   135   69   70 1    
   136   69  190 1    
   137   70   71 1    
   138   70   72 1    
   139   70  191 1    
   140   71  192 1    
   141   71  193 1    
   142   71  194 1    
   143   72   73 2    
   144   72   74 am   BACKBONE|DICT|INTERRES
   145   74   75 1    
   146   74  195 1    
   147   75   76 1    
   148   75   77 1    
   149   75  196 1    
   150   76  197 1    
   151   76  198 1    
   152   76  199 1    
   153   77   78 2    
   154   77   79 am   BACKBONE|DICT|INTERRES
   155   79   80 1    
   156   79  200 1    
   157   80   81 1    
   158   80   82 1    
   159   80  201 1    
   160   81  202 1    
   161   81  203 1    
   162   81  204 1    
   163   82   83 2    
   164   82   84 am   BACKBONE|DICT|INTERRES
   165   84   85 1    
   166   84  205 1    
   167   85   86 1    
   168   85   87 1    
   169   85  206 1    
   170   86  207 1    
   171   86  208 1    
   172   86  209 1    
   173   87   88 2    
   174   87   89 am   BACKBONE|DICT|INTERRES
   175   89   90 1    
   176   89  210 1    
   177   90   91 1    
   178   90   92 1    
   179   90  211 1    
   180   91  212 1    
   181   91  213 1    
   182   91  214 1    
   183   92   93 2    
   184   92   94 am   BACKBONE|DICT|INTERRES
   185   94   95 1    
   186   94  215 1    
   187   95   96 1    
   188   95   97 1    
   189   95  216 1    
   190   96  217 1    
   191   96  218 1    
   192   96  219 1    
   193   97   98 2    
   194   97   99 am   BACKBONE|DICT|INTERRES
   195   99  100 1    
   196   99  220 1    
   197  100  101 1    
   198  100  102 1    
   199  100  221 1    
   200  101  222 1    
   201  101  223 1    
   202  101  224 1    
   203  102  103 2    
   204  102  104 am   BACKBONE|DICT|INTERRES
   205  104  105 1    
   206  104  225 1    
   207  105  106 1    
   208  105  107 1    
   209  105  226 1    
   210  106  227 1    
   211  106  228 1    
   212  106  229 1    
   213  107  108 2    
   214  107  109 am   BACKBONE|DICT|INTERRES
   215  109  110 1    
   216  109  230 1    
   217  110  111 1    
   218  110  112 1    
   219  110  231 1    
   220  111  232 1    
   221  111  233 1    
   222  111  234 1    
   223  112  113 2    
   224  112  114 am   BACKBONE|DICT|INTERRES
   225  114  115 1    
   226  114  235 1    
   227  115  116 1    
   228  115  117 1    
   229  115  236 1    
   230  116  237 1    
   231  116  238 1    
   232  116  239 1    
   233  117  118 2    
   234  117  119 am   BACKBONE|DICT|INTERRES
   235  119  120 1    
   236  119  240 1    
   237  120  121 1    
   238  120  124 1    
   239  120  241 1    
   240  121  122 am   BACKBONE|DICT|INTERRES
   241  121  123 2    
   242  122  242 1    
   243  122  243 1    
   244  124  125 1    
   245  124  244 1    
   246  124  245 1    
   247  125  126 1    
   248  126  246 1    
   249  126  247 1    
@<TRIPOS>SUBSTRUCTURE
     1 UNK         1 GROUP             0       ****    0 ROOT    
