@<TRIPOS>MOLECULE
3R540
247   249    1
SMALL
USER_CHARGES


@<TRIPOS>ATOM
      1 CA         -0.5298  -15.8263  -49.0390 C.3       0 UNK        -0.1800 
      2 C           0.1327  -14.5661  -48.5068 C.2       0 UNK         0.5000 
      3 O          -0.5444  -13.5587  -48.2984 O.2       0 UNK        -0.5000 
      4 N           1.4516  -14.6101  -48.2863 N.am      1 UNK        -0.5000 
      5 CA          2.2761  -13.5130  -47.7717 C.3       1 UNK         0.1400 
      6 C6          3.7597  -13.6237  -48.2211 C.3       23 UNK        -0.0398 
      7 S7          4.5440  -15.2619  -47.9857 S.3       23 UNK        -0.2404 
      8 C8          4.9586  -15.7527  -49.6915 C.3       23 UNK        -0.0205 
      9 C9          3.7831  -16.4144  -50.3945 C.ar      23 UNK        -0.0193 
     10 C10         2.8486  -15.6451  -51.0914 C.ar      23 UNK        -0.1150 
     11 C11         1.7520  -16.2397  -51.7227 C.ar      23 UNK        -0.0193 
     12 C12         1.6129  -17.6342  -51.6620 C.ar      23 UNK        -0.1150 
     13 C13         2.5505  -18.4210  -50.9837 C.ar      23 UNK        -0.0193 
     14 C14         3.6345  -17.8025  -50.3543 C.ar      23 UNK        -0.1150 
     15 C15         2.3914  -19.9388  -50.9555 C.3       23 UNK        -0.0205 
     16 S16         2.5649  -20.6891  -49.3009 S.3       23 UNK        -0.2404 
     17 C17         1.2932  -19.8058  -48.3391 C.3       23 UNK        -0.0398 
     18 CA         -0.0409  -20.5729  -48.1786 C.3       11 UNK         0.1400 
     19 N          -0.7602  -20.1240  -46.9786 N.am      11 UNK        -0.5000 
     20 C          -1.8951  -20.6566  -46.5004 C.2       10 UNK         0.5000 
     21 O          -2.4760  -21.5963  -47.0407 O.2       10 UNK        -0.5000 
     22 CA         -2.5088  -20.0408  -45.2266 C.3       10 UNK         0.1400 
     23 CB         -2.3428  -20.9988  -44.0372 C.3       10 UNK        -0.1800 
     24 N          -1.9584  -18.7357  -44.8606 N.am      10 UNK        -0.5000 
     25 C          -2.1203  -17.5980  -45.5501 C.2       9 UNK         0.5000 
     26 O          -2.7794  -17.5141  -46.5863 O.2       9 UNK        -0.5000 
     27 CA         -1.3690  -16.3646  -45.0087 C.3       9 UNK         0.1400 
     28 CB         -2.1803  -15.7004  -43.8852 C.3       9 UNK        -0.1800 
     29 N          -0.0276  -16.7049  -44.5204 N.am      9 UNK        -0.5000 
     30 C           0.9503  -17.2067  -45.2901 C.2       8 UNK         0.5000 
     31 O           0.8437  -17.3498  -46.5059 O.2       8 UNK        -0.5000 
     32 CA          2.2323  -17.6885  -44.5929 C.3       8 UNK         0.1400 
     33 CB          3.2573  -16.5612  -44.4868 C.3       8 UNK        -0.1800 
     34 N           1.9597  -18.2084  -43.2577 N.am      8 UNK        -0.5000 
     35 C           1.5645  -19.4620  -43.0032 C.2       7 UNK         0.5000 
     36 O           1.4384  -20.3297  -43.8673 O.2       7 UNK        -0.5000 
     37 CA          1.2247  -19.7921  -41.5368 C.3       7 UNK         0.1400 
     38 CB          2.4782  -20.2632  -40.7846 C.3       7 UNK        -0.1800 
     39 N           0.6318  -18.6597  -40.8219 N.am      7 UNK        -0.5000 
     40 C          -0.5528  -18.1126  -41.1255 C.2       6 UNK         0.5000 
     41 O          -1.2889  -18.5347  -42.0163 O.2       6 UNK        -0.5000 
     42 CA         -0.9666  -16.8577  -40.3365 C.3       6 UNK         0.1400 
     43 CB         -1.7813  -17.2518  -39.0959 C.3       6 UNK        -0.1800 
     44 N           0.1487  -15.9990  -39.9267 N.am      6 UNK        -0.5000 
     45 C           1.0334  -15.4085  -40.7435 C.2       5 UNK         0.5000 
     46 O           1.0616  -15.5942  -41.9626 O.2       5 UNK        -0.5000 
     47 CA          2.0082  -14.4252  -40.0644 C.3       5 UNK         0.1400 
     48 CB          2.6770  -15.0205  -38.8048 C.3       5 UNK        -0.1800 
     49 N           3.0022  -13.8450  -40.9730 N.am      5 UNK        -0.5000 
     50 C           4.0911  -14.4171  -41.5081 C.2       4 UNK         0.5000 
     51 O           4.4032  -15.5953  -41.3286 O.2       4 UNK        -0.5000 
     52 CA          5.0014  -13.4988  -42.3592 C.3       4 UNK         0.1400 
     53 CB          5.8330  -14.2606  -43.4066 C.3       4 UNK        -0.1800 
     54 N           4.2422  -12.4454  -43.0345 N.am      4 UNK        -0.5000 
     55 C           4.0513  -11.1995  -42.5761 C.2       3 UNK         0.5000 
     56 O           4.5752  -10.7624  -41.5514 O.2       3 UNK        -0.5000 
     57 CA          3.0695  -10.3035  -43.3636 C.3       3 UNK         0.1400 
     58 CB          3.8326   -9.4078  -44.3508 C.3       3 UNK        -0.1800 
     59 N           2.0564  -11.0649  -44.0985 N.am      3 UNK        -0.5000 
     60 C           1.1537  -11.8857  -43.5438 C.2       2 UNK         0.5000 
     61 O           0.9664  -11.9571  -42.3286 O.2       2 UNK        -0.5000 
     62 CA          0.3529  -12.8103  -44.4847 C.3       2 UNK         0.1400 
     63 CB         -1.1109  -12.3498  -44.5602 C.3       2 UNK        -0.1800 
     64 N           0.8616  -12.9515  -45.8551 N.am      2 UNK        -0.5000 
     65 C           2.0852  -13.3337  -46.2476 C.2       1 UNK         0.5000 
     66 O           3.0192  -13.5232  -45.4690 O.2       1 UNK        -0.5000 
     67 C          -0.9049  -20.4906  -49.4591 C.2       11 UNK         0.5000 
     68 O          -0.7934  -21.3531  -50.3300 O.2       11 UNK        -0.5000 
     69 N          -1.8010  -19.4952  -49.5227 N.am      12 UNK        -0.5000 
     70 CA         -2.7733  -19.3234  -50.6045 C.3       12 UNK         0.1400 
     71 CB         -3.3484  -17.9013  -50.5338 C.3       12 UNK        -0.1800 
     72 C          -3.9130  -20.3658  -50.5985 C.2       12 UNK         0.5000 
     73 O          -4.6563  -20.4400  -51.5763 O.2       12 UNK        -0.5000 
     74 N          -4.0471  -21.1395  -49.5130 N.am      13 UNK        -0.5000 
     75 CA         -5.0755  -22.1603  -49.3126 C.3       13 UNK         0.1400 
     76 CB         -6.0513  -21.6692  -48.2290 C.3       13 UNK        -0.1800 
     77 C          -4.4407  -23.5203  -48.9551 C.2       13 UNK         0.5000 
     78 O          -5.0682  -24.3363  -48.2766 O.2       13 UNK        -0.5000 
     79 N          -3.1913  -23.7368  -49.3927 N.am      14 UNK        -0.5000 
     80 CA         -2.3612  -24.8891  -49.0351 C.3       14 UNK         0.1400 
     81 CB         -0.9245  -24.6416  -49.5191 C.3       14 UNK        -0.1800 
     82 C          -2.8733  -26.2492  -49.5482 C.2       14 UNK         0.5000 
     83 O          -2.4960  -27.2789  -48.9866 O.2       14 UNK        -0.5000 
     84 N          -3.7279  -26.2525  -50.5801 N.am      15 UNK        -0.5000 
     85 CA         -4.3157  -27.4532  -51.1778 C.3       15 UNK         0.1400 
     86 CB         -4.6477  -27.1745  -52.6555 C.3       15 UNK        -0.1800 
     87 C          -5.5311  -27.9517  -50.3692 C.2       15 UNK         0.5000 
     88 O          -6.6296  -28.0692  -50.9108 O.2       15 UNK        -0.5000 
     89 N          -5.3145  -28.2212  -49.0738 N.am      16 UNK        -0.5000 
     90 CA         -6.2938  -28.7104  -48.0955 C.3       16 UNK         0.1400 
     91 CB         -6.6662  -30.1772  -48.3971 C.3       16 UNK        -0.1800 
     92 C          -7.5252  -27.7864  -47.9722 C.2       16 UNK         0.5000 
     93 O          -8.6631  -28.2534  -48.0399 O.2       16 UNK        -0.5000 
     94 N          -7.2534  -26.4820  -47.8250 N.am      17 UNK        -0.5000 
     95 CA         -8.1909  -25.3569  -47.7268 C.3       17 UNK         0.1400 
     96 CB         -9.2865  -25.5871  -46.6648 C.3       17 UNK        -0.1800 
     97 C          -8.7728  -24.8872  -49.0756 C.2       17 UNK         0.5000 
     98 O          -9.4199  -23.8387  -49.1013 O.2       17 UNK        -0.5000 
     99 N          -8.5133  -25.6096  -50.1754 N.am      18 UNK        -0.5000 
    100 CA        -8.7531  -25.1224  -51.5347 C.3       18 UNK         0.1400 
    101 CB        -8.9192  -26.3099  -52.4954 C.3       18 UNK        -0.1800 
    102 C         -7.5861  -24.2202  -51.9737 C.2       18 UNK         0.5000 
    103 O         -6.4782  -24.3507  -51.4459 O.2       18 UNK        -0.5000 
    104 N         -7.8590  -23.3215  -52.9281 N.am      19 UNK        -0.5000 
    105 CA        -6.9106  -22.3345  -53.4485 C.3       19 UNK         0.1400 
    106 CB        -7.6194  -21.4536  -54.4887 C.3       19 UNK        -0.1800 
    107 C         -5.6434  -22.9719  -54.0509 C.2       19 UNK         0.5000 
    108 O         -5.7445  -23.9509  -54.7947 O.2       19 UNK        -0.5000 
    109 N         -4.4849  -22.3945  -53.7256 N.am      20 UNK        -0.5000 
    110 CA        -3.1652  -22.8457  -54.1507 C.3       20 UNK         0.1400 
    111 CB        -2.5799  -23.7550  -53.0578 C.3       20 UNK        -0.1800 
    112 C         -2.2542  -21.6338  -54.3835 C.2       20 UNK         0.5000 
    113 O         -2.5624  -20.5338  -53.9173 O.2       20 UNK        -0.5000 
    114 N         -1.1301  -21.8705  -55.0746 N.am      21 UNK        -0.5000 
    115 CA        -0.0442  -20.9211  -55.3382 C.3       21 UNK         0.1400 
    116 CB         0.7519  -20.6706  -54.0388 C.3       21 UNK        -0.1800 
    117 C         -0.5493  -19.6306  -56.0180 C.2       21 UNK         0.5000 
    118 O         -0.9368  -19.6789  -57.1867 O.2       21 UNK        -0.5000 
    119 N         -0.5476  -18.5169  -55.2770 N.am      22 UNK        -0.5000 
    120 CA        -1.0824  -17.2157  -55.6958 C.3       22 UNK         0.1400 
    121 C         -2.6384  -17.1148  -55.7134 C.2       22 UNK         0.5000 
    122 N         -3.3828  -18.0767  -55.1797 N.am      22 UNK        -0.7600 
    123 O         -3.1816  -16.1465  -56.2386 O.2       22 UNK        -0.5000 
    124 C124       -0.4274  -16.0600  -54.8967 C.3       23 UNK        -0.0398 
    125 S125       -0.7513  -16.1154  -53.0967 S.3       23 UNK        -0.2404 
    126 C126        0.7513  -15.3184  -52.4264 C.3       23 UNK        -0.0205 
    127 H127       -1.0037  -15.6155  -49.9959 H         1 UNK         0.0600 
    128 H128        0.1886  -16.6327  -49.1825 H         1 UNK         0.0600 
    129 H129       -1.2959  -16.1711  -48.3471 H         1 UNK         0.0600 
    130 H130        1.9474  -15.4793  -48.4330 H         1 UNK         0.3000 
    131 H131        1.9033  -12.5883  -48.2181 H         1 UNK         0.0600 
    132 H132        3.8227  -13.3545  -49.2751 H         1 UNK         0.0800 
    133 H133        4.3709  -12.8786  -47.7089 H         1 UNK         0.0800 
    134 H134        5.7991  -16.4473  -49.6546 H         1 UNK         0.0800 
    135 H135        5.3111  -14.8910  -50.2603 H         1 UNK         0.0800 
    136 H136        2.9650  -14.5714  -51.1296 H         1 UNK         0.1150 
    137 H137        0.7753  -18.1202  -52.1377 H         1 UNK         0.1150 
    138 H138        4.3612  -18.4035  -49.8258 H         1 UNK         0.1150 
    139 H139        1.4192  -20.2277  -51.3497 H         1 UNK         0.0800 
    140 H140        3.1348  -20.3796  -51.6206 H         1 UNK         0.0800 
    141 H141        1.1301  -18.8038  -48.7363 H         1 UNK         0.0800 
    142 H142        1.7420  -19.6580  -47.3563 H         1 UNK         0.0800 
    143 H143        0.1909  -21.6270  -48.0144 H         1 UNK         0.0600 
    144 H144       -0.3617  -19.3329  -46.4907 H         1 UNK         0.3000 
    145 H145       -3.5766  -19.9131  -45.4151 H         1 UNK         0.0600 
    146 H146       -2.8538  -20.6201  -43.1518 H         1 UNK         0.0600 
    147 H147       -2.7647  -21.9799  -44.2595 H         1 UNK         0.0600 
    148 H148       -1.2923  -21.1419  -43.7816 H         1 UNK         0.0600 
    149 H149       -1.4571  -18.6937  -43.9781 H         1 UNK         0.3000 
    150 H150       -1.2513  -15.6455  -45.8218 H         1 UNK         0.0600 
    151 H151       -3.0701  -15.2168  -44.2896 H         1 UNK         0.0600 
    152 H152       -1.6037  -14.9402  -43.3600 H         1 UNK         0.0600 
    153 H153       -2.5190  -16.4265  -43.1468 H         1 UNK         0.0600 
    154 H154        0.1612  -16.5605  -43.5349 H         1 UNK         0.3000 
    155 H155        2.6705  -18.4794  -45.2055 H         1 UNK         0.0600 
    156 H156        2.8672  -15.7149  -43.9221 H         1 UNK         0.0600 
    157 H157        3.5321  -16.1980  -45.4750 H         1 UNK         0.0600 
    158 H158        4.1701  -16.9018  -43.9982 H         1 UNK         0.0600 
    159 H159        1.9912  -17.5363  -42.5014 H         1 UNK         0.3000 
    160 H160        0.4985  -20.6079  -41.5405 H         1 UNK         0.0600 
    161 H161        2.2356  -20.5714  -39.7675 H         1 UNK         0.0600 
    162 H162        3.2327  -19.4774  -40.7275 H         1 UNK         0.0600 
    163 H163        2.9333  -21.1201  -41.2832 H         1 UNK         0.0600 
    164 H164        1.1782  -18.2466  -40.0806 H         1 UNK         0.3000 
    165 H165       -1.6093  -16.2609  -40.9848 H         1 UNK         0.0600 
    166 H166       -2.1729  -16.3725  -38.5842 H         1 UNK         0.0600 
    167 H167       -2.6356  -17.8725  -39.3703 H         1 UNK         0.0600 
    168 H168       -1.1804  -17.8171  -38.3824 H         1 UNK         0.0600 
    169 H169        0.1993  -15.7898  -38.9403 H         1 UNK         0.3000 
    170 H170        1.3979  -13.5807  -39.7412 H         1 UNK         0.0600 
    171 H171        1.9470  -15.2147  -38.0188 H         1 UNK         0.0600 
    172 H172        3.1827  -15.9626  -39.0185 H         1 UNK         0.0600 
    173 H173        3.4136  -14.3333  -38.3880 H         1 UNK         0.0600 
    174 H174        2.7950  -12.8981  -41.2611 H         1 UNK         0.3000 
    175 H175        5.7076  -13.0484  -41.6592 H         1 UNK         0.0600 
    176 H176        5.2085  -14.6710  -44.1981 H         1 UNK         0.0600 
    177 H177        6.5613  -13.5999  -43.8768 H         1 UNK         0.0600 
    178 H178        6.3897  -15.0840  -42.9580 H         1 UNK         0.0600 
    179 H179        3.7587  -12.7336  -43.8824 H         1 UNK         0.3000 
    180 H180        2.5535   -9.6649  -42.6438 H         1 UNK         0.0600 
    181 H181        4.3515   -9.9963  -45.1087 H         1 UNK         0.0600 
    182 H182        4.5806   -8.8054  -43.8335 H         1 UNK         0.0600 
    183 H183        3.1592   -8.7192  -44.8615 H         1 UNK         0.0600 
    184 H184        2.1430  -11.0761  -45.1035 H         1 UNK         0.3000 
    185 H185        0.3829  -13.8046  -44.0368 H         1 UNK         0.0600 
    186 H186       -1.5618  -12.3069  -43.5678 H         1 UNK         0.0600 
    187 H187       -1.1944  -11.3565  -45.0028 H         1 UNK         0.0600 
    188 H188       -1.7121  -13.0331  -45.1602 H         1 UNK         0.0600 
    189 H189        0.1681  -12.8616  -46.5918 H         1 UNK         0.3000 
    190 H190       -1.8646  -18.8466  -48.7498 H         1 UNK         0.3000 
    191 H191       -2.2456  -19.4252  -51.5544 H         1 UNK         0.0600 
    192 H192       -3.8197  -17.7032  -49.5702 H         1 UNK         0.0600 
    193 H193       -4.0985  -17.7408  -51.3094 H         1 UNK         0.0600 
    194 H194       -2.5692  -17.1579  -50.6902 H         1 UNK         0.0600 
    195 H195       -3.3773  -21.0546  -48.7549 H         1 UNK         0.3000 
    196 H196       -5.6406  -22.3061  -50.2323 H         1 UNK         0.0600 
    197 H197       -6.8913  -22.3545  -48.1173 H         1 UNK         0.0600 
    198 H198       -6.4657  -20.6941  -48.4851 H         1 UNK         0.0600 
    199 H199       -5.5604  -21.5818  -47.2588 H         1 UNK         0.0600 
    200 H200       -2.7386  -23.0053  -49.9226 H         1 UNK         0.3000 
    201 H201       -2.3419  -24.9495  -47.9449 H         1 UNK         0.0600 
    202 H202       -0.8808  -24.4953  -50.5987 H         1 UNK         0.0600 
    203 H203       -0.4964  -23.7606  -49.0426 H         1 UNK         0.0600 
    204 H204       -0.2757  -25.4839  -49.2752 H         1 UNK         0.0600 
    205 H205       -4.0675  -25.3664  -50.9278 H         1 UNK         0.3000 
    206 H206       -3.5769  -28.2571  -51.1621 H         1 UNK         0.0600 
    207 H207       -5.3516  -26.3502  -52.7671 H         1 UNK         0.0600 
    208 H208       -3.7492  -26.9265  -53.2200 H         1 UNK         0.0600 
    209 H209       -5.0913  -28.0506  -53.1300 H         1 UNK         0.0600 
    210 H210       -4.3735  -28.0676  -48.7263 H         1 UNK         0.3000 
    211 H211       -5.7980  -28.6903  -47.1240 H         1 UNK         0.0600 
    212 H212       -7.1947  -30.2748  -49.3461 H         1 UNK         0.0600 
    213 H213       -7.3129  -30.5842  -47.6190 H         1 UNK         0.0600 
    214 H214       -5.7783  -30.8077  -48.4421 H         1 UNK         0.0600 
    215 H215       -6.2811  -26.1960  -47.8492 H         1 UNK         0.3000 
    216 H216       -7.5859  -24.5247  -47.3668 H         1 UNK         0.0600 
    217 H217      -10.0220  -26.3242  -46.9870 H         1 UNK         0.0600 
    218 H218       -9.8289  -24.6626  -46.4637 H         1 UNK         0.0600 
    219 H219       -8.8595  -25.9235  -45.7201 H         1 UNK         0.0600 
    220 H220       -7.9340  -26.4361  -50.0962 H         1 UNK         0.3000 
    221 H221       -9.6777  -24.5414  -51.5503 H         1 UNK         0.0600 
    222 H222       -7.9764  -26.8259  -52.6736 H         1 UNK         0.0600 
    223 H223       -9.6355  -27.0366  -52.1119 H         1 UNK         0.0600 
    224 H224       -9.2853  -25.9723  -53.4655 H         1 UNK         0.0600 
    225 H225       -8.7834  -23.3054  -53.3327 H         1 UNK         0.3000 
    226 H226       -6.6228  -21.7016  -52.6088 H         1 UNK         0.0600 
    227 H227       -8.4777  -20.9406  -54.0546 H         1 UNK         0.0600 
    228 H228       -6.9450  -20.6874  -54.8736 H         1 UNK         0.0600 
    229 H229       -7.9705  -22.0396  -55.3391 H         1 UNK         0.0600 
    230 H230       -4.4821  -21.5637  -53.1357 H         1 UNK         0.3000 
    231 H231       -3.2420  -23.3992  -55.0889 H         1 UNK         0.0600 
    232 H232       -3.2408  -24.5948  -52.8521 H         1 UNK         0.0600 
    233 H233       -2.4311  -23.2079  -52.1263 H         1 UNK         0.0600 
    234 H234       -1.6146  -24.1652  -53.3561 H         1 UNK         0.0600 
    235 H235       -0.9852  -22.7989  -55.4454 H         1 UNK         0.3000 
    236 H236        0.6288  -21.3998  -56.0511 H         1 UNK         0.0600 
    237 H237        1.5802  -19.9803  -54.2045 H         1 UNK         0.0600 
    238 H238        0.1202  -20.2589  -53.2513 H         1 UNK         0.0600 
    239 H239        1.1796  -21.5992  -53.6606 H         1 UNK         0.0600 
    240 H240       -0.2607  -18.5793  -54.3122 H         1 UNK         0.3000 
    241 H241       -0.7824  -17.0754  -56.7361 H         1 UNK         0.0600 
    242 H242       -2.9603  -18.8868  -54.7324 H         1 UNK         0.3800 
    243 H243       -4.3856  -17.9926  -55.2046 H         1 UNK         0.3800 
    244 H244        0.6504  -16.0868  -55.0631 H         1 UNK         0.0800 
    245 H245       -0.7605  -15.0935  -55.2785 H         1 UNK         0.0800 
    246 H246        1.2676  -14.7747  -53.2184 H         1 UNK         0.0800 
    247 H247        0.4260  -14.5600  -51.7134 H         1 UNK         0.0800 
@<TRIPOS>BOND
     1    1    2 1    
     2    1  127 1    
     3    1  128 1    
     4    1  129 1    
     5    2    3 2    
     6    2    4 am   BACKBONE|DICT|INTERRES
     7    4    5 1    
     8    4  130 1    
     9    5    6 1    
    10    5   65 1    
    11    5  131 1    
    12    6    7 1    
    13    6  132 1    
    14    6  133 1    
    15    7    8 1    
    16    8    9 1    
    17    8  134 1    
    18    8  135 1    
    19    9   10 ar   
    20    9   14 ar   
    21   10   11 ar   
    22   10  136 1    
    23   11   12 ar   
    24   11  126 1    
    25   12   13 ar   
    26   12  137 1    
    27   13   14 ar   
    28   13   15 1    
    29   14  138 1    
    30   15   16 1    
    31   15  139 1    
    32   15  140 1    
    33   16   17 1    
    34   17   18 1    
    35   17  141 1    
    36   17  142 1    
    37   18   19 1    
    38   18   67 1    
    39   18  143 1    
    40   19   20 am   BACKBONE|DICT|INTERRES
    41   19  144 1    
    42   20   21 2    
    43   20   22 1    
    44   22   23 1    
    45   22   24 1    
    46   22  145 1    
    47   23  146 1    
    48   23  147 1    
    49   23  148 1    
    50   24   25 am   BACKBONE|DICT|INTERRES
    51   24  149 1    
    52   25   26 2    
    53   25   27 1    
    54   27   28 1    
    55   27   29 1    
    56   27  150 1    
    57   28  151 1    
    58   28  152 1    
    59   28  153 1    
    60   29   30 am   BACKBONE|DICT|INTERRES
    61   29  154 1    
    62   30   31 2    
    63   30   32 1    
    64   32   33 1    
    65   32   34 1    
    66   32  155 1    
    67   33  156 1    
    68   33  157 1    
    69   33  158 1    
    70   34   35 am   BACKBONE|DICT|INTERRES
    71   34  159 1    
    72   35   36 2    
    73   35   37 1    
    74   37   38 1    
    75   37   39 1    
    76   37  160 1    
    77   38  161 1    
    78   38  162 1    
    79   38  163 1    
    80   39   40 am   BACKBONE|DICT|INTERRES
    81   39  164 1    
    82   40   41 2    
    83   40   42 1    
    84   42   43 1    
    85   42   44 1    
    86   42  165 1    
    87   43  166 1    
    88   43  167 1    
    89   43  168 1    
    90   44   45 am   BACKBONE|DICT|INTERRES
    91   44  169 1    
    92   45   46 2    
    93   45   47 1    
    94   47   48 1    
    95   47   49 1    
    96   47  170 1    
    97   48  171 1    
    98   48  172 1    
    99   48  173 1    
   100   49   50 am   BACKBONE|DICT|INTERRES
   101   49  174 1    
   102   50   51 2    
   103   50   52 1    
   104   52   53 1    
   105   52   54 1    
   106   52  175 1    
   107   53  176 1    
   108   53  177 1    
   109   53  178 1    
   110   54   55 am   BACKBONE|DICT|INTERRES
   111   54  179 1    
   112   55   56 2    
   113   55   57 1    
   114   57   58 1    
   115   57   59 1    
   116   57  180 1    
   117   58  181 1    
   118   58  182 1    
   119   58  183 1    
   120   59   60 am   BACKBONE|DICT|INTERRES
   121   59  184 1    
   122   60   61 2    
   123   60   62 1    
   124   62   63 1    
   125   62   64 1    
   126   62  185 1    
   127   63  186 1    
   128   63  187 1    
   129   63  188 1    
   130   64   65 am   BACKBONE|DICT|INTERRES
   131   64  189 1    
   132   65   66 2    
   133   67   68 2    
   134   67   69 am   BACKBONE|DICT|INTERRES
   135   69   70 1    
   136   69  190 1    
   137   70   71 1    
   138   70   72 1    
   139   70  191 1    
   140   71  192 1    
   141   71  193 1    
   142   71  194 1    
   143   72   73 2    
   144   72   74 am   BACKBONE|DICT|INTERRES
   145   74   75 1    
   146   74  195 1    
   147   75   76 1    
   148   75   77 1    
   149   75  196 1    
   150   76  197 1    
   151   76  198 1    
   152   76  199 1    
   153   77   78 2    
   154   77   79 am   BACKBONE|DICT|INTERRES
   155   79   80 1    
   156   79  200 1    
   157   80   81 1    
   158   80   82 1    
   159   80  201 1    
   160   81  202 1    
   161   81  203 1    
   162   81  204 1    
   163   82   83 2    
   164   82   84 am   BACKBONE|DICT|INTERRES
   165   84   85 1    
   166   84  205 1    
   167   85   86 1    
   168   85   87 1    
   169   85  206 1    
   170   86  207 1    
   171   86  208 1    
   172   86  209 1    
   173   87   88 2    
   174   87   89 am   BACKBONE|DICT|INTERRES
   175   89   90 1    
   176   89  210 1    
   177   90   91 1    
   178   90   92 1    
   179   90  211 1    
   180   91  212 1    
   181   91  213 1    
   182   91  214 1    
   183   92   93 2    
   184   92   94 am   BACKBONE|DICT|INTERRES
   185   94   95 1    
   186   94  215 1    
   187   95   96 1    
   188   95   97 1    
   189   95  216 1    
   190   96  217 1    
   191   96  218 1    
   192   96  219 1    
   193   97   98 2    
   194   97   99 am   BACKBONE|DICT|INTERRES
   195   99  100 1    
   196   99  220 1    
   197  100  101 1    
   198  100  102 1    
   199  100  221 1    
   200  101  222 1    
   201  101  223 1    
   202  101  224 1    
   203  102  103 2    
   204  102  104 am   BACKBONE|DICT|INTERRES
   205  104  105 1    
   206  104  225 1    
   207  105  106 1    
   208  105  107 1    
   209  105  226 1    
   210  106  227 1    
   211  106  228 1    
   212  106  229 1    
   213  107  108 2    
   214  107  109 am   BACKBONE|DICT|INTERRES
   215  109  110 1    
   216  109  230 1    
   217  110  111 1    
   218  110  112 1    
   219  110  231 1    
   220  111  232 1    
   221  111  233 1    
   222  111  234 1    
   223  112  113 2    
   224  112  114 am   BACKBONE|DICT|INTERRES
   225  114  115 1    
   226  114  235 1    
   227  115  116 1    
   228  115  117 1    
   229  115  236 1    
   230  116  237 1    
   231  116  238 1    
   232  116  239 1    
   233  117  118 2    
   234  117  119 am   BACKBONE|DICT|INTERRES
   235  119  120 1    
   236  119  240 1    
   237  120  121 1    
   238  120  124 1    
   239  120  241 1    
   240  121  122 am   BACKBONE|DICT|INTERRES
   241  121  123 2    
   242  122  242 1    
   243  122  243 1    
   244  124  125 1    
   245  124  244 1    
   246  124  245 1    
   247  125  126 1    
   248  126  246 1    
   249  126  247 1    
@<TRIPOS>SUBSTRUCTURE
     1 UNK         1 GROUP             0       ****    0 ROOT    
