@<TRIPOS>MOLECULE
3R540
247   249    1
SMALL
USER_CHARGES


@<TRIPOS>ATOM
      1 CA          1.1144  -10.3181  -47.5468 C.3       0 UNK        -0.1800 
      2 C           1.4029  -11.8100  -47.4696 C.2       0 UNK         0.5000 
      3 O           1.0629  -12.4468  -46.4731 O.2       0 UNK        -0.5000 
      4 N           2.0497  -12.3638  -48.5048 N.am      1 UNK        -0.5000 
      5 CA          2.4008  -13.7823  -48.7107 C.3       1 UNK         0.1400 
      6 C6          1.1855  -14.7443  -48.6955 C.3       23 UNK        -0.0398 
      7 S7         -0.1491  -14.2322  -49.8399 S.3       23 UNK        -0.2404 
      8 C8          0.2863  -15.0845  -51.3905 C.3       23 UNK        -0.0205 
      9 C9         -0.0362  -16.5678  -51.3240 C.ar      23 UNK        -0.0193 
     10 C10        -1.3383  -17.0218  -51.5554 C.ar      23 UNK        -0.1150 
     11 C11        -1.6490  -18.3799  -51.4291 C.ar      23 UNK        -0.0193 
     12 C12        -0.6447  -19.2839  -51.0736 C.ar      23 UNK        -0.1150 
     13 C13         0.6625  -18.8415  -50.8570 C.ar      23 UNK        -0.0193 
     14 C14         0.9652  -17.4865  -51.0069 C.ar      23 UNK        -0.1150 
     15 C15         1.7362  -19.8175  -50.4047 C.3       23 UNK        -0.0205 
     16 S16         2.4605  -19.3487  -48.7976 S.3       23 UNK        -0.2404 
     17 C17         0.9874  -19.1450  -47.7361 C.3       23 UNK        -0.0398 
     18 CA          0.5391  -20.4820  -47.0942 C.3       11 UNK         0.1400 
     19 N           0.2532  -20.3381  -45.6675 N.am      11 UNK        -0.5000 
     20 C           0.1389  -21.3601  -44.8096 C.2       10 UNK         0.5000 
     21 O           0.2819  -22.5400  -45.1273 O.2       10 UNK        -0.5000 
     22 CA         -0.2347  -21.0011  -43.3615 C.3       10 UNK         0.1400 
     23 CB          1.0262  -20.7666  -42.5187 C.3       10 UNK        -0.1800 
     24 N          -1.1079  -19.8267  -43.2900 N.am      10 UNK        -0.5000 
     25 C          -2.3878  -19.8350  -43.6866 C.2       9 UNK         0.5000 
     26 O          -2.9631  -20.8380  -44.1113 O.2       9 UNK        -0.5000 
     27 CA         -3.1293  -18.4874  -43.6519 C.3       9 UNK         0.1400 
     28 CB         -3.6086  -18.1574  -42.2306 C.3       9 UNK        -0.1800 
     29 N          -2.3416  -17.3707  -44.1880 N.am      9 UNK        -0.5000 
     30 C          -1.9815  -17.2682  -45.4770 C.2       8 UNK         0.5000 
     31 O          -2.1383  -18.1752  -46.2902 O.2       8 UNK        -0.5000 
     32 CA         -1.3483  -15.9579  -45.9686 C.3       8 UNK         0.1400 
     33 CB         -2.3824  -15.1149  -46.7290 C.3       8 UNK        -0.1800 
     34 N          -0.7848  -15.1543  -44.8881 N.am      8 UNK        -0.5000 
     35 C           0.4932  -15.2098  -44.5001 C.2       7 UNK         0.5000 
     36 O           1.3375  -15.9227  -45.0414 O.2       7 UNK        -0.5000 
     37 CA          0.9113  -14.3321  -43.3052 C.3       7 UNK         0.1400 
     38 CB          0.0285  -13.0800  -43.1058 C.3       7 UNK        -0.1800 
     39 N           0.9930  -15.1065  -42.0653 N.am      7 UNK        -0.5000 
     40 C           0.0015  -15.7847  -41.4637 C.2       6 UNK         0.5000 
     41 O          -1.1378  -15.8785  -41.9230 O.2       6 UNK        -0.5000 
     42 CA          0.3168  -16.4750  -40.1200 C.3       6 UNK         0.1400 
     43 CB          0.3409  -18.0005  -40.2841 C.3       6 UNK        -0.1800 
     44 N           1.5871  -16.0522  -39.5319 N.am      6 UNK        -0.5000 
     45 C           1.8090  -14.8720  -38.9373 C.2       5 UNK         0.5000 
     46 O           0.9305  -14.0315  -38.7423 O.2       5 UNK        -0.5000 
     47 CA          3.2586  -14.5685  -38.5034 C.3       5 UNK         0.1400 
     48 CB          3.4064  -14.7177  -36.9813 C.3       5 UNK        -0.1800 
     49 N           4.2700  -15.4048  -39.1601 N.am      5 UNK        -0.5000 
     50 C           4.5496  -15.4030  -40.4708 C.2       4 UNK         0.5000 
     51 O           3.9717  -14.6746  -41.2830 O.2       4 UNK        -0.5000 
     52 CA          5.6513  -16.3748  -40.9524 C.3       4 UNK         0.1400 
     53 CB          5.8345  -17.6107  -40.0422 C.3       4 UNK        -0.1800 
     54 N           5.4516  -16.7856  -42.3445 N.am      4 UNK        -0.5000 
     55 C           4.4045  -17.4469  -42.8573 C.2       3 UNK         0.5000 
     56 O           3.4657  -17.8800  -42.1868 O.2       3 UNK        -0.5000 
     57 CA          4.3980  -17.5831  -44.3930 C.3       3 UNK         0.1400 
     58 CB          3.3625  -18.6020  -44.8964 C.3       3 UNK        -0.1800 
     59 N           4.1418  -16.2751  -45.0013 N.am      3 UNK        -0.5000 
     60 C           5.0687  -15.3180  -45.1421 C.2       2 UNK         0.5000 
     61 O           6.2669  -15.5133  -44.9224 O.2       2 UNK        -0.5000 
     62 CA          4.5796  -13.9024  -45.5130 C.3       2 UNK         0.1400 
     63 CB          5.7312  -12.9604  -45.9230 C.3       2 UNK        -0.1800 
     64 N           3.5114  -13.8484  -46.5132 N.am      2 UNK        -0.5000 
     65 C           3.5389  -14.2751  -47.7826 C.2       1 UNK         0.5000 
     66 O           4.4425  -14.9654  -48.2545 O.2       1 UNK        -0.5000 
     67 C          -0.6549  -21.1136  -47.8387 C.2       11 UNK         0.5000 
     68 O          -0.4592  -22.0331  -48.6316 O.2       11 UNK        -0.5000 
     69 N          -1.8740  -20.6527  -47.5233 N.am      12 UNK        -0.5000 
     70 CA         -3.1405  -21.2008  -48.0068 C.3       12 UNK         0.1400 
     71 CB         -4.3058  -20.3561  -47.4701 C.3       12 UNK        -0.1800 
     72 C          -3.3316  -22.6718  -47.6072 C.2       12 UNK         0.5000 
     73 O          -3.7490  -23.4736  -48.4424 O.2       12 UNK        -0.5000 
     74 N          -2.9891  -23.0001  -46.3526 N.am      13 UNK        -0.5000 
     75 CA         -3.0059  -24.3602  -45.8163 C.3       13 UNK         0.1400 
     76 CB         -2.7704  -24.3225  -44.2991 C.3       13 UNK        -0.1800 
     77 C          -1.9886  -25.2827  -46.5123 C.2       13 UNK         0.5000 
     78 O          -2.3407  -26.4095  -46.8604 O.2       13 UNK        -0.5000 
     79 N          -0.7668  -24.7798  -46.7441 N.am      14 UNK        -0.5000 
     80 CA          0.2960  -25.4761  -47.4753 C.3       14 UNK         0.1400 
     81 CB          1.6109  -24.6926  -47.3434 C.3       14 UNK        -0.1800 
     82 C          -0.0525  -25.7141  -48.9574 C.2       14 UNK         0.5000 
     83 O           0.2367  -26.7877  -49.4867 O.2       14 UNK        -0.5000 
     84 N          -0.6984  -24.7236  -49.5871 N.am      15 UNK        -0.5000 
     85 CA         -1.2240  -24.7913  -50.9525 C.3       15 UNK         0.1400 
     86 CB         -1.5095  -23.3615  -51.4389 C.3       15 UNK        -0.1800 
     87 C          -2.4875  -25.6685  -51.0862 C.2       15 UNK         0.5000 
     88 O          -2.8544  -26.0207  -52.2072 O.2       15 UNK        -0.5000 
     89 N          -3.1261  -25.9899  -49.9511 N.am      16 UNK        -0.5000 
     90 CA         -4.3734  -26.7446  -49.7918 C.3       16 UNK         0.1400 
     91 CB         -4.2149  -28.1929  -50.3006 C.3       16 UNK        -0.1800 
     92 C          -5.6079  -26.0230  -50.3771 C.2       16 UNK         0.5000 
     93 O          -6.5703  -26.6869  -50.7677 O.2       16 UNK        -0.5000 
     94 N          -5.5592  -24.6809  -50.3820 N.am      17 UNK        -0.5000 
     95 CA         -6.5483  -23.7174  -50.8818 C.3       17 UNK         0.1400 
     96 CB         -7.8720  -23.8502  -50.1015 C.3       17 UNK        -0.1800 
     97 C          -6.7917  -23.7704  -52.4077 C.2       17 UNK         0.5000 
     98 O          -6.4996  -24.7686  -53.0684 O.2       17 UNK        -0.5000 
     99 N          -7.3451  -22.6689  -52.9361 N.am      18 UNK        -0.5000 
    100 CA        -7.8042  -22.4696  -54.3189 C.3       18 UNK         0.1400 
    101 CB        -9.0891  -23.2859  -54.5659 C.3       18 UNK        -0.1800 
    102 C         -6.7357  -22.7068  -55.4131 C.2       18 UNK         0.5000 
    103 O         -7.0758  -23.0688  -56.5416 O.2       18 UNK        -0.5000 
    104 N         -5.4606  -22.4674  -55.0852 N.am      19 UNK        -0.5000 
    105 CA        -4.3023  -22.6306  -55.9660 C.3       19 UNK         0.1400 
    106 CB        -3.0751  -22.9550  -55.0961 C.3       19 UNK        -0.1800 
    107 C         -4.0983  -21.3785  -56.8440 C.2       19 UNK         0.5000 
    108 O         -3.0544  -20.7294  -56.7655 O.2       19 UNK        -0.5000 
    109 N         -5.1407  -21.0273  -57.6139 N.am      20 UNK        -0.5000 
    110 CA        -5.3144  -19.7911  -58.3978 C.3       20 UNK         0.1400 
    111 CB        -4.2360  -19.6642  -59.4935 C.3       20 UNK        -0.1800 
    112 C         -5.4276  -18.5131  -57.5307 C.2       20 UNK         0.5000 
    113 O         -5.4013  -17.4012  -58.0604 O.2       20 UNK        -0.5000 
    114 N         -5.5789  -18.7050  -56.2186 N.am      21 UNK        -0.5000 
    115 CA        -5.6845  -17.7375  -55.1374 C.3       21 UNK         0.1400 
    116 CB        -4.3674  -16.9535  -54.9781 C.3       21 UNK        -0.1800 
    117 C         -6.0016  -18.5509  -53.8724 C.2       21 UNK         0.5000 
    118 O         -5.8283  -19.7742  -53.8776 O.2       21 UNK        -0.5000 
    119 N         -6.4494  -17.8760  -52.8084 N.am      22 UNK        -0.5000 
    120 CA        -6.8646  -18.5025  -51.5380 C.3       22 UNK         0.1400 
    121 C         -8.1249  -19.4081  -51.6992 C.2       22 UNK         0.5000 
    122 N         -9.1120  -19.0004  -52.4868 N.am      22 UNK        -0.7600 
    123 O         -8.2026  -20.5006  -51.1435 O.2       22 UNK        -0.5000 
    124 C124       -5.7087  -19.2327  -50.7921 C.3       23 UNK        -0.0398 
    125 S125       -4.2472  -18.1867  -50.4768 S.3       23 UNK        -0.2404 
    126 C126       -3.0642  -18.8766  -51.6759 C.3       23 UNK        -0.0205 
    127 H127        1.4794   -9.8815  -48.4767 H         1 UNK         0.0600 
    128 H128        1.5933   -9.8005  -46.7158 H         1 UNK         0.0600 
    129 H129        0.0405  -10.1422  -47.4865 H         1 UNK         0.0600 
    130 H130        2.3217  -11.7592  -49.2672 H         1 UNK         0.3000 
    131 H131        2.8138  -13.8186  -49.7201 H         1 UNK         0.0600 
    132 H132        1.4945  -15.7647  -48.9209 H         1 UNK         0.0800 
    133 H133        0.7633  -14.7775  -47.6928 H         1 UNK         0.0800 
    134 H134       -0.2720  -14.6296  -52.2100 H         1 UNK         0.0800 
    135 H135        1.3418  -14.9251  -51.6158 H         1 UNK         0.0800 
    136 H136       -2.1169  -16.3159  -51.8089 H         1 UNK         0.1150 
    137 H137       -0.8831  -20.3310  -50.9518 H         1 UNK         0.1150 
    138 H138        1.9749  -17.1437  -50.8290 H         1 UNK         0.1150 
    139 H139        1.3383  -20.8308  -50.3324 H         1 UNK         0.0800 
    140 H140        2.5272  -19.8506  -51.1549 H         1 UNK         0.0800 
    141 H141        0.1776  -18.6460  -48.2706 H         1 UNK         0.0800 
    142 H142        1.2736  -18.4291  -46.9650 H         1 UNK         0.0800 
    143 H143        1.3638  -21.1952  -47.1635 H         1 UNK         0.0600 
    144 H144        0.0682  -19.4061  -45.3306 H         1 UNK         0.3000 
    145 H145       -0.7675  -21.8554  -42.9384 H         1 UNK         0.0600 
    146 H146        0.7778  -20.6691  -41.4623 H         1 UNK         0.0600 
    147 H147        1.7191  -21.6044  -42.6082 H         1 UNK         0.0600 
    148 H148        1.5586  -19.8671  -42.8272 H         1 UNK         0.0600 
    149 H149       -0.7030  -18.9612  -42.9662 H         1 UNK         0.3000 
    150 H150       -4.0156  -18.5926  -44.2815 H         1 UNK         0.0600 
    151 H151       -4.2342  -18.9583  -41.8344 H         1 UNK         0.0600 
    152 H152       -4.2036  -17.2442  -42.2182 H         1 UNK         0.0600 
    153 H153       -2.7760  -18.0216  -41.5415 H         1 UNK         0.0600 
    154 H154       -2.1009  -16.6282  -43.5389 H         1 UNK         0.3000 
    155 H155       -0.5666  -16.2419  -46.6741 H         1 UNK         0.0600 
    156 H156       -3.2136  -14.8194  -46.0879 H         1 UNK         0.0600 
    157 H157       -1.9291  -14.2087  -47.1319 H         1 UNK         0.0600 
    158 H158       -2.7959  -15.6712  -47.5718 H         1 UNK         0.0600 
    159 H159       -1.4195  -14.5562  -44.3795 H         1 UNK         0.3000 
    160 H160        1.9235  -13.9864  -43.5188 H         1 UNK         0.0600 
    161 H161       -0.9912  -13.3273  -42.8102 H         1 UNK         0.0600 
    162 H162       -0.0275  -12.4884  -44.0199 H         1 UNK         0.0600 
    163 H163        0.4448  -12.4346  -42.3323 H         1 UNK         0.0600 
    164 H164        1.9095  -15.1223  -41.6321 H         1 UNK         0.3000 
    165 H165       -0.4883  -16.2198  -39.4279 H         1 UNK         0.0600 
    166 H166        0.5004  -18.4984  -39.3276 H         1 UNK         0.0600 
    167 H167       -0.6008  -18.3720  -40.6869 H         1 UNK         0.0600 
    168 H168        1.1370  -18.3109  -40.9595 H         1 UNK         0.0600 
    169 H169        2.3708  -16.6755  -39.6627 H         1 UNK         0.3000 
    170 H170        3.4628  -13.5287  -38.7672 H         1 UNK         0.0600 
    171 H171        3.2332  -15.7454  -36.6595 H         1 UNK         0.0600 
    172 H172        4.4028  -14.4242  -36.6502 H         1 UNK         0.0600 
    173 H173        2.6918  -14.0840  -36.4542 H         1 UNK         0.0600 
    174 H174        4.7848  -16.0338  -38.5608 H         1 UNK         0.3000 
    175 H175        6.5832  -15.8082  -40.9359 H         1 UNK         0.0600 
    176 H176        6.5712  -18.2970  -40.4600 H         1 UNK         0.0600 
    177 H177        4.9039  -18.1647  -39.9127 H         1 UNK         0.0600 
    178 H178        6.1943  -17.3281  -39.0525 H         1 UNK         0.0600 
    179 H179        6.1161  -16.4055  -43.0095 H         1 UNK         0.3000 
    180 H180        5.3821  -17.9428  -44.7007 H         1 UNK         0.0600 
    181 H181        3.4283  -18.7157  -45.9772 H         1 UNK         0.0600 
    182 H182        2.3439  -18.3074  -44.6453 H         1 UNK         0.0600 
    183 H183        3.5368  -19.5850  -44.4577 H         1 UNK         0.0600 
    184 H184        3.1618  -16.0469  -45.1568 H         1 UNK         0.3000 
    185 H185        4.1469  -13.4975  -44.5972 H         1 UNK         0.0600 
    186 H186        6.4703  -12.8712  -45.1259 H         1 UNK         0.0600 
    187 H187        6.2495  -13.3208  -46.8122 H         1 UNK         0.0600 
    188 H188        5.3633  -11.9560  -46.1333 H         1 UNK         0.0600 
    189 H189        2.6848  -13.3181  -46.2481 H         1 UNK         0.3000 
    190 H190       -1.9485  -19.8418  -46.9114 H         1 UNK         0.3000 
    191 H191       -3.1381  -21.1388  -49.0968 H         1 UNK         0.0600 
    192 H192       -4.2122  -19.3136  -47.7713 H         1 UNK         0.0600 
    193 H193       -5.2607  -20.7242  -47.8463 H         1 UNK         0.0600 
    194 H194       -4.3537  -20.3781  -46.3815 H         1 UNK         0.0600 
    195 H195       -2.7015  -22.2629  -45.7194 H         1 UNK         0.3000 
    196 H196       -4.0017  -24.7724  -45.9926 H         1 UNK         0.0600 
    197 H197       -2.8247  -25.3244  -43.8716 H         1 UNK         0.0600 
    198 H198       -3.5233  -23.7134  -43.7984 H         1 UNK         0.0600 
    199 H199       -1.7914  -23.9134  -44.0510 H         1 UNK         0.0600 
    200 H200       -0.5373  -23.8602  -46.3800 H         1 UNK         0.3000 
    201 H201        0.4362  -26.4529  -47.0077 H         1 UNK         0.0600 
    202 H202        1.9023  -24.5852  -46.2985 H         1 UNK         0.0600 
    203 H203        1.5305  -23.6935  -47.7720 H         1 UNK         0.0600 
    204 H204        2.4246  -25.2058  -47.8572 H         1 UNK         0.0600 
    205 H205       -0.8206  -23.8385  -49.1010 H         1 UNK         0.3000 
    206 H206       -0.4555  -25.2240  -51.5961 H         1 UNK         0.0600 
    207 H207       -0.6072  -22.7504  -51.4125 H         1 UNK         0.0600 
    208 H208       -1.8688  -23.3629  -52.4672 H         1 UNK         0.0600 
    209 H209       -2.2659  -22.8708  -50.8257 H         1 UNK         0.0600 
    210 H210       -2.7436  -25.6184  -49.0914 H         1 UNK         0.3000 
    211 H211       -4.5470  -26.7975  -48.7162 H         1 UNK         0.0600 
    212 H212       -4.1199  -28.2336  -51.3859 H         1 UNK         0.0600 
    213 H213       -5.0782  -28.8001  -50.0265 H         1 UNK         0.0600 
    214 H214       -3.3350  -28.6683  -49.8671 H         1 UNK         0.0600 
    215 H215       -4.7357  -24.2630  -49.9587 H         1 UNK         0.3000 
    216 H216       -6.1300  -22.7338  -50.6616 H         1 UNK         0.0600 
    217 H217       -8.5710  -23.0586  -50.3716 H         1 UNK         0.0600 
    218 H218       -7.7043  -23.7786  -49.0269 H         1 UNK         0.0600 
    219 H219       -8.3705  -24.7987  -50.3021 H         1 UNK         0.0600 
    220 H220       -7.5580  -21.8991  -52.3064 H         1 UNK         0.3000 
    221 H221       -8.0704  -21.4144  -54.3932 H         1 UNK         0.0600 
    222 H222       -8.8926  -24.3585  -54.5503 H         1 UNK         0.0600 
    223 H223       -9.8429  -23.0721  -53.8082 H         1 UNK         0.0600 
    224 H224       -9.5299  -23.0464  -55.5343 H         1 UNK         0.0600 
    225 H225       -5.2822  -22.0679  -54.1739 H         1 UNK         0.3000 
    226 H226       -4.4708  -23.4775  -56.6344 H         1 UNK         0.0600 
    227 H227       -3.2376  -23.8616  -54.5121 H         1 UNK         0.0600 
    228 H228       -2.1899  -23.1200  -55.7113 H         1 UNK         0.0600 
    229 H229       -2.8493  -22.1440  -54.4024 H         1 UNK         0.0600 
    230 H230       -5.9520  -21.6362  -57.5777 H         1 UNK         0.3000 
    231 H231       -6.2773  -19.8934  -58.8998 H         1 UNK         0.0600 
    232 H232       -3.2499  -19.4641  -59.0740 H         1 UNK         0.0600 
    233 H233       -4.4685  -18.8462  -60.1762 H         1 UNK         0.0600 
    234 H234       -4.1701  -20.5739  -60.0902 H         1 UNK         0.0600 
    235 H235       -5.5985  -19.6576  -55.8737 H         1 UNK         0.3000 
    236 H236       -6.5120  -17.0558  -55.3412 H         1 UNK         0.0600 
    237 H237       -4.1799  -16.3136  -55.8401 H         1 UNK         0.0600 
    238 H238       -4.3930  -16.3079  -54.0994 H         1 UNK         0.0600 
    239 H239       -3.5134  -17.6231  -54.8711 H         1 UNK         0.0600 
    240 H240       -6.5581  -16.8738  -52.8648 H         1 UNK         0.3000 
    241 H241       -7.1874  -17.6852  -50.8924 H         1 UNK         0.0600 
    242 H242       -9.0642  -18.1135  -52.9627 H         1 UNK         0.3800 
    243 H243       -9.9280  -19.5812  -52.5960 H         1 UNK         0.3800 
    244 H244       -6.0649  -19.5751  -49.8200 H         1 UNK         0.0800 
    245 H245       -5.4106  -20.1353  -51.3264 H         1 UNK         0.0800 
    246 H246       -3.0951  -19.9662  -51.6287 H         1 UNK         0.0800 
    247 H247       -3.3646  -18.6031  -52.6856 H         1 UNK         0.0800 
@<TRIPOS>BOND
     1    1    2 1    
     2    1  127 1    
     3    1  128 1    
     4    1  129 1    
     5    2    3 2    
     6    2    4 am   BACKBONE|DICT|INTERRES
     7    4    5 1    
     8    4  130 1    
     9    5    6 1    
    10    5   65 1    
    11    5  131 1    
    12    6    7 1    
    13    6  132 1    
    14    6  133 1    
    15    7    8 1    
    16    8    9 1    
    17    8  134 1    
    18    8  135 1    
    19    9   10 ar   
    20    9   14 ar   
    21   10   11 ar   
    22   10  136 1    
    23   11   12 ar   
    24   11  126 1    
    25   12   13 ar   
    26   12  137 1    
    27   13   14 ar   
    28   13   15 1    
    29   14  138 1    
    30   15   16 1    
    31   15  139 1    
    32   15  140 1    
    33   16   17 1    
    34   17   18 1    
    35   17  141 1    
    36   17  142 1    
    37   18   19 1    
    38   18   67 1    
    39   18  143 1    
    40   19   20 am   BACKBONE|DICT|INTERRES
    41   19  144 1    
    42   20   21 2    
    43   20   22 1    
    44   22   23 1    
    45   22   24 1    
    46   22  145 1    
    47   23  146 1    
    48   23  147 1    
    49   23  148 1    
    50   24   25 am   BACKBONE|DICT|INTERRES
    51   24  149 1    
    52   25   26 2    
    53   25   27 1    
    54   27   28 1    
    55   27   29 1    
    56   27  150 1    
    57   28  151 1    
    58   28  152 1    
    59   28  153 1    
    60   29   30 am   BACKBONE|DICT|INTERRES
    61   29  154 1    
    62   30   31 2    
    63   30   32 1    
    64   32   33 1    
    65   32   34 1    
    66   32  155 1    
    67   33  156 1    
    68   33  157 1    
    69   33  158 1    
    70   34   35 am   BACKBONE|DICT|INTERRES
    71   34  159 1    
    72   35   36 2    
    73   35   37 1    
    74   37   38 1    
    75   37   39 1    
    76   37  160 1    
    77   38  161 1    
    78   38  162 1    
    79   38  163 1    
    80   39   40 am   BACKBONE|DICT|INTERRES
    81   39  164 1    
    82   40   41 2    
    83   40   42 1    
    84   42   43 1    
    85   42   44 1    
    86   42  165 1    
    87   43  166 1    
    88   43  167 1    
    89   43  168 1    
    90   44   45 am   BACKBONE|DICT|INTERRES
    91   44  169 1    
    92   45   46 2    
    93   45   47 1    
    94   47   48 1    
    95   47   49 1    
    96   47  170 1    
    97   48  171 1    
    98   48  172 1    
    99   48  173 1    
   100   49   50 am   BACKBONE|DICT|INTERRES
   101   49  174 1    
   102   50   51 2    
   103   50   52 1    
   104   52   53 1    
   105   52   54 1    
   106   52  175 1    
   107   53  176 1    
   108   53  177 1    
   109   53  178 1    
   110   54   55 am   BACKBONE|DICT|INTERRES
   111   54  179 1    
   112   55   56 2    
   113   55   57 1    
   114   57   58 1    
   115   57   59 1    
   116   57  180 1    
   117   58  181 1    
   118   58  182 1    
   119   58  183 1    
   120   59   60 am   BACKBONE|DICT|INTERRES
   121   59  184 1    
   122   60   61 2    
   123   60   62 1    
   124   62   63 1    
   125   62   64 1    
   126   62  185 1    
   127   63  186 1    
   128   63  187 1    
   129   63  188 1    
   130   64   65 am   BACKBONE|DICT|INTERRES
   131   64  189 1    
   132   65   66 2    
   133   67   68 2    
   134   67   69 am   BACKBONE|DICT|INTERRES
   135   69   70 1    
   136   69  190 1    
   137   70   71 1    
   138   70   72 1    
   139   70  191 1    
   140   71  192 1    
   141   71  193 1    
   142   71  194 1    
   143   72   73 2    
   144   72   74 am   BACKBONE|DICT|INTERRES
   145   74   75 1    
   146   74  195 1    
   147   75   76 1    
   148   75   77 1    
   149   75  196 1    
   150   76  197 1    
   151   76  198 1    
   152   76  199 1    
   153   77   78 2    
   154   77   79 am   BACKBONE|DICT|INTERRES
   155   79   80 1    
   156   79  200 1    
   157   80   81 1    
   158   80   82 1    
   159   80  201 1    
   160   81  202 1    
   161   81  203 1    
   162   81  204 1    
   163   82   83 2    
   164   82   84 am   BACKBONE|DICT|INTERRES
   165   84   85 1    
   166   84  205 1    
   167   85   86 1    
   168   85   87 1    
   169   85  206 1    
   170   86  207 1    
   171   86  208 1    
   172   86  209 1    
   173   87   88 2    
   174   87   89 am   BACKBONE|DICT|INTERRES
   175   89   90 1    
   176   89  210 1    
   177   90   91 1    
   178   90   92 1    
   179   90  211 1    
   180   91  212 1    
   181   91  213 1    
   182   91  214 1    
   183   92   93 2    
   184   92   94 am   BACKBONE|DICT|INTERRES
   185   94   95 1    
   186   94  215 1    
   187   95   96 1    
   188   95   97 1    
   189   95  216 1    
   190   96  217 1    
   191   96  218 1    
   192   96  219 1    
   193   97   98 2    
   194   97   99 am   BACKBONE|DICT|INTERRES
   195   99  100 1    
   196   99  220 1    
   197  100  101 1    
   198  100  102 1    
   199  100  221 1    
   200  101  222 1    
   201  101  223 1    
   202  101  224 1    
   203  102  103 2    
   204  102  104 am   BACKBONE|DICT|INTERRES
   205  104  105 1    
   206  104  225 1    
   207  105  106 1    
   208  105  107 1    
   209  105  226 1    
   210  106  227 1    
   211  106  228 1    
   212  106  229 1    
   213  107  108 2    
   214  107  109 am   BACKBONE|DICT|INTERRES
   215  109  110 1    
   216  109  230 1    
   217  110  111 1    
   218  110  112 1    
   219  110  231 1    
   220  111  232 1    
   221  111  233 1    
   222  111  234 1    
   223  112  113 2    
   224  112  114 am   BACKBONE|DICT|INTERRES
   225  114  115 1    
   226  114  235 1    
   227  115  116 1    
   228  115  117 1    
   229  115  236 1    
   230  116  237 1    
   231  116  238 1    
   232  116  239 1    
   233  117  118 2    
   234  117  119 am   BACKBONE|DICT|INTERRES
   235  119  120 1    
   236  119  240 1    
   237  120  121 1    
   238  120  124 1    
   239  120  241 1    
   240  121  122 am   BACKBONE|DICT|INTERRES
   241  121  123 2    
   242  122  242 1    
   243  122  243 1    
   244  124  125 1    
   245  124  244 1    
   246  124  245 1    
   247  125  126 1    
   248  126  246 1    
   249  126  247 1    
@<TRIPOS>SUBSTRUCTURE
     1 UNK         1 GROUP             0       ****    0 ROOT    
