@<TRIPOS>MOLECULE
3R540
247   249    1
SMALL
USER_CHARGES


@<TRIPOS>ATOM
      1 CA         -0.6158  -15.8701  -48.2466 C.3       0 UNK        -0.1800 
      2 C          -1.5346  -14.7243  -47.8529 C.2       0 UNK         0.5000 
      3 O          -1.2161  -13.5756  -48.1580 O.2       0 UNK        -0.5000 
      4 N          -2.6539  -15.0431  -47.1818 N.am      1 UNK        -0.5000 
      5 CA         -3.7365  -14.1442  -46.7416 C.3       1 UNK         0.1400 
      6 C6         -4.8687  -13.9295  -47.7937 C.3       23 UNK        -0.0398 
      7 S7         -4.3435  -13.5200  -49.4990 S.3       23 UNK        -0.2404 
      8 C8         -4.9854  -14.9340  -50.4581 C.3       23 UNK        -0.0205 
      9 C9         -4.2680  -16.2398  -50.1403 C.ar      23 UNK        -0.0193 
     10 C10        -3.0733  -16.5680  -50.7869 C.ar      23 UNK        -0.1150 
     11 C11        -2.4216  -17.7749  -50.5114 C.ar      23 UNK        -0.0193 
     12 C12        -2.9668  -18.6519  -49.5677 C.ar      23 UNK        -0.1150 
     13 C13        -4.1628  -18.3337  -48.9143 C.ar      23 UNK        -0.0193 
     14 C14        -4.8117  -17.1345  -49.2156 C.ar      23 UNK        -0.1150 
     15 C15        -4.7895  -19.2876  -47.9080 C.3       23 UNK        -0.0205 
     16 S16        -4.5486  -18.7352  -46.1850 S.3       23 UNK        -0.2404 
     17 C17        -2.7524  -18.9073  -45.8708 C.3       23 UNK        -0.0398 
     18 CA         -2.0963  -20.2546  -46.2704 C.3       11 UNK         0.1400 
     19 N          -0.6501  -20.0992  -46.4434 N.am      11 UNK        -0.5000 
     20 C           0.1113  -20.8148  -47.2804 C.2       10 UNK         0.5000 
     21 O          -0.3189  -21.7303  -47.9812 O.2       10 UNK        -0.5000 
     22 CA          1.6132  -20.4778  -47.2913 C.3       10 UNK         0.1400 
     23 CB          1.8796  -19.2047  -48.1102 C.3       10 UNK        -0.1800 
     24 N           2.1550  -20.3223  -45.9383 N.am      10 UNK        -0.5000 
     25 C           2.2439  -21.3201  -45.0462 C.2       9 UNK         0.5000 
     26 O           1.9333  -22.4832  -45.2989 O.2       9 UNK        -0.5000 
     27 CA          2.7238  -20.9631  -43.6276 C.3       9 UNK         0.1400 
     28 CB          4.2571  -20.9001  -43.5677 C.3       9 UNK        -0.1800 
     29 N           2.1539  -19.7074  -43.1388 N.am      9 UNK        -0.5000 
     30 C           0.8554  -19.5211  -42.8579 C.2       8 UNK         0.5000 
     31 O           0.0090  -20.4117  -42.9150 O.2       8 UNK        -0.5000 
     32 CA          0.4176  -18.0912  -42.4904 C.3       8 UNK         0.1400 
     33 CB          0.6472  -17.8113  -40.9980 C.3       8 UNK        -0.1800 
     34 N           1.1027  -17.0751  -43.2860 N.am      8 UNK        -0.5000 
     35 C           0.9935  -16.9404  -44.6137 C.2       7 UNK         0.5000 
     36 O           0.2459  -17.6232  -45.3137 O.2       7 UNK        -0.5000 
     37 CA          1.9219  -15.9104  -45.2758 C.3       7 UNK         0.1400 
     38 CB          1.3469  -14.4925  -45.1644 C.3       7 UNK        -0.1800 
     39 N           3.2687  -15.9442  -44.7107 N.am      7 UNK        -0.5000 
     40 C           4.1441  -16.9376  -44.9161 C.2       6 UNK         0.5000 
     41 O           3.9111  -17.9162  -45.6255 O.2       6 UNK        -0.5000 
     42 CA          5.4907  -16.8340  -44.1770 C.3       6 UNK         0.1400 
     43 CB          6.4858  -15.9864  -44.9833 C.3       6 UNK        -0.1800 
     44 N           5.3516  -16.2707  -42.8329 N.am      6 UNK        -0.5000 
     45 C           4.7332  -16.8900  -41.8179 C.2       5 UNK         0.5000 
     46 O           4.2421  -18.0150  -41.9017 O.2       5 UNK        -0.5000 
     47 CA          4.5957  -16.0961  -40.5055 C.3       5 UNK         0.1400 
     48 CB          5.8717  -16.2225  -39.6599 C.3       5 UNK        -0.1800 
     49 N           4.2805  -14.6772  -40.7062 N.am      5 UNK        -0.5000 
     50 C           3.1808  -14.2251  -41.3230 C.2       4 UNK         0.5000 
     51 O           2.3513  -14.9608  -41.8597 O.2       4 UNK        -0.5000 
     52 CA          3.0012  -12.6971  -41.3933 C.3       4 UNK         0.1400 
     53 CB          3.6531  -12.1448  -42.6706 C.3       4 UNK        -0.1800 
     54 N           1.5907  -12.3031  -41.3758 N.am      4 UNK        -0.5000 
     55 C           0.7429  -12.5171  -40.3593 C.2       3 UNK         0.5000 
     56 O           1.0833  -13.0156  -39.2850 O.2       3 UNK        -0.5000 
     57 CA         -0.7253  -12.0806  -40.5477 C.3       3 UNK         0.1400 
     58 CB         -1.0563  -10.8968  -39.6239 C.3       3 UNK        -0.1800 
     59 N          -1.0767  -11.7080  -41.9218 N.am      3 UNK        -0.5000 
     60 C          -1.3265  -12.5739  -42.9111 C.2       2 UNK         0.5000 
     61 O          -1.2258  -13.7982  -42.7977 O.2       2 UNK        -0.5000 
     62 CA         -1.7692  -11.9602  -44.2479 C.3       2 UNK         0.1400 
     63 CB         -0.6043  -11.2568  -44.9681 C.3       2 UNK        -0.1800 
     64 N          -2.3186  -13.0138  -45.0945 N.am      2 UNK        -0.5000 
     65 C          -3.2540  -12.8512  -46.0376 C.2       1 UNK         0.5000 
     66 O          -3.7332  -11.7547  -46.3348 O.2       1 UNK        -0.5000 
     67 C          -2.4876  -21.4388  -45.3525 C.2       11 UNK         0.5000 
     68 O          -3.6739  -21.6338  -45.0869 O.2       11 UNK        -0.5000 
     69 N          -1.5141  -22.2625  -44.9302 N.am      12 UNK        -0.5000 
     70 CA         -1.7582  -23.5665  -44.3028 C.3       12 UNK         0.1400 
     71 CB         -0.4406  -24.1419  -43.7660 C.3       12 UNK        -0.1800 
     72 C          -2.4285  -24.5534  -45.2813 C.2       12 UNK         0.5000 
     73 O          -3.2044  -25.4097  -44.8554 O.2       12 UNK        -0.5000 
     74 N          -2.1655  -24.3671  -46.5829 N.am      13 UNK        -0.5000 
     75 CA         -2.9587  -24.8955  -47.6850 C.3       13 UNK         0.1400 
     76 CB         -2.0911  -24.8910  -48.9527 C.3       13 UNK        -0.1800 
     77 C          -4.2242  -24.0269  -47.8278 C.2       13 UNK         0.5000 
     78 O          -4.2195  -23.0331  -48.5570 O.2       13 UNK        -0.5000 
     79 N          -5.2666  -24.3881  -47.0678 N.am      14 UNK        -0.5000 
     80 CA         -6.4873  -23.6037  -46.8465 C.3       14 UNK         0.1400 
     81 CB         -7.3363  -24.3086  -45.7775 C.3       14 UNK        -0.1800 
     82 C          -7.3328  -23.3188  -48.1046 C.2       14 UNK         0.5000 
     83 O          -8.1406  -22.3897  -48.0880 O.2       14 UNK        -0.5000 
     84 N          -7.1225  -24.0951  -49.1766 N.am      15 UNK        -0.5000 
     85 CA         -7.7211  -23.8837  -50.4981 C.3       15 UNK         0.1400 
     86 CB         -7.6108  -25.1860  -51.3068 C.3       15 UNK        -0.1800 
     87 C          -7.1038  -22.6995  -51.2769 C.2       15 UNK         0.5000 
     88 O          -7.5854  -22.3875  -52.3671 O.2       15 UNK        -0.5000 
     89 N          -6.0550  -22.0730  -50.7214 N.am      16 UNK        -0.5000 
     90 CA         -5.2794  -20.9687  -51.2835 C.3       16 UNK         0.1400 
     91 CB         -6.1446  -19.7014  -51.4687 C.3       16 UNK        -0.1800 
     92 C          -4.5200  -21.4179  -52.5418 C.2       16 UNK         0.5000 
     93 O          -3.9737  -22.5223  -52.5398 O.2       16 UNK        -0.5000 
     94 N          -4.4897  -20.5817  -53.5880 N.am      17 UNK        -0.5000 
     95 CA         -3.7309  -20.7675  -54.8303 C.3       17 UNK         0.1400 
     96 CB         -4.0221  -19.5890  -55.7701 C.3       17 UNK        -0.1800 
     97 C          -3.9537  -22.1071  -55.5603 C.2       17 UNK         0.5000 
     98 O          -3.0575  -22.5511  -56.2772 O.2       17 UNK        -0.5000 
     99 N          -5.1099  -22.7447  -55.3345 N.am      18 UNK        -0.5000 
    100 CA        -5.4475  -24.0778  -55.8329 C.3       18 UNK         0.1400 
    101 CB        -6.9339  -24.3458  -55.5512 C.3       18 UNK        -0.1800 
    102 C         -4.5794  -25.2108  -55.2434 C.2       18 UNK         0.5000 
    103 O         -4.4527  -26.2536  -55.8867 O.2       18 UNK        -0.5000 
    104 N         -4.0098  -25.0008  -54.0478 N.am      19 UNK        -0.5000 
    105 CA        -3.1731  -25.9734  -53.3401 C.3       19 UNK         0.1400 
    106 CB        -3.9199  -26.4610  -52.0897 C.3       19 UNK        -0.1800 
    107 C         -1.7975  -25.3957  -52.9656 C.2       19 UNK         0.5000 
    108 O         -0.8064  -26.1247  -53.0132 O.2       19 UNK        -0.5000 
    109 N         -1.7465  -24.1037  -52.6137 N.am      20 UNK        -0.5000 
    110 CA        -0.5267  -23.3805  -52.2476 C.3       20 UNK         0.1400 
    111 CB        -0.9166  -22.0790  -51.5256 C.3       20 UNK        -0.1800 
    112 C          0.3650  -23.0484  -53.4586 C.2       20 UNK         0.5000 
    113 O          1.5555  -22.7956  -53.2735 O.2       20 UNK        -0.5000 
    114 N         -0.2332  -23.0177  -54.6616 N.am      21 UNK        -0.5000 
    115 CA         0.3679  -22.6453  -55.9501 C.3       21 UNK         0.1400 
    116 CB         1.4769  -23.6406  -56.3508 C.3       21 UNK        -0.1800 
    117 C          0.8338  -21.1724  -56.0136 C.2       21 UNK         0.5000 
    118 O          1.6810  -20.8309  -56.8403 O.2       21 UNK        -0.5000 
    119 N          0.2674  -20.3237  -55.1458 N.am      22 UNK        -0.5000 
    120 CA         0.5892  -18.8952  -55.0074 C.3       22 UNK         0.1400 
    121 C         -0.0588  -17.9564  -56.0698 C.2       22 UNK         0.5000 
    122 N         -0.8551  -18.4562  -57.0067 N.am      22 UNK        -0.7600 
    123 O          0.1836  -16.7526  -56.0578 O.2       22 UNK        -0.5000 
    124 C124        0.3613  -18.4065  -53.5530 C.3       23 UNK        -0.0398 
    125 S125       -1.3605  -18.5476  -52.9575 S.3       23 UNK        -0.2404 
    126 C126       -1.1114  -18.1055  -51.2113 C.3       23 UNK        -0.0205 
    127 H127       -0.4733  -15.8655  -49.3250 H         1 UNK         0.0600 
    128 H128       -1.0121  -16.8419  -47.9547 H         1 UNK         0.0600 
    129 H129        0.3603  -15.7432  -47.7865 H         1 UNK         0.0600 
    130 H130       -2.8271  -16.0191  -46.9933 H         1 UNK         0.3000 
    131 H131       -4.2122  -14.6967  -45.9295 H         1 UNK         0.0600 
    132 H132       -5.4787  -14.8297  -47.8280 H         1 UNK         0.0800 
    133 H133       -5.5655  -13.1576  -47.4636 H         1 UNK         0.0800 
    134 H134       -4.8755  -14.7122  -51.5206 H         1 UNK         0.0800 
    135 H135       -6.0575  -15.0351  -50.2825 H         1 UNK         0.0800 
    136 H136       -2.6486  -15.8833  -51.5075 H         1 UNK         0.1150 
    137 H137       -2.4637  -19.5836  -49.3523 H         1 UNK         0.1150 
    138 H138       -5.7461  -16.9024  -48.7253 H         1 UNK         0.1150 
    139 H139       -5.8635  -19.3322  -48.0948 H         1 UNK         0.0800 
    140 H140       -4.4427  -20.3102  -48.0499 H         1 UNK         0.0800 
    141 H141       -2.5622  -18.6947  -44.8174 H         1 UNK         0.0800 
    142 H142       -2.2732  -18.0973  -46.4192 H         1 UNK         0.0800 
    143 H143       -2.4744  -20.5339  -47.2504 H         1 UNK         0.0600 
    144 H144       -0.2169  -19.3439  -45.9165 H         1 UNK         0.3000 
    145 H145        2.1377  -21.3059  -47.7725 H         1 UNK         0.0600 
    146 H146        1.3922  -18.3322  -47.6750 H         1 UNK         0.0600 
    147 H147        2.9472  -18.9932  -48.1720 H         1 UNK         0.0600 
    148 H148        1.5092  -19.3124  -49.1304 H         1 UNK         0.0600 
    149 H149        2.4894  -19.4000  -45.6804 H         1 UNK         0.3000 
    150 H150        2.3950  -21.7610  -42.9583 H         1 UNK         0.0600 
    151 H151        4.6996  -21.8369  -43.9085 H         1 UNK         0.0600 
    152 H152        4.6045  -20.7288  -42.5488 H         1 UNK         0.0600 
    153 H153        4.6543  -20.1025  -44.1951 H         1 UNK         0.0600 
    154 H154        2.8010  -18.9402  -42.9911 H         1 UNK         0.3000 
    155 H155       -0.6520  -18.0072  -42.6936 H         1 UNK         0.0600 
    156 H156        0.1138  -18.5332  -40.3785 H         1 UNK         0.0600 
    157 H157        1.7039  -17.8690  -40.7358 H         1 UNK         0.0600 
    158 H158        0.2898  -16.8181  -40.7248 H         1 UNK         0.0600 
    159 H159        1.6918  -16.4184  -42.7784 H         1 UNK         0.3000 
    160 H160        2.0024  -16.1665  -46.3329 H         1 UNK         0.0600 
    161 H161        1.9577  -13.7751  -45.7124 H         1 UNK         0.0600 
    162 H162        0.3401  -14.4466  -45.5782 H         1 UNK         0.0600 
    163 H163        1.2829  -14.1597  -44.1289 H         1 UNK         0.0600 
    164 H164        3.5098  -15.2100  -44.0625 H         1 UNK         0.3000 
    165 H165        5.8983  -17.8429  -44.0844 H         1 UNK         0.0600 
    166 H166        7.4655  -15.9678  -44.5054 H         1 UNK         0.0600 
    167 H167        6.6222  -16.3941  -45.9858 H         1 UNK         0.0600 
    168 H168        6.1447  -14.9560  -45.0913 H         1 UNK         0.0600 
    169 H169        5.7259  -15.3460  -42.6797 H         1 UNK         0.3000 
    170 H170        3.7713  -16.5385  -39.9423 H         1 UNK         0.0600 
    171 H171        6.1194  -17.2698  -39.4814 H         1 UNK         0.0600 
    172 H172        6.7293  -15.7613  -40.1512 H         1 UNK         0.0600 
    173 H173        5.7478  -15.7494  -38.6856 H         1 UNK         0.0600 
    174 H174        4.9254  -14.0127  -40.3032 H         1 UNK         0.3000 
    175 H175        3.4880  -12.2472  -40.5257 H         1 UNK         0.0600 
    176 H176        3.1846  -12.5464  -43.5698 H         1 UNK         0.0600 
    177 H177        3.5793  -11.0580  -42.7123 H         1 UNK         0.0600 
    178 H178        4.7133  -12.3977  -42.7120 H         1 UNK         0.0600 
    179 H179        1.2194  -11.9068  -42.2249 H         1 UNK         0.3000 
    180 H180       -1.3494  -12.9258  -40.2494 H         1 UNK         0.0600 
    181 H181       -0.4648  -10.0149  -39.8729 H         1 UNK         0.0600 
    182 H182       -0.8542  -11.1433  -38.5807 H         1 UNK         0.0600 
    183 H183       -2.1101  -10.6256  -39.6916 H         1 UNK         0.0600 
    184 H184       -1.1752  -10.7189  -42.1013 H         1 UNK         0.3000 
    185 H185       -2.5522  -11.2303  -44.0313 H         1 UNK         0.0600 
    186 H186       -0.9323  -10.8187  -45.9109 H         1 UNK         0.0600 
    187 H187       -0.1947  -10.4476  -44.3628 H         1 UNK         0.0600 
    188 H188        0.2097  -11.9452  -45.1902 H         1 UNK         0.0600 
    189 H189       -2.0029  -13.9450  -44.8543 H         1 UNK         0.3000 
    190 H190       -0.5537  -22.0322  -45.1447 H         1 UNK         0.3000 
    191 H191       -2.4348  -23.4146  -43.4594 H         1 UNK         0.0600 
    192 H192        0.2482  -24.3906  -44.5738 H         1 UNK         0.0600 
    193 H193       -0.6198  -25.0557  -43.1983 H         1 UNK         0.0600 
    194 H194        0.0585  -23.4365  -43.1010 H         1 UNK         0.0600 
    195 H195       -1.5286  -23.6207  -46.8286 H         1 UNK         0.3000 
    196 H196       -3.2549  -25.9253  -47.4748 H         1 UNK         0.0600 
    197 H197       -2.6712  -25.1732  -49.8286 H         1 UNK         0.0600 
    198 H198       -1.2648  -25.5964  -48.8666 H         1 UNK         0.0600 
    199 H199       -1.6660  -23.9066  -49.1424 H         1 UNK         0.0600 
    200 H200       -5.1537  -25.1965  -46.4713 H         1 UNK         0.3000 
    201 H201       -6.1775  -22.6346  -46.4490 H         1 UNK         0.0600 
    202 H202       -6.7837  -24.4175  -44.8439 H         1 UNK         0.0600 
    203 H203       -7.6475  -25.3020  -46.1032 H         1 UNK         0.0600 
    204 H204       -8.2388  -23.7383  -45.5532 H         1 UNK         0.0600 
    205 H205       -6.4406  -24.8350  -49.0998 H         1 UNK         0.3000 
    206 H206       -8.7813  -23.6604  -50.3627 H         1 UNK         0.0600 
    207 H207       -8.0617  -26.0234  -50.7742 H         1 UNK         0.0600 
    208 H208       -8.1265  -25.0977  -52.2637 H         1 UNK         0.0600 
    209 H209       -6.5733  -25.4394  -51.5180 H         1 UNK         0.0600 
    210 H210       -5.6698  -22.4625  -49.8674 H         1 UNK         0.3000 
    211 H211       -4.5113  -20.7474  -50.5446 H         1 UNK         0.0600 
    212 H212       -6.8856  -19.8174  -52.2600 H         1 UNK         0.0600 
    213 H213       -5.5274  -18.8359  -51.7136 H         1 UNK         0.0600 
    214 H214       -6.6792  -19.4581  -50.5507 H         1 UNK         0.0600 
    215 H215       -4.9805  -19.7039  -53.5009 H         1 UNK         0.3000 
    216 H216       -2.6739  -20.7349  -54.5639 H         1 UNK         0.0600 
    217 H217       -3.4918  -19.6983  -56.7167 H         1 UNK         0.0600 
    218 H218       -3.7017  -18.6449  -55.3285 H         1 UNK         0.0600 
    219 H219       -5.0857  -19.5117  -55.9987 H         1 UNK         0.0600 
    220 H220       -5.7774  -22.3139  -54.7102 H         1 UNK         0.3000 
    221 H221       -5.2974  -24.0797  -56.9145 H         1 UNK         0.0600 
    222 H222       -7.1477  -24.3294  -54.4818 H         1 UNK         0.0600 
    223 H223       -7.5680  -23.6005  -56.0314 H         1 UNK         0.0600 
    224 H224       -7.2358  -25.3224  -55.9319 H         1 UNK         0.0600 
    225 H225       -4.1519  -24.1051  -53.5903 H         1 UNK         0.3000 
    226 H226       -2.9791  -26.8424  -53.9721 H         1 UNK         0.0600 
    227 H227       -4.8193  -27.0123  -52.3638 H         1 UNK         0.0600 
    228 H228       -3.2985  -27.1298  -51.4927 H         1 UNK         0.0600 
    229 H229       -4.2193  -25.6272  -51.4548 H         1 UNK         0.0600 
    230 H230       -2.6098  -23.5642  -52.5638 H         1 UNK         0.3000 
    231 H231        0.0510  -23.9994  -51.5579 H         1 UNK         0.0600 
    232 H232       -0.0352  -21.5628  -51.1430 H         1 UNK         0.0600 
    233 H233       -1.5760  -22.2644  -50.6791 H         1 UNK         0.0600 
    234 H234       -1.4339  -21.3926  -52.1947 H         1 UNK         0.0600 
    235 H235       -1.2159  -23.2511  -54.6998 H         1 UNK         0.3000 
    236 H236       -0.4265  -22.7358  -56.6912 H         1 UNK         0.0600 
    237 H237        1.8050  -23.4687  -57.3765 H         1 UNK         0.0600 
    238 H238        1.1219  -24.6696  -56.2939 H         1 UNK         0.0600 
    239 H239        2.3545  -23.5519  -55.7100 H         1 UNK         0.0600 
    240 H240       -0.4195  -20.6817  -54.5013 H         1 UNK         0.3000 
    241 H241        1.6618  -18.7994  -55.1873 H         1 UNK         0.0600 
    242 H242       -1.0353  -19.4450  -57.0507 H         1 UNK         0.3800 
    243 H243       -1.2577  -17.8390  -57.6940 H         1 UNK         0.3800 
    244 H244        0.6827  -17.3689  -53.4463 H         1 UNK         0.0800 
    245 H245        1.0001  -18.9815  -52.8807 H         1 UNK         0.0800 
    246 H246       -0.5973  -18.9229  -50.7033 H         1 UNK         0.0800 
    247 H247       -0.4488  -17.2418  -51.1559 H         1 UNK         0.0800 
@<TRIPOS>BOND
     1    1    2 1    
     2    1  127 1    
     3    1  128 1    
     4    1  129 1    
     5    2    3 2    
     6    2    4 am   BACKBONE|DICT|INTERRES
     7    4    5 1    
     8    4  130 1    
     9    5    6 1    
    10    5   65 1    
    11    5  131 1    
    12    6    7 1    
    13    6  132 1    
    14    6  133 1    
    15    7    8 1    
    16    8    9 1    
    17    8  134 1    
    18    8  135 1    
    19    9   10 ar   
    20    9   14 ar   
    21   10   11 ar   
    22   10  136 1    
    23   11   12 ar   
    24   11  126 1    
    25   12   13 ar   
    26   12  137 1    
    27   13   14 ar   
    28   13   15 1    
    29   14  138 1    
    30   15   16 1    
    31   15  139 1    
    32   15  140 1    
    33   16   17 1    
    34   17   18 1    
    35   17  141 1    
    36   17  142 1    
    37   18   19 1    
    38   18   67 1    
    39   18  143 1    
    40   19   20 am   BACKBONE|DICT|INTERRES
    41   19  144 1    
    42   20   21 2    
    43   20   22 1    
    44   22   23 1    
    45   22   24 1    
    46   22  145 1    
    47   23  146 1    
    48   23  147 1    
    49   23  148 1    
    50   24   25 am   BACKBONE|DICT|INTERRES
    51   24  149 1    
    52   25   26 2    
    53   25   27 1    
    54   27   28 1    
    55   27   29 1    
    56   27  150 1    
    57   28  151 1    
    58   28  152 1    
    59   28  153 1    
    60   29   30 am   BACKBONE|DICT|INTERRES
    61   29  154 1    
    62   30   31 2    
    63   30   32 1    
    64   32   33 1    
    65   32   34 1    
    66   32  155 1    
    67   33  156 1    
    68   33  157 1    
    69   33  158 1    
    70   34   35 am   BACKBONE|DICT|INTERRES
    71   34  159 1    
    72   35   36 2    
    73   35   37 1    
    74   37   38 1    
    75   37   39 1    
    76   37  160 1    
    77   38  161 1    
    78   38  162 1    
    79   38  163 1    
    80   39   40 am   BACKBONE|DICT|INTERRES
    81   39  164 1    
    82   40   41 2    
    83   40   42 1    
    84   42   43 1    
    85   42   44 1    
    86   42  165 1    
    87   43  166 1    
    88   43  167 1    
    89   43  168 1    
    90   44   45 am   BACKBONE|DICT|INTERRES
    91   44  169 1    
    92   45   46 2    
    93   45   47 1    
    94   47   48 1    
    95   47   49 1    
    96   47  170 1    
    97   48  171 1    
    98   48  172 1    
    99   48  173 1    
   100   49   50 am   BACKBONE|DICT|INTERRES
   101   49  174 1    
   102   50   51 2    
   103   50   52 1    
   104   52   53 1    
   105   52   54 1    
   106   52  175 1    
   107   53  176 1    
   108   53  177 1    
   109   53  178 1    
   110   54   55 am   BACKBONE|DICT|INTERRES
   111   54  179 1    
   112   55   56 2    
   113   55   57 1    
   114   57   58 1    
   115   57   59 1    
   116   57  180 1    
   117   58  181 1    
   118   58  182 1    
   119   58  183 1    
   120   59   60 am   BACKBONE|DICT|INTERRES
   121   59  184 1    
   122   60   61 2    
   123   60   62 1    
   124   62   63 1    
   125   62   64 1    
   126   62  185 1    
   127   63  186 1    
   128   63  187 1    
   129   63  188 1    
   130   64   65 am   BACKBONE|DICT|INTERRES
   131   64  189 1    
   132   65   66 2    
   133   67   68 2    
   134   67   69 am   BACKBONE|DICT|INTERRES
   135   69   70 1    
   136   69  190 1    
   137   70   71 1    
   138   70   72 1    
   139   70  191 1    
   140   71  192 1    
   141   71  193 1    
   142   71  194 1    
   143   72   73 2    
   144   72   74 am   BACKBONE|DICT|INTERRES
   145   74   75 1    
   146   74  195 1    
   147   75   76 1    
   148   75   77 1    
   149   75  196 1    
   150   76  197 1    
   151   76  198 1    
   152   76  199 1    
   153   77   78 2    
   154   77   79 am   BACKBONE|DICT|INTERRES
   155   79   80 1    
   156   79  200 1    
   157   80   81 1    
   158   80   82 1    
   159   80  201 1    
   160   81  202 1    
   161   81  203 1    
   162   81  204 1    
   163   82   83 2    
   164   82   84 am   BACKBONE|DICT|INTERRES
   165   84   85 1    
   166   84  205 1    
   167   85   86 1    
   168   85   87 1    
   169   85  206 1    
   170   86  207 1    
   171   86  208 1    
   172   86  209 1    
   173   87   88 2    
   174   87   89 am   BACKBONE|DICT|INTERRES
   175   89   90 1    
   176   89  210 1    
   177   90   91 1    
   178   90   92 1    
   179   90  211 1    
   180   91  212 1    
   181   91  213 1    
   182   91  214 1    
   183   92   93 2    
   184   92   94 am   BACKBONE|DICT|INTERRES
   185   94   95 1    
   186   94  215 1    
   187   95   96 1    
   188   95   97 1    
   189   95  216 1    
   190   96  217 1    
   191   96  218 1    
   192   96  219 1    
   193   97   98 2    
   194   97   99 am   BACKBONE|DICT|INTERRES
   195   99  100 1    
   196   99  220 1    
   197  100  101 1    
   198  100  102 1    
   199  100  221 1    
   200  101  222 1    
   201  101  223 1    
   202  101  224 1    
   203  102  103 2    
   204  102  104 am   BACKBONE|DICT|INTERRES
   205  104  105 1    
   206  104  225 1    
   207  105  106 1    
   208  105  107 1    
   209  105  226 1    
   210  106  227 1    
   211  106  228 1    
   212  106  229 1    
   213  107  108 2    
   214  107  109 am   BACKBONE|DICT|INTERRES
   215  109  110 1    
   216  109  230 1    
   217  110  111 1    
   218  110  112 1    
   219  110  231 1    
   220  111  232 1    
   221  111  233 1    
   222  111  234 1    
   223  112  113 2    
   224  112  114 am   BACKBONE|DICT|INTERRES
   225  114  115 1    
   226  114  235 1    
   227  115  116 1    
   228  115  117 1    
   229  115  236 1    
   230  116  237 1    
   231  116  238 1    
   232  116  239 1    
   233  117  118 2    
   234  117  119 am   BACKBONE|DICT|INTERRES
   235  119  120 1    
   236  119  240 1    
   237  120  121 1    
   238  120  124 1    
   239  120  241 1    
   240  121  122 am   BACKBONE|DICT|INTERRES
   241  121  123 2    
   242  122  242 1    
   243  122  243 1    
   244  124  125 1    
   245  124  244 1    
   246  124  245 1    
   247  125  126 1    
   248  126  246 1    
   249  126  247 1    
@<TRIPOS>SUBSTRUCTURE
     1 UNK         1 GROUP             0       ****    0 ROOT    
