@<TRIPOS>MOLECULE
3R540
247   249    1
SMALL
USER_CHARGES


@<TRIPOS>ATOM
      1 CA         -4.3655  -17.9151  -46.8816 C.3       0 UNK        -0.1800 
      2 C          -3.7460  -16.7242  -47.5985 C.2       0 UNK         0.5000 
      3 O          -4.4194  -16.0523  -48.3779 O.2       0 UNK        -0.5000 
      4 N          -2.4641  -16.4554  -47.3310 N.am      1 UNK        -0.5000 
      5 CA         -1.6101  -15.4386  -47.9645 C.3       1 UNK         0.1400 
      6 C6         -0.1099  -15.7630  -47.7418 C.3       23 UNK        -0.0398 
      7 S7          0.3369  -17.4446  -48.2834 S.3       23 UNK        -0.2404 
      8 C8          1.4597  -17.0958  -49.6695 C.3       23 UNK        -0.0205 
      9 C9          1.8420  -18.3691  -50.4096 C.ar      23 UNK        -0.0193 
     10 C10         1.5120  -18.5292  -51.7580 C.ar      23 UNK        -0.1150 
     11 C11         1.8814  -19.6875  -52.4459 C.ar      23 UNK        -0.0193 
     12 C12         2.5684  -20.6984  -51.7672 C.ar      23 UNK        -0.1150 
     13 C13         2.8974  -20.5631  -50.4150 C.ar      23 UNK        -0.0193 
     14 C14         2.5445  -19.3815  -49.7494 C.ar      23 UNK        -0.1150 
     15 C15         3.6614  -21.7005  -49.7334 C.3       23 UNK        -0.0205 
     16 S16         3.5866  -21.7235  -47.9089 S.3       23 UNK        -0.2404 
     17 C17         1.8153  -22.0581  -47.6090 C.3       23 UNK        -0.0398 
     18 CA          1.5980  -23.0071  -46.4016 C.3       11 UNK         0.1400 
     19 N           2.1618  -22.4545  -45.1707 N.am      11 UNK        -0.5000 
     20 C           2.7502  -23.1540  -44.1959 C.2       10 UNK         0.5000 
     21 O           2.8644  -24.3804  -44.2091 O.2       10 UNK        -0.5000 
     22 CA          3.2575  -22.3472  -42.9884 C.3       10 UNK         0.1400 
     23 CB          4.5076  -21.5332  -43.3574 C.3       10 UNK        -0.1800 
     24 N           2.2287  -21.4557  -42.4518 N.am      10 UNK        -0.5000 
     25 C           1.1211  -21.8735  -41.8219 C.2       9 UNK         0.5000 
     26 O           0.8760  -23.0561  -41.5831 O.2       9 UNK        -0.5000 
     27 CA          0.1172  -20.7942  -41.3798 C.3       9 UNK         0.1400 
     28 CB          0.5388  -20.1811  -40.0358 C.3       9 UNK        -0.1800 
     29 N          -0.0434  -19.7324  -42.3714 N.am      9 UNK        -0.5000 
     30 C          -0.6580  -19.8802  -43.5536 C.2       8 UNK         0.5000 
     31 O          -1.2137  -20.9180  -43.9115 O.2       8 UNK        -0.5000 
     32 CA         -0.6360  -18.6637  -44.5004 C.3       8 UNK         0.1400 
     33 CB         -1.7523  -17.6745  -44.1291 C.3       8 UNK        -0.1800 
     34 N           0.6495  -17.9633  -44.4976 N.am      8 UNK        -0.5000 
     35 C           1.8156  -18.5092  -44.8725 C.2       7 UNK         0.5000 
     36 O           1.9321  -19.6584  -45.2914 O.2       7 UNK        -0.5000 
     37 CA          3.0749  -17.6491  -44.6861 C.3       7 UNK         0.1400 
     38 CB          3.2669  -16.6846  -45.8658 C.3       7 UNK        -0.1800 
     39 N           3.0374  -16.9061  -43.4262 N.am      7 UNK        -0.5000 
     40 C           3.1538  -17.4747  -42.2171 C.2       6 UNK         0.5000 
     41 O           3.3463  -18.6780  -42.0437 O.2       6 UNK        -0.5000 
     42 CA          2.9804  -16.5505  -40.9977 C.3       6 UNK         0.1400 
     43 CB          4.2811  -15.7886  -40.7031 C.3       6 UNK        -0.1800 
     44 N           1.8846  -15.5955  -41.1690 N.am      6 UNK        -0.5000 
     45 C           0.5911  -15.9370  -41.2557 C.2       5 UNK         0.5000 
     46 O           0.1839  -17.0926  -41.1506 O.2       5 UNK        -0.5000 
     47 CA         -0.4118  -14.8069  -41.5564 C.3       5 UNK         0.1400 
     48 CB         -0.9199  -14.1748  -40.2527 C.3       5 UNK        -0.1800 
     49 N           0.1222  -13.7557  -42.4257 N.am      5 UNK        -0.5000 
     50 C           0.5992  -13.9381  -43.6633 C.2       4 UNK         0.5000 
     51 O           0.6651  -15.0398  -44.2112 O.2       4 UNK        -0.5000 
     52 CA          1.0681  -12.6680  -44.3956 C.3       4 UNK         0.1400 
     53 CB          1.9149  -12.9740  -45.6430 C.3       4 UNK        -0.1800 
     54 N          -0.0782  -11.8395  -44.7696 N.am      4 UNK        -0.5000 
     55 C          -0.7047  -10.9930  -43.9384 C.2       3 UNK         0.5000 
     56 O          -0.3586  -10.8218  -42.7677 O.2       3 UNK        -0.5000 
     57 CA         -1.9100  -10.1999  -44.4814 C.3       3 UNK         0.1400 
     58 CB         -1.4972   -8.7557  -44.8052 C.3       3 UNK        -0.1800 
     59 N          -2.5216  -10.7910  -45.6712 N.am      3 UNK        -0.5000 
     60 C          -3.2805  -11.8942  -45.6799 C.2       2 UNK         0.5000 
     61 O          -3.5590  -12.5390  -44.6676 O.2       2 UNK        -0.5000 
     62 CA         -3.8158  -12.3702  -47.0480 C.3       2 UNK         0.1400 
     63 CB         -3.6381  -11.3449  -48.1909 C.3       2 UNK        -0.1800 
     64 N          -3.2438  -13.6608  -47.4374 N.am      2 UNK        -0.5000 
     65 C          -1.9479  -13.9846  -47.5405 C.2       1 UNK         0.5000 
     66 O          -1.0392  -13.1816  -47.3189 O.2       1 UNK        -0.5000 
     67 C           0.1106  -23.3379  -46.1694 C.2       11 UNK         0.5000 
     68 O          -0.7562  -22.8306  -46.8781 O.2       11 UNK        -0.5000 
     69 N          -0.1692  -24.1814  -45.1664 N.am      12 UNK        -0.5000 
     70 CA         -1.5226  -24.5518  -44.7407 C.3       12 UNK         0.1400 
     71 CB         -1.4327  -25.3416  -43.4266 C.3       12 UNK        -0.1800 
     72 C          -2.3240  -25.3499  -45.7897 C.2       12 UNK         0.5000 
     73 O          -3.5547  -25.3496  -45.7282 O.2       12 UNK        -0.5000 
     74 N          -1.6150  -26.0078  -46.7203 N.am      13 UNK        -0.5000 
     75 CA         -2.1277  -26.8325  -47.8166 C.3       13 UNK         0.1400 
     76 CB         -0.9437  -27.2899  -48.6842 C.3       13 UNK        -0.1800 
     77 C          -3.1909  -26.1091  -48.6652 C.2       13 UNK         0.5000 
     78 O          -2.8502  -25.2427  -49.4749 O.2       13 UNK        -0.5000 
     79 N          -4.4624  -26.4543  -48.4141 N.am      14 UNK        -0.5000 
     80 CA         -5.6736  -25.8772  -49.0068 C.3       14 UNK         0.1400 
     81 CB         -5.8136  -26.3246  -50.4765 C.3       14 UNK        -0.1800 
     82 C          -5.7724  -24.3462  -48.8270 C.2       14 UNK         0.5000 
     83 O          -6.2550  -23.6578  -49.7271 O.2       14 UNK        -0.5000 
     84 N          -5.2849  -23.8451  -47.6790 N.am      15 UNK        -0.5000 
     85 CA         -5.1590  -22.4283  -47.3181 C.3       15 UNK         0.1400 
     86 CB         -6.5477  -21.7993  -47.0797 C.3       15 UNK        -0.1800 
     87 C          -4.3193  -21.6552  -48.3541 C.2       15 UNK         0.5000 
     88 O          -4.8181  -20.7243  -48.9882 O.2       15 UNK        -0.5000 
     89 N          -3.0714  -22.1067  -48.5376 N.am      16 UNK        -0.5000 
     90 CA         -2.0913  -21.6330  -49.5173 C.3       16 UNK         0.1400 
     91 CB         -1.6155  -20.2089  -49.1662 C.3       16 UNK        -0.1800 
     92 C          -2.6063  -21.7621  -50.9612 C.2       16 UNK         0.5000 
     93 O          -2.5407  -20.7977  -51.7207 O.2       16 UNK        -0.5000 
     94 N          -3.1442  -22.9455  -51.2937 N.am      17 UNK        -0.5000 
     95 CA         -3.7541  -23.2967  -52.5805 C.3       17 UNK         0.1400 
     96 CB         -2.6685  -23.4437  -53.6651 C.3       17 UNK        -0.1800 
     97 C          -4.8763  -22.3185  -52.9884 C.2       17 UNK         0.5000 
     98 O          -4.8056  -21.7040  -54.0526 O.2       17 UNK        -0.5000 
     99 N          -5.8801  -22.1828  -52.1114 N.am      18 UNK        -0.5000 
    100 CA        -7.0402  -21.2979  -52.2300 C.3       18 UNK         0.1400 
    101 CB        -7.9388  -21.7165  -53.4135 C.3       18 UNK        -0.1800 
    102 C         -6.6435  -19.8080  -52.2585 C.2       18 UNK         0.5000 
    103 O         -6.9824  -19.0894  -53.1999 O.2       18 UNK        -0.5000 
    104 N         -5.9451  -19.3782  -51.1997 N.am      19 UNK        -0.5000 
    105 CA        -5.5404  -18.0051  -50.8977 C.3       19 UNK         0.1400 
    106 CB        -6.7713  -17.1012  -50.6724 C.3       19 UNK        -0.1800 
    107 C         -4.5331  -17.4315  -51.9110 C.2       19 UNK         0.5000 
    108 O         -4.7884  -16.3965  -52.5295 O.2       19 UNK        -0.5000 
    109 N         -3.3974  -18.1285  -52.0485 N.am      20 UNK        -0.5000 
    110 CA        -2.2278  -17.7964  -52.8680 C.3       20 UNK         0.1400 
    111 CB        -1.6308  -16.4279  -52.4742 C.3       20 UNK        -0.1800 
    112 C         -2.4585  -17.9414  -54.3849 C.2       20 UNK         0.5000 
    113 O         -1.6291  -17.4795  -55.1701 O.2       20 UNK        -0.5000 
    114 N         -3.5375  -18.6249  -54.7891 N.am      21 UNK        -0.5000 
    115 CA        -3.8829  -18.9263  -56.1806 C.3       21 UNK         0.1400 
    116 CB        -5.4143  -19.0185  -56.3042 C.3       21 UNK        -0.1800 
    117 C         -3.1595  -20.1931  -56.6911 C.2       21 UNK         0.5000 
    118 O         -3.7769  -21.0490  -57.3284 O.2       21 UNK        -0.5000 
    119 N         -1.8600  -20.2910  -56.3880 N.am      22 UNK        -0.5000 
    120 CA        -0.9647  -21.4002  -56.7393 C.3       22 UNK         0.1400 
    121 C         -0.7966  -21.5857  -58.2736 C.2       22 UNK         0.5000 
    122 N         -0.7202  -22.8205  -58.7513 N.am      22 UNK        -0.7600 
    123 O         -0.6866  -20.6213  -59.0282 O.2       22 UNK        -0.5000 
    124 C124        0.4227  -21.2358  -56.0686 C.3       23 UNK        -0.0398 
    125 S125        0.3371  -21.1213  -54.2473 S.3       23 UNK        -0.2404 
    126 C126        1.5805  -19.8338  -53.9302 C.3       23 UNK        -0.0205 
    127 H127       -5.1430  -18.3683  -47.4967 H         1 UNK         0.0600 
    128 H128       -4.8171  -17.5965  -45.9424 H         1 UNK         0.0600 
    129 H129       -3.6197  -18.6815  -46.6685 H         1 UNK         0.0600 
    130 H130       -1.9769  -17.0489  -46.6774 H         1 UNK         0.3000 
    131 H131       -1.7960  -15.4847  -49.0394 H         1 UNK         0.0600 
    132 H132        0.1364  -15.6820  -46.6833 H         1 UNK         0.0800 
    133 H133        0.5252  -15.0422  -48.2594 H         1 UNK         0.0800 
    134 H134        0.9825  -16.3862  -50.3470 H         1 UNK         0.0800 
    135 H135        2.3623  -16.6133  -49.2919 H         1 UNK         0.0800 
    136 H136        0.9859  -17.7435  -52.2789 H         1 UNK         0.1150 
    137 H137        2.8534  -21.5942  -52.3014 H         1 UNK         0.1150 
    138 H138        2.8028  -19.2386  -48.7102 H         1 UNK         0.1150 
    139 H139        3.3014  -22.6612  -50.1049 H         1 UNK         0.0800 
    140 H140        4.7087  -21.6300  -50.0294 H         1 UNK         0.0800 
    141 H141        1.3800  -22.4919  -48.5108 H         1 UNK         0.0800 
    142 H142        1.3052  -21.1055  -47.4539 H         1 UNK         0.0800 
    143 H143        2.0963  -23.9498  -46.6371 H         1 UNK         0.0600 
    144 H144        2.0900  -21.4418  -45.0819 H         1 UNK         0.3000 
    145 H145        3.5361  -23.0556  -42.2054 H         1 UNK         0.0600 
    146 H146        5.2913  -22.1793  -43.7547 H         1 UNK         0.0600 
    147 H147        4.2900  -20.7780  -44.1133 H         1 UNK         0.0600 
    148 H148        4.9167  -21.0235  -42.4850 H         1 UNK         0.0600 
    149 H149        2.3858  -20.4600  -42.5612 H         1 UNK         0.3000 
    150 H150       -0.8516  -21.2787  -41.2410 H         1 UNK         0.0600 
    151 H151        0.6614  -20.9525  -39.2745 H         1 UNK         0.0600 
    152 H152       -0.2121  -19.4803  -39.6705 H         1 UNK         0.0600 
    153 H153        1.4847  -19.6443  -40.1168 H         1 UNK         0.0600 
    154 H154        0.3144  -18.8168  -42.1180 H         1 UNK         0.3000 
    155 H155       -0.8118  -19.0223  -45.5170 H         1 UNK         0.0600 
    156 H156       -1.6900  -16.7557  -44.7108 H         1 UNK         0.0600 
    157 H157       -1.7066  -17.3964  -43.0766 H         1 UNK         0.0600 
    158 H158       -2.7344  -18.1149  -44.3020 H         1 UNK         0.0600 
    159 H159        0.6468  -16.9921  -44.2001 H         1 UNK         0.3000 
    160 H160        3.9360  -18.3201  -44.6602 H         1 UNK         0.0600 
    161 H161        2.4375  -15.9850  -45.9580 H         1 UNK         0.0600 
    162 H162        3.3346  -17.2330  -46.8063 H         1 UNK         0.0600 
    163 H163        4.1843  -16.1061  -45.7588 H         1 UNK         0.0600 
    164 H164        2.8065  -15.9253  -43.4849 H         1 UNK         0.3000 
    165 H165        2.7503  -17.1790  -40.1346 H         1 UNK         0.0600 
    166 H166        4.1914  -15.1924  -39.7949 H         1 UNK         0.0600 
    167 H167        5.1124  -16.4794  -40.5563 H         1 UNK         0.0600 
    168 H168        4.5515  -15.1182  -41.5199 H         1 UNK         0.0600 
    169 H169        2.1327  -14.6219  -41.2635 H         1 UNK         0.3000 
    170 H170       -1.2640  -15.2527  -42.0722 H         1 UNK         0.0600 
    171 H171       -1.3482  -14.9306  -39.5929 H         1 UNK         0.0600 
    172 H172       -0.1172  -13.6778  -39.7067 H         1 UNK         0.0600 
    173 H173       -1.6988  -13.4377  -40.4496 H         1 UNK         0.0600 
    174 H174        0.0583  -12.8036  -42.0840 H         1 UNK         0.3000 
    175 H175        1.7055  -12.1085  -43.7076 H         1 UNK         0.0600 
    176 H176        2.2475  -12.0561  -46.1275 H         1 UNK         0.0600 
    177 H177        2.8071  -13.5414  -45.3765 H         1 UNK         0.0600 
    178 H178        1.3650  -13.5578  -46.3790 H         1 UNK         0.0600 
    179 H179       -0.4597  -11.9976  -45.6965 H         1 UNK         0.3000 
    180 H180       -2.6616  -10.1687  -43.6897 H         1 UNK         0.0600 
    181 H181       -0.7534   -8.7190  -45.6022 H         1 UNK         0.0600 
    182 H182       -1.0657   -8.2665  -43.9308 H         1 UNK         0.0600 
    183 H183       -2.3552   -8.1602  -45.1176 H         1 UNK         0.0600 
    184 H184       -2.3225  -10.3402  -46.5525 H         1 UNK         0.3000 
    185 H185       -4.8863  -12.5333  -46.9157 H         1 UNK         0.0600 
    186 H186       -4.1046  -10.3908  -47.9419 H         1 UNK         0.0600 
    187 H187       -2.5887  -11.1565  -48.4202 H         1 UNK         0.0600 
    188 H188       -4.1124  -11.7009  -49.1056 H         1 UNK         0.0600 
    189 H189       -3.9106  -14.3957  -47.6591 H         1 UNK         0.3000 
    190 H190        0.5995  -24.5400  -44.6145 H         1 UNK         0.3000 
    191 H191       -2.0733  -23.6287  -44.5469 H         1 UNK         0.0600 
    192 H192       -0.8545  -26.2585  -43.5468 H         1 UNK         0.0600 
    193 H193       -0.9636  -24.7485  -42.6420 H         1 UNK         0.0600 
    194 H194       -2.4243  -25.6219  -43.0687 H         1 UNK         0.0600 
    195 H195       -0.6115  -25.9177  -46.6739 H         1 UNK         0.3000 
    196 H196       -2.5809  -27.7217  -47.3742 H         1 UNK         0.0600 
    197 H197       -1.2852  -27.9051  -49.5178 H         1 UNK         0.0600 
    198 H198       -0.2386  -27.8888  -48.1074 H         1 UNK         0.0600 
    199 H199       -0.3997  -26.4424  -49.1036 H         1 UNK         0.0600 
    200 H200       -4.6271  -27.1383  -47.6884 H         1 UNK         0.3000 
    201 H201       -6.5170  -26.2945  -48.4551 H         1 UNK         0.0600 
    202 H202       -5.8285  -27.4117  -50.5541 H         1 UNK         0.0600 
    203 H203       -4.9902  -25.9608  -51.0891 H         1 UNK         0.0600 
    204 H204       -6.7416  -25.9584  -50.9173 H         1 UNK         0.0600 
    205 H205       -4.8669  -24.4968  -47.0215 H         1 UNK         0.3000 
    206 H206       -4.6101  -22.3903  -46.3759 H         1 UNK         0.0600 
    207 H207       -7.1014  -22.3459  -46.3166 H         1 UNK         0.0600 
    208 H208       -6.4526  -20.7681  -46.7372 H         1 UNK         0.0600 
    209 H209       -7.1520  -21.7862  -47.9873 H         1 UNK         0.0600 
    210 H210       -2.7398  -22.8679  -47.9595 H         1 UNK         0.3000 
    211 H211       -1.2288  -22.2965  -49.4450 H         1 UNK         0.0600 
    212 H212       -2.4177  -19.4747  -49.2453 H         1 UNK         0.0600 
    213 H213       -0.8148  -19.8919  -49.8358 H         1 UNK         0.0600 
    214 H214       -1.2218  -20.1679  -48.1505 H         1 UNK         0.0600 
    215 H215       -3.1433  -23.6816  -50.5916 H         1 UNK         0.3000 
    216 H216       -4.2219  -24.2718  -52.4505 H         1 UNK         0.0600 
    217 H217       -3.0949  -23.8197  -54.5957 H         1 UNK         0.0600 
    218 H218       -1.8885  -24.1395  -53.3564 H         1 UNK         0.0600 
    219 H219       -2.1979  -22.4868  -53.8877 H         1 UNK         0.0600 
    220 H220       -5.8464  -22.7195  -51.2459 H         1 UNK         0.3000 
    221 H221       -7.6208  -21.4419  -51.3175 H         1 UNK         0.0600 
    222 H222       -7.4449  -21.5717  -54.3747 H         1 UNK         0.0600 
    223 H223       -8.2255  -22.7653  -53.3382 H         1 UNK         0.0600 
    224 H224       -8.8573  -21.1289  -53.4291 H         1 UNK         0.0600 
    225 H225       -5.6615  -20.0565  -50.4941 H         1 UNK         0.3000 
    226 H226       -5.0074  -18.0680  -49.9505 H         1 UNK         0.0600 
    227 H227       -7.4241  -17.5113  -49.9020 H         1 UNK         0.0600 
    228 H228       -6.4658  -16.1079  -50.3418 H         1 UNK         0.0600 
    229 H229       -7.3594  -16.9749  -51.5816 H         1 UNK         0.0600 
    230 H230       -3.3185  -19.0301  -51.5848 H         1 UNK         0.3000 
    231 H231       -1.4771  -18.5485  -52.6222 H         1 UNK         0.0600 
    232 H232       -2.2988  -15.6032  -52.7216 H         1 UNK         0.0600 
    233 H233       -0.6910  -16.2435  -52.9949 H         1 UNK         0.0600 
    234 H234       -1.4222  -16.3850  -51.4053 H         1 UNK         0.0600 
    235 H235       -4.1352  -19.0362  -54.0848 H         1 UNK         0.3000 
    236 H236       -3.5559  -18.0994  -56.8141 H         1 UNK         0.0600 
    237 H237       -5.8943  -18.1064  -55.9487 H         1 UNK         0.0600 
    238 H238       -5.7174  -19.1617  -57.3419 H         1 UNK         0.0600 
    239 H239       -5.8151  -19.8514  -55.7259 H         1 UNK         0.0600 
    240 H240       -1.4366  -19.5210  -55.8876 H         1 UNK         0.3000 
    241 H241       -1.4247  -22.3076  -56.3434 H         1 UNK         0.0600 
    242 H242       -0.5949  -22.9548  -59.7429 H         1 UNK         0.3800 
    243 H243       -0.7993  -23.6274  -58.1513 H         1 UNK         0.3800 
    244 H244        1.0654  -22.0835  -56.3127 H         1 UNK         0.0800 
    245 H245        0.9246  -20.3509  -56.4644 H         1 UNK         0.0800 
    246 H246        1.2305  -18.8891  -54.3499 H         1 UNK         0.0800 
    247 H247        2.5041  -20.0846  -54.4541 H         1 UNK         0.0800 
@<TRIPOS>BOND
     1    1    2 1    
     2    1  127 1    
     3    1  128 1    
     4    1  129 1    
     5    2    3 2    
     6    2    4 am   BACKBONE|DICT|INTERRES
     7    4    5 1    
     8    4  130 1    
     9    5    6 1    
    10    5   65 1    
    11    5  131 1    
    12    6    7 1    
    13    6  132 1    
    14    6  133 1    
    15    7    8 1    
    16    8    9 1    
    17    8  134 1    
    18    8  135 1    
    19    9   10 ar   
    20    9   14 ar   
    21   10   11 ar   
    22   10  136 1    
    23   11   12 ar   
    24   11  126 1    
    25   12   13 ar   
    26   12  137 1    
    27   13   14 ar   
    28   13   15 1    
    29   14  138 1    
    30   15   16 1    
    31   15  139 1    
    32   15  140 1    
    33   16   17 1    
    34   17   18 1    
    35   17  141 1    
    36   17  142 1    
    37   18   19 1    
    38   18   67 1    
    39   18  143 1    
    40   19   20 am   BACKBONE|DICT|INTERRES
    41   19  144 1    
    42   20   21 2    
    43   20   22 1    
    44   22   23 1    
    45   22   24 1    
    46   22  145 1    
    47   23  146 1    
    48   23  147 1    
    49   23  148 1    
    50   24   25 am   BACKBONE|DICT|INTERRES
    51   24  149 1    
    52   25   26 2    
    53   25   27 1    
    54   27   28 1    
    55   27   29 1    
    56   27  150 1    
    57   28  151 1    
    58   28  152 1    
    59   28  153 1    
    60   29   30 am   BACKBONE|DICT|INTERRES
    61   29  154 1    
    62   30   31 2    
    63   30   32 1    
    64   32   33 1    
    65   32   34 1    
    66   32  155 1    
    67   33  156 1    
    68   33  157 1    
    69   33  158 1    
    70   34   35 am   BACKBONE|DICT|INTERRES
    71   34  159 1    
    72   35   36 2    
    73   35   37 1    
    74   37   38 1    
    75   37   39 1    
    76   37  160 1    
    77   38  161 1    
    78   38  162 1    
    79   38  163 1    
    80   39   40 am   BACKBONE|DICT|INTERRES
    81   39  164 1    
    82   40   41 2    
    83   40   42 1    
    84   42   43 1    
    85   42   44 1    
    86   42  165 1    
    87   43  166 1    
    88   43  167 1    
    89   43  168 1    
    90   44   45 am   BACKBONE|DICT|INTERRES
    91   44  169 1    
    92   45   46 2    
    93   45   47 1    
    94   47   48 1    
    95   47   49 1    
    96   47  170 1    
    97   48  171 1    
    98   48  172 1    
    99   48  173 1    
   100   49   50 am   BACKBONE|DICT|INTERRES
   101   49  174 1    
   102   50   51 2    
   103   50   52 1    
   104   52   53 1    
   105   52   54 1    
   106   52  175 1    
   107   53  176 1    
   108   53  177 1    
   109   53  178 1    
   110   54   55 am   BACKBONE|DICT|INTERRES
   111   54  179 1    
   112   55   56 2    
   113   55   57 1    
   114   57   58 1    
   115   57   59 1    
   116   57  180 1    
   117   58  181 1    
   118   58  182 1    
   119   58  183 1    
   120   59   60 am   BACKBONE|DICT|INTERRES
   121   59  184 1    
   122   60   61 2    
   123   60   62 1    
   124   62   63 1    
   125   62   64 1    
   126   62  185 1    
   127   63  186 1    
   128   63  187 1    
   129   63  188 1    
   130   64   65 am   BACKBONE|DICT|INTERRES
   131   64  189 1    
   132   65   66 2    
   133   67   68 2    
   134   67   69 am   BACKBONE|DICT|INTERRES
   135   69   70 1    
   136   69  190 1    
   137   70   71 1    
   138   70   72 1    
   139   70  191 1    
   140   71  192 1    
   141   71  193 1    
   142   71  194 1    
   143   72   73 2    
   144   72   74 am   BACKBONE|DICT|INTERRES
   145   74   75 1    
   146   74  195 1    
   147   75   76 1    
   148   75   77 1    
   149   75  196 1    
   150   76  197 1    
   151   76  198 1    
   152   76  199 1    
   153   77   78 2    
   154   77   79 am   BACKBONE|DICT|INTERRES
   155   79   80 1    
   156   79  200 1    
   157   80   81 1    
   158   80   82 1    
   159   80  201 1    
   160   81  202 1    
   161   81  203 1    
   162   81  204 1    
   163   82   83 2    
   164   82   84 am   BACKBONE|DICT|INTERRES
   165   84   85 1    
   166   84  205 1    
   167   85   86 1    
   168   85   87 1    
   169   85  206 1    
   170   86  207 1    
   171   86  208 1    
   172   86  209 1    
   173   87   88 2    
   174   87   89 am   BACKBONE|DICT|INTERRES
   175   89   90 1    
   176   89  210 1    
   177   90   91 1    
   178   90   92 1    
   179   90  211 1    
   180   91  212 1    
   181   91  213 1    
   182   91  214 1    
   183   92   93 2    
   184   92   94 am   BACKBONE|DICT|INTERRES
   185   94   95 1    
   186   94  215 1    
   187   95   96 1    
   188   95   97 1    
   189   95  216 1    
   190   96  217 1    
   191   96  218 1    
   192   96  219 1    
   193   97   98 2    
   194   97   99 am   BACKBONE|DICT|INTERRES
   195   99  100 1    
   196   99  220 1    
   197  100  101 1    
   198  100  102 1    
   199  100  221 1    
   200  101  222 1    
   201  101  223 1    
   202  101  224 1    
   203  102  103 2    
   204  102  104 am   BACKBONE|DICT|INTERRES
   205  104  105 1    
   206  104  225 1    
   207  105  106 1    
   208  105  107 1    
   209  105  226 1    
   210  106  227 1    
   211  106  228 1    
   212  106  229 1    
   213  107  108 2    
   214  107  109 am   BACKBONE|DICT|INTERRES
   215  109  110 1    
   216  109  230 1    
   217  110  111 1    
   218  110  112 1    
   219  110  231 1    
   220  111  232 1    
   221  111  233 1    
   222  111  234 1    
   223  112  113 2    
   224  112  114 am   BACKBONE|DICT|INTERRES
   225  114  115 1    
   226  114  235 1    
   227  115  116 1    
   228  115  117 1    
   229  115  236 1    
   230  116  237 1    
   231  116  238 1    
   232  116  239 1    
   233  117  118 2    
   234  117  119 am   BACKBONE|DICT|INTERRES
   235  119  120 1    
   236  119  240 1    
   237  120  121 1    
   238  120  124 1    
   239  120  241 1    
   240  121  122 am   BACKBONE|DICT|INTERRES
   241  121  123 2    
   242  122  242 1    
   243  122  243 1    
   244  124  125 1    
   245  124  244 1    
   246  124  245 1    
   247  125  126 1    
   248  126  246 1    
   249  126  247 1    
@<TRIPOS>SUBSTRUCTURE
     1 UNK         1 GROUP             0       ****    0 ROOT    
