@<TRIPOS>MOLECULE
3R540
247   249    1
SMALL
USER_CHARGES


@<TRIPOS>ATOM
      1 CA         -3.9200  -13.5734  -45.4946 C.3       0 UNK        -0.1800 
      2 C          -2.4050  -13.5473  -45.6420 C.2       0 UNK         0.5000 
      3 O          -1.7048  -13.5632  -44.6320 O.2       0 UNK        -0.5000 
      4 N          -1.9229  -13.5207  -46.8932 N.am      1 UNK        -0.5000 
      5 CA         -0.5204  -13.4850  -47.3345 C.3       1 UNK         0.1400 
      6 C6          0.3541  -14.6514  -46.7964 C.3       23 UNK        -0.0398 
      7 S7         -0.1872  -16.2854  -47.3972 S.3       23 UNK        -0.2404 
      8 C8          0.7447  -16.3928  -48.9565 C.3       23 UNK        -0.0205 
      9 C9          0.6937  -17.7926  -49.5474 C.ar      23 UNK        -0.0193 
     10 C10        -0.4521  -18.2388  -50.2126 C.ar      23 UNK        -0.1150 
     11 C11        -0.5022  -19.5241  -50.7611 C.ar      23 UNK        -0.0193 
     12 C12         0.6165  -20.3583  -50.6494 C.ar      23 UNK        -0.1150 
     13 C13         1.7772  -19.9146  -50.0100 C.ar      23 UNK        -0.0193 
     14 C14         1.8041  -18.6352  -49.4489 C.ar      23 UNK        -0.1150 
     15 C15         3.0165  -20.7986  -49.9597 C.3       23 UNK        -0.0205 
     16 S16         2.7643  -22.3313  -49.0121 S.3       23 UNK        -0.2404 
     17 C17         2.4873  -21.6822  -47.3292 C.3       23 UNK        -0.0398 
     18 CA          1.5721  -22.6025  -46.4867 C.3       11 UNK         0.1400 
     19 N           1.6298  -22.2535  -45.0688 N.am      11 UNK        -0.5000 
     20 C           1.9261  -23.1192  -44.0908 C.2       10 UNK         0.5000 
     21 O           2.0181  -24.3367  -44.2528 O.2       10 UNK        -0.5000 
     22 CA          2.2151  -22.5249  -42.7015 C.3       10 UNK         0.1400 
     23 CB          3.5884  -21.8352  -42.6855 C.3       10 UNK        -0.1800 
     24 N           1.1904  -21.5832  -42.2596 N.am      10 UNK        -0.5000 
     25 C          -0.0220  -21.9464  -41.8201 C.2       9 UNK         0.5000 
     26 O          -0.3955  -23.1161  -41.7289 O.2       9 UNK        -0.5000 
     27 CA         -0.9810  -20.8129  -41.4111 C.3       9 UNK         0.1400 
     28 CB         -0.7265  -20.3882  -39.9570 C.3       9 UNK        -0.1800 
     29 N          -0.8816  -19.6406  -42.2791 N.am      9 UNK        -0.5000 
     30 C          -1.2052  -19.6309  -43.5784 C.2       8 UNK         0.5000 
     31 O          -1.6566  -20.6063  -44.1751 O.2       8 UNK        -0.5000 
     32 CA         -0.9254  -18.3311  -44.3517 C.3       8 UNK         0.1400 
     33 CB         -2.0199  -17.2854  -44.0995 C.3       8 UNK        -0.1800 
     34 N           0.3899  -17.7781  -44.0366 N.am      8 UNK        -0.5000 
     35 C           1.5440  -18.3774  -44.3608 C.2       7 UNK         0.5000 
     36 O           1.6121  -19.4355  -44.9868 O.2       7 UNK        -0.5000 
     37 CA          2.8355  -17.7100  -43.8654 C.3       7 UNK         0.1400 
     38 CB          3.3312  -16.6709  -44.8785 C.3       7 UNK        -0.1800 
     39 N           2.6551  -17.0807  -42.5575 N.am      7 UNK        -0.5000 
     40 C           2.5536  -17.7639  -41.4078 C.2       6 UNK         0.5000 
     41 O           2.6396  -18.9894  -41.3336 O.2       6 UNK        -0.5000 
     42 CA          2.2542  -16.9476  -40.1357 C.3       6 UNK         0.1400 
     43 CB          3.5460  -16.3520  -39.5566 C.3       6 UNK        -0.1800 
     44 N           1.2879  -15.8738  -40.3681 N.am      6 UNK        -0.5000 
     45 C           0.0232  -16.0653  -40.7664 C.2       5 UNK         0.5000 
     46 O          -0.4856  -17.1778  -40.8960 O.2       5 UNK        -0.5000 
     47 CA         -0.8080  -14.8181  -41.1194 C.3       5 UNK         0.1400 
     48 CB         -1.7288  -14.4421  -39.9492 C.3       5 UNK        -0.1800 
     49 N          -0.0351  -13.6380  -41.5166 N.am      5 UNK        -0.5000 
     50 C           0.8371  -13.5659  -42.5326 C.2       4 UNK         0.5000 
     51 O           1.2157  -14.5450  -43.1813 O.2       4 UNK        -0.5000 
     52 CA          1.3324  -12.1467  -42.8715 C.3       4 UNK         0.1400 
     53 CB          1.9262  -11.4176  -41.6455 C.3       4 UNK        -0.1800 
     54 N           2.2485  -12.1010  -44.0142 N.am      4 UNK        -0.5000 
     55 C           3.5233  -12.5148  -44.0861 C.2       3 UNK         0.5000 
     56 O           4.1330  -13.0225  -43.1437 O.2       3 UNK        -0.5000 
     57 CA          4.2556  -12.3124  -45.4348 C.3       3 UNK         0.1400 
     58 CB          5.0133  -13.5757  -45.8766 C.3       3 UNK        -0.1800 
     59 N           3.3624  -11.9118  -46.5236 N.am      3 UNK        -0.5000 
     60 C           2.9626  -10.6634  -46.8003 C.2       2 UNK         0.5000 
     61 O           3.3727   -9.6639  -46.2107 O.2       2 UNK        -0.5000 
     62 CA          1.8826  -10.5230  -47.8935 C.3       2 UNK         0.1400 
     63 CB          2.5294  -10.2306  -49.2558 C.3       2 UNK        -0.1800 
     64 N           1.0313  -11.7149  -48.0097 N.am      2 UNK        -0.5000 
     65 C           0.1647  -12.1252  -47.0711 C.2       1 UNK         0.5000 
     66 O          -0.0387  -11.4965  -46.0312 O.2       1 UNK        -0.5000 
     67 C           0.1230  -22.6200  -46.9998 C.2       11 UNK         0.5000 
     68 O          -0.3389  -23.6740  -47.4370 O.2       11 UNK        -0.5000 
     69 N          -0.5739  -21.4742  -46.9565 N.am      12 UNK        -0.5000 
     70 CA         -1.8820  -21.2894  -47.6032 C.3       12 UNK         0.1400 
     71 CB         -2.3242  -19.8225  -47.5052 C.3       12 UNK        -0.1800 
     72 C          -2.9912  -22.2223  -47.0809 C.2       12 UNK         0.5000 
     73 O          -3.8679  -22.6121  -47.8489 O.2       12 UNK        -0.5000 
     74 N          -2.9142  -22.5912  -45.7976 N.am      13 UNK        -0.5000 
     75 CA         -3.7933  -23.5632  -45.1500 C.3       13 UNK         0.1400 
     76 CB         -3.5533  -23.5068  -43.6337 C.3       13 UNK        -0.1800 
     77 C          -3.6171  -25.0064  -45.6698 C.2       13 UNK         0.5000 
     78 O          -4.5503  -25.8013  -45.5485 O.2       13 UNK        -0.5000 
     79 N          -2.4375  -25.3256  -46.2201 N.am      14 UNK        -0.5000 
     80 CA         -2.0923  -26.6433  -46.7535 C.3       14 UNK         0.1400 
     81 CB         -0.6767  -27.0128  -46.2818 C.3       14 UNK        -0.1800 
     82 C          -2.1721  -26.6885  -48.2901 C.2       14 UNK         0.5000 
     83 O          -2.5150  -27.7354  -48.8414 O.2       14 UNK        -0.5000 
     84 N          -1.8355  -25.5739  -48.9542 N.am      15 UNK        -0.5000 
     85 CA         -1.8013  -25.4255  -50.4088 C.3       15 UNK         0.1400 
     86 CB         -1.2308  -24.0407  -50.7577 C.3       15 UNK        -0.1800 
     87 C          -3.1837  -25.6156  -51.0612 C.2       15 UNK         0.5000 
     88 O          -4.1405  -24.9416  -50.6783 O.2       15 UNK        -0.5000 
     89 N          -3.2581  -26.4997  -52.0648 N.am      16 UNK        -0.5000 
     90 CA         -4.4773  -26.7734  -52.8336 C.3       16 UNK         0.1400 
     91 CB         -4.2876  -28.0717  -53.6323 C.3       16 UNK        -0.1800 
     92 C          -4.8696  -25.6155  -53.7725 C.2       16 UNK         0.5000 
     93 O          -6.0531  -25.4339  -54.0602 O.2       16 UNK        -0.5000 
     94 N          -3.8713  -24.8367  -54.2125 N.am      17 UNK        -0.5000 
     95 CA         -4.0284  -23.6720  -55.0859 C.3       17 UNK         0.1400 
     96 CB         -2.6738  -23.3549  -55.7370 C.3       17 UNK        -0.1800 
     97 C          -4.6051  -22.4310  -54.3741 C.2       17 UNK         0.5000 
     98 O          -4.8971  -21.4380  -55.0430 O.2       17 UNK        -0.5000 
     99 N          -4.7874  -22.4953  -53.0457 N.am      18 UNK        -0.5000 
    100 CA        -5.3450  -21.4272  -52.2108 C.3       18 UNK         0.1400 
    101 CB        -5.2598  -21.8407  -50.7378 C.3       18 UNK        -0.1800 
    102 C         -6.7879  -21.0280  -52.5779 C.2       18 UNK         0.5000 
    103 O         -7.1877  -19.8988  -52.2960 O.2       18 UNK        -0.5000 
    104 N         -7.5186  -21.9190  -53.2644 N.am      19 UNK        -0.5000 
    105 CA        -8.8183  -21.6462  -53.8860 C.3       19 UNK         0.1400 
    106 CB        -9.3830  -22.9595  -54.4478 C.3       19 UNK        -0.1800 
    107 C         -8.7594  -20.5672  -54.9912 C.2       19 UNK         0.5000 
    108 O         -9.7650  -19.9017  -55.2397 O.2       19 UNK        -0.5000 
    109 N         -7.5815  -20.3958  -55.6065 N.am      20 UNK        -0.5000 
    110 CA        -7.2531  -19.3424  -56.5676 C.3       20 UNK         0.1400 
    111 CB        -6.7122  -20.0051  -57.8470 C.3       20 UNK        -0.1800 
    112 C         -6.2326  -18.3509  -55.9668 C.2       20 UNK         0.5000 
    113 O         -5.5288  -17.6693  -56.7154 O.2       20 UNK        -0.5000 
    114 N         -6.1316  -18.3181  -54.6267 N.am      21 UNK        -0.5000 
    115 CA        -5.2094  -17.5187  -53.8086 C.3       21 UNK         0.1400 
    116 CB        -5.5762  -16.0233  -53.8986 C.3       21 UNK        -0.1800 
    117 C         -3.7148  -17.7778  -54.1050 C.2       21 UNK         0.5000 
    118 O         -2.8797  -16.9206  -53.8136 O.2       21 UNK        -0.5000 
    119 N         -3.4072  -18.9443  -54.6899 N.am      22 UNK        -0.5000 
    120 CA        -2.0932  -19.3278  -55.2309 C.3       22 UNK         0.1400 
    121 C         -1.6057  -18.4382  -56.4176 C.2       22 UNK         0.5000 
    122 N         -2.4877  -17.7362  -57.1221 N.am      22 UNK        -0.7600 
    123 O         -0.4190  -18.4050  -56.7325 O.2       22 UNK        -0.5000 
    124 C124       -1.0175  -19.5447  -54.1302 C.3       23 UNK        -0.0398 
    125 S125       -1.4780  -20.9008  -52.9989 S.3       23 UNK        -0.2404 
    126 C126       -1.7788  -20.0079  -51.4408 C.3       23 UNK        -0.0205 
    127 H127       -4.2273  -14.4722  -44.9598 H         1 UNK         0.0600 
    128 H128       -4.4242  -13.5639  -46.4613 H         1 UNK         0.0600 
    129 H129       -4.2561  -12.7059  -44.9267 H         1 UNK         0.0600 
    130 H130       -2.5907  -13.4989  -47.6504 H         1 UNK         0.3000 
    131 H131       -0.5736  -13.5929  -48.4190 H         1 UNK         0.0600 
    132 H132        1.4007  -14.5192  -47.0739 H         1 UNK         0.0800 
    133 H133        0.3480  -14.6720  -45.7067 H         1 UNK         0.0800 
    134 H134        0.3363  -15.6789  -49.6731 H         1 UNK         0.0800 
    135 H135        1.7815  -16.1001  -48.7847 H         1 UNK         0.0800 
    136 H136       -1.3106  -17.5861  -50.2874 H         1 UNK         0.1150 
    137 H137        0.5909  -21.3542  -51.0687 H         1 UNK         0.1150 
    138 H138        2.6964  -18.2879  -48.9473 H         1 UNK         0.1150 
    139 H139        3.2997  -21.0616  -50.9797 H         1 UNK         0.0800 
    140 H140        3.8652  -20.2576  -49.5382 H         1 UNK         0.0800 
    141 H141        2.0894  -20.6677  -47.3702 H         1 UNK         0.0800 
    142 H142        3.4647  -21.5975  -46.8521 H         1 UNK         0.0800 
    143 H143        1.9534  -23.6178  -46.6177 H         1 UNK         0.0600 
    144 H144        1.5626  -21.2607  -44.8545 H         1 UNK         0.3000 
    145 H145        2.2525  -23.3512  -41.9881 H         1 UNK         0.0600 
    146 H146        3.8480  -21.5000  -41.6812 H         1 UNK         0.0600 
    147 H147        3.6125  -20.9665  -43.3441 H         1 UNK         0.0600 
    148 H148        4.3736  -22.5181  -43.0124 H         1 UNK         0.0600 
    149 H149        1.4417  -20.6024  -42.2517 H         1 UNK         0.3000 
    150 H150       -2.0003  -21.1983  -41.4824 H         1 UNK         0.0600 
    151 H151       -0.8065  -21.2396  -39.2800 H         1 UNK         0.0600 
    152 H152       -1.4533  -19.6436  -39.6316 H         1 UNK         0.0600 
    153 H153        0.2687  -19.9592  -39.8326 H         1 UNK         0.0600 
    154 H154       -0.5652  -18.7768  -41.8444 H         1 UNK         0.3000 
    155 H155       -0.9231  -18.5645  -45.4160 H         1 UNK         0.0600 
    156 H156       -2.9843  -17.6418  -44.4627 H         1 UNK         0.0600 
    157 H157       -1.8007  -16.3537  -44.6200 H         1 UNK         0.0600 
    158 H158       -2.1342  -17.0626  -43.0396 H         1 UNK         0.0600 
    159 H159        0.4211  -16.9054  -43.5283 H         1 UNK         0.3000 
    160 H160        3.6001  -18.4844  -43.7762 H         1 UNK         0.0600 
    161 H161        2.6095  -15.8662  -45.0189 H         1 UNK         0.0600 
    162 H162        3.5055  -17.1277  -45.8536 H         1 UNK         0.0600 
    163 H163        4.2714  -16.2274  -44.5511 H         1 UNK         0.0600 
    164 H164        2.4843  -16.0808  -42.5577 H         1 UNK         0.3000 
    165 H165        1.8283  -17.6291  -39.3962 H         1 UNK         0.0600 
    166 H166        3.3561  -15.8406  -38.6127 H         1 UNK         0.0600 
    167 H167        4.2816  -17.1331  -39.3600 H         1 UNK         0.0600 
    168 H168        4.0020  -15.6357  -40.2415 H         1 UNK         0.0600 
    169 H169        1.6288  -14.9265  -40.2992 H         1 UNK         0.3000 
    170 H170       -1.4357  -15.0821  -41.9720 H         1 UNK         0.0600 
    171 H171       -1.1586  -14.1208  -39.0767 H         1 UNK         0.0600 
    172 H172       -2.4083  -13.6352  -40.2242 H         1 UNK         0.0600 
    173 H173       -2.3431  -15.2912  -39.6459 H         1 UNK         0.0600 
    174 H174       -0.2770  -12.7817  -41.0401 H         1 UNK         0.3000 
    175 H175        0.4507  -11.5897  -43.1924 H         1 UNK         0.0600 
    176 H176        2.7237  -11.9933  -41.1749 H         1 UNK         0.0600 
    177 H177        2.3347  -10.4462  -41.9247 H         1 UNK         0.0600 
    178 H178        1.1668  -11.2352  -40.8849 H         1 UNK         0.0600 
    179 H179        1.8266  -11.7409  -44.8602 H         1 UNK         0.3000 
    180 H180        4.9925  -11.5235  -45.2712 H         1 UNK         0.0600 
    181 H181        5.6394  -13.3703  -46.7450 H         1 UNK         0.0600 
    182 H182        4.3283  -14.3783  -46.1466 H         1 UNK         0.0600 
    183 H183        5.6699  -13.9474  -45.0891 H         1 UNK         0.0600 
    184 H184        2.9751  -12.6609  -47.0763 H         1 UNK         0.3000 
    185 H185        1.2490   -9.6747  -47.6257 H         1 UNK         0.0600 
    186 H186        1.7739  -10.0604  -50.0231 H         1 UNK         0.0600 
    187 H187        3.1500   -9.3347  -49.2088 H         1 UNK         0.0600 
    188 H188        3.1653  -11.0531  -49.5858 H         1 UNK         0.0600 
    189 H189        1.1449  -12.2607  -48.8522 H         1 UNK         0.3000 
    190 H190       -0.1532  -20.6591  -46.5343 H         1 UNK         0.3000 
    191 H191       -1.7350  -21.5231  -48.6581 H         1 UNK         0.0600 
    192 H192       -1.5138  -19.1404  -47.7588 H         1 UNK         0.0600 
    193 H193       -2.6797  -19.5736  -46.5058 H         1 UNK         0.0600 
    194 H194       -3.1447  -19.6232  -48.1954 H         1 UNK         0.0600 
    195 H195       -2.2196  -22.1337  -45.2130 H         1 UNK         0.3000 
    196 H196       -4.8258  -23.2665  -45.3453 H         1 UNK         0.0600 
    197 H197       -3.7359  -22.5061  -43.2413 H         1 UNK         0.0600 
    198 H198       -2.5286  -23.7825  -43.3818 H         1 UNK         0.0600 
    199 H199       -4.2181  -24.1908  -43.1049 H         1 UNK         0.0600 
    200 H200       -1.7388  -24.5997  -46.3352 H         1 UNK         0.3000 
    201 H201       -2.7788  -27.3988  -46.3657 H         1 UNK         0.0600 
    202 H202       -0.6193  -27.0395  -45.1935 H         1 UNK         0.0600 
    203 H203        0.0682  -26.2995  -46.6371 H         1 UNK         0.0600 
    204 H204       -0.3879  -27.9991  -46.6472 H         1 UNK         0.0600 
    205 H205       -1.5093  -24.7765  -48.4169 H         1 UNK         0.3000 
    206 H206       -1.1181  -26.1827  -50.7987 H         1 UNK         0.0600 
    207 H207       -1.8647  -23.2397  -50.3763 H         1 UNK         0.0600 
    208 H208       -0.2331  -23.9040  -50.3394 H         1 UNK         0.0600 
    209 H209       -1.1517  -23.9084  -51.8374 H         1 UNK         0.0600 
    210 H210       -2.4364  -27.0295  -52.3183 H         1 UNK         0.3000 
    211 H211       -5.3006  -26.9222  -52.1314 H         1 UNK         0.0600 
    212 H212       -3.4654  -27.9912  -54.3445 H         1 UNK         0.0600 
    213 H213       -5.1880  -28.3179  -54.1969 H         1 UNK         0.0600 
    214 H214       -4.0798  -28.9141  -52.9721 H         1 UNK         0.0600 
    215 H215       -2.9310  -25.0565  -53.9193 H         1 UNK         0.3000 
    216 H216       -4.7294  -23.9328  -55.8814 H         1 UNK         0.0600 
    217 H217       -2.7608  -22.5252  -56.4391 H         1 UNK         0.0600 
    218 H218       -2.2977  -24.2103  -56.2984 H         1 UNK         0.0600 
    219 H219       -1.9219  -23.0852  -54.9953 H         1 UNK         0.0600 
    220 H220       -4.5311  -23.3472  -52.5660 H         1 UNK         0.3000 
    221 H221       -4.7191  -20.5442  -52.3524 H         1 UNK         0.0600 
    222 H222       -5.8796  -22.7131  -50.5275 H         1 UNK         0.0600 
    223 H223       -4.2360  -22.0874  -50.4589 H         1 UNK         0.0600 
    224 H224       -5.5901  -21.0349  -50.0813 H         1 UNK         0.0600 
    225 H225       -7.1129  -22.8262  -53.4474 H         1 UNK         0.3000 
    226 H226       -9.4935  -21.2842  -53.1081 H         1 UNK         0.0600 
    227 H227       -9.5045  -23.7052  -53.6619 H         1 UNK         0.0600 
    228 H228      -10.3632  -22.8026  -54.9001 H         1 UNK         0.0600 
    229 H229       -8.7310  -23.3823  -55.2134 H         1 UNK         0.0600 
    230 H230       -6.7950  -20.9739  -55.3267 H         1 UNK         0.3000 
    231 H231       -8.1431  -18.7665  -56.8277 H         1 UNK         0.0600 
    232 H232       -6.5108  -19.2638  -58.6212 H         1 UNK         0.0600 
    233 H233       -7.4323  -20.7127  -58.2578 H         1 UNK         0.0600 
    234 H234       -5.7834  -20.5446  -57.6566 H         1 UNK         0.0600 
    235 H235       -6.7490  -18.9198  -54.0941 H         1 UNK         0.3000 
    236 H236       -5.3668  -17.8342  -52.7765 H         1 UNK         0.0600 
    237 H237       -5.3802  -15.6184  -54.8919 H         1 UNK         0.0600 
    238 H238       -6.6301  -15.8619  -53.6722 H         1 UNK         0.0600 
    239 H239       -4.9999  -15.4329  -53.1854 H         1 UNK         0.0600 
    240 H240       -4.1500  -19.6105  -54.8725 H         1 UNK         0.3000 
    241 H241       -2.2585  -20.2977  -55.6987 H         1 UNK         0.0600 
    242 H242       -3.4758  -17.7536  -56.8932 H         1 UNK         0.3800 
    243 H243       -2.1670  -17.1733  -57.8938 H         1 UNK         0.3800 
    244 H244       -0.8350  -18.6257  -53.5722 H         1 UNK         0.0800 
    245 H245       -0.0607  -19.8208  -54.5753 H         1 UNK         0.0800 
    246 H246       -2.4556  -19.1752  -51.6362 H         1 UNK         0.0800 
    247 H247       -2.3029  -20.6748  -50.7583 H         1 UNK         0.0800 
@<TRIPOS>BOND
     1    1    2 1    
     2    1  127 1    
     3    1  128 1    
     4    1  129 1    
     5    2    3 2    
     6    2    4 am   BACKBONE|DICT|INTERRES
     7    4    5 1    
     8    4  130 1    
     9    5    6 1    
    10    5   65 1    
    11    5  131 1    
    12    6    7 1    
    13    6  132 1    
    14    6  133 1    
    15    7    8 1    
    16    8    9 1    
    17    8  134 1    
    18    8  135 1    
    19    9   10 ar   
    20    9   14 ar   
    21   10   11 ar   
    22   10  136 1    
    23   11   12 ar   
    24   11  126 1    
    25   12   13 ar   
    26   12  137 1    
    27   13   14 ar   
    28   13   15 1    
    29   14  138 1    
    30   15   16 1    
    31   15  139 1    
    32   15  140 1    
    33   16   17 1    
    34   17   18 1    
    35   17  141 1    
    36   17  142 1    
    37   18   19 1    
    38   18   67 1    
    39   18  143 1    
    40   19   20 am   BACKBONE|DICT|INTERRES
    41   19  144 1    
    42   20   21 2    
    43   20   22 1    
    44   22   23 1    
    45   22   24 1    
    46   22  145 1    
    47   23  146 1    
    48   23  147 1    
    49   23  148 1    
    50   24   25 am   BACKBONE|DICT|INTERRES
    51   24  149 1    
    52   25   26 2    
    53   25   27 1    
    54   27   28 1    
    55   27   29 1    
    56   27  150 1    
    57   28  151 1    
    58   28  152 1    
    59   28  153 1    
    60   29   30 am   BACKBONE|DICT|INTERRES
    61   29  154 1    
    62   30   31 2    
    63   30   32 1    
    64   32   33 1    
    65   32   34 1    
    66   32  155 1    
    67   33  156 1    
    68   33  157 1    
    69   33  158 1    
    70   34   35 am   BACKBONE|DICT|INTERRES
    71   34  159 1    
    72   35   36 2    
    73   35   37 1    
    74   37   38 1    
    75   37   39 1    
    76   37  160 1    
    77   38  161 1    
    78   38  162 1    
    79   38  163 1    
    80   39   40 am   BACKBONE|DICT|INTERRES
    81   39  164 1    
    82   40   41 2    
    83   40   42 1    
    84   42   43 1    
    85   42   44 1    
    86   42  165 1    
    87   43  166 1    
    88   43  167 1    
    89   43  168 1    
    90   44   45 am   BACKBONE|DICT|INTERRES
    91   44  169 1    
    92   45   46 2    
    93   45   47 1    
    94   47   48 1    
    95   47   49 1    
    96   47  170 1    
    97   48  171 1    
    98   48  172 1    
    99   48  173 1    
   100   49   50 am   BACKBONE|DICT|INTERRES
   101   49  174 1    
   102   50   51 2    
   103   50   52 1    
   104   52   53 1    
   105   52   54 1    
   106   52  175 1    
   107   53  176 1    
   108   53  177 1    
   109   53  178 1    
   110   54   55 am   BACKBONE|DICT|INTERRES
   111   54  179 1    
   112   55   56 2    
   113   55   57 1    
   114   57   58 1    
   115   57   59 1    
   116   57  180 1    
   117   58  181 1    
   118   58  182 1    
   119   58  183 1    
   120   59   60 am   BACKBONE|DICT|INTERRES
   121   59  184 1    
   122   60   61 2    
   123   60   62 1    
   124   62   63 1    
   125   62   64 1    
   126   62  185 1    
   127   63  186 1    
   128   63  187 1    
   129   63  188 1    
   130   64   65 am   BACKBONE|DICT|INTERRES
   131   64  189 1    
   132   65   66 2    
   133   67   68 2    
   134   67   69 am   BACKBONE|DICT|INTERRES
   135   69   70 1    
   136   69  190 1    
   137   70   71 1    
   138   70   72 1    
   139   70  191 1    
   140   71  192 1    
   141   71  193 1    
   142   71  194 1    
   143   72   73 2    
   144   72   74 am   BACKBONE|DICT|INTERRES
   145   74   75 1    
   146   74  195 1    
   147   75   76 1    
   148   75   77 1    
   149   75  196 1    
   150   76  197 1    
   151   76  198 1    
   152   76  199 1    
   153   77   78 2    
   154   77   79 am   BACKBONE|DICT|INTERRES
   155   79   80 1    
   156   79  200 1    
   157   80   81 1    
   158   80   82 1    
   159   80  201 1    
   160   81  202 1    
   161   81  203 1    
   162   81  204 1    
   163   82   83 2    
   164   82   84 am   BACKBONE|DICT|INTERRES
   165   84   85 1    
   166   84  205 1    
   167   85   86 1    
   168   85   87 1    
   169   85  206 1    
   170   86  207 1    
   171   86  208 1    
   172   86  209 1    
   173   87   88 2    
   174   87   89 am   BACKBONE|DICT|INTERRES
   175   89   90 1    
   176   89  210 1    
   177   90   91 1    
   178   90   92 1    
   179   90  211 1    
   180   91  212 1    
   181   91  213 1    
   182   91  214 1    
   183   92   93 2    
   184   92   94 am   BACKBONE|DICT|INTERRES
   185   94   95 1    
   186   94  215 1    
   187   95   96 1    
   188   95   97 1    
   189   95  216 1    
   190   96  217 1    
   191   96  218 1    
   192   96  219 1    
   193   97   98 2    
   194   97   99 am   BACKBONE|DICT|INTERRES
   195   99  100 1    
   196   99  220 1    
   197  100  101 1    
   198  100  102 1    
   199  100  221 1    
   200  101  222 1    
   201  101  223 1    
   202  101  224 1    
   203  102  103 2    
   204  102  104 am   BACKBONE|DICT|INTERRES
   205  104  105 1    
   206  104  225 1    
   207  105  106 1    
   208  105  107 1    
   209  105  226 1    
   210  106  227 1    
   211  106  228 1    
   212  106  229 1    
   213  107  108 2    
   214  107  109 am   BACKBONE|DICT|INTERRES
   215  109  110 1    
   216  109  230 1    
   217  110  111 1    
   218  110  112 1    
   219  110  231 1    
   220  111  232 1    
   221  111  233 1    
   222  111  234 1    
   223  112  113 2    
   224  112  114 am   BACKBONE|DICT|INTERRES
   225  114  115 1    
   226  114  235 1    
   227  115  116 1    
   228  115  117 1    
   229  115  236 1    
   230  116  237 1    
   231  116  238 1    
   232  116  239 1    
   233  117  118 2    
   234  117  119 am   BACKBONE|DICT|INTERRES
   235  119  120 1    
   236  119  240 1    
   237  120  121 1    
   238  120  124 1    
   239  120  241 1    
   240  121  122 am   BACKBONE|DICT|INTERRES
   241  121  123 2    
   242  122  242 1    
   243  122  243 1    
   244  124  125 1    
   245  124  244 1    
   246  124  245 1    
   247  125  126 1    
   248  126  246 1    
   249  126  247 1    
@<TRIPOS>SUBSTRUCTURE
     1 UNK         1 GROUP             0       ****    0 ROOT    
