@<TRIPOS>MOLECULE
3R540
247   249    1
SMALL
USER_CHARGES


@<TRIPOS>ATOM
      1 CA          2.3252  -11.4412  -47.7774 C.3       0 UNK        -0.1800 
      2 C           2.9431  -12.6662  -48.4358 C.2       0 UNK         0.5000 
      3 O           3.9995  -12.5607  -49.0590 O.2       0 UNK        -0.5000 
      4 N           2.2913  -13.8251  -48.2977 N.am      1 UNK        -0.5000 
      5 CA          2.6993  -15.0926  -48.9066 C.3       1 UNK         0.1400 
      6 C6          2.1610  -15.2435  -50.3584 C.3       23 UNK        -0.0398 
      7 S7          0.3816  -14.8622  -50.5560 S.3       23 UNK        -0.2404 
      8 C8         -0.2526  -16.4377  -51.1969 C.3       23 UNK        -0.0205 
      9 C9         -1.7691  -16.4144  -51.2742 C.ar      23 UNK        -0.0193 
     10 C10        -2.4083  -15.8717  -52.3918 C.ar      23 UNK        -0.1150 
     11 C11        -3.8037  -15.8445  -52.4681 C.ar      23 UNK        -0.0193 
     12 C12        -4.5611  -16.3661  -51.4148 C.ar      23 UNK        -0.1150 
     13 C13        -3.9311  -16.9119  -50.2922 C.ar      23 UNK        -0.0193 
     14 C14        -2.5351  -16.9314  -50.2264 C.ar      23 UNK        -0.1150 
     15 C15        -4.7548  -17.4777  -49.1478 C.3       23 UNK        -0.0205 
     16 S16        -5.3592  -19.1462  -49.5474 S.3       23 UNK        -0.2404 
     17 C17        -5.4041  -19.9288  -47.8990 C.3       23 UNK        -0.0398 
     18 CA         -4.2949  -20.9959  -47.7564 C.3       11 UNK         0.1400 
     19 N          -2.9495  -20.4369  -47.9323 N.am      11 UNK        -0.5000 
     20 C          -1.8340  -21.1580  -48.0970 C.2       10 UNK         0.5000 
     21 O          -1.8208  -22.3886  -48.1377 O.2       10 UNK        -0.5000 
     22 CA         -0.5046  -20.3846  -48.1929 C.3       10 UNK         0.1400 
     23 CB         -0.1901  -20.0902  -49.6656 C.3       10 UNK        -0.1800 
     24 N          -0.4401  -19.1330  -47.4228 N.am      10 UNK        -0.5000 
     25 C          -0.7505  -18.9913  -46.1264 C.2       9 UNK         0.5000 
     26 O          -1.2288  -19.8901  -45.4320 O.2       9 UNK        -0.5000 
     27 CA         -0.5302  -17.6069  -45.4958 C.3       9 UNK         0.1400 
     28 CB         -1.8640  -16.8496  -45.4210 C.3       9 UNK        -0.1800 
     29 N           0.0478  -17.7412  -44.1554 N.am      9 UNK        -0.5000 
     30 C           1.2898  -18.1989  -43.9276 C.2       8 UNK         0.5000 
     31 O           2.1155  -18.3383  -44.8309 O.2       8 UNK        -0.5000 
     32 CA          1.7115  -18.5310  -42.4801 C.3       8 UNK         0.1400 
     33 CB          2.9667  -17.7465  -42.0776 C.3       8 UNK        -0.1800 
     34 N           0.6563  -18.2969  -41.4934 N.am      8 UNK        -0.5000 
     35 C          -0.3226  -19.1723  -41.2243 C.2       7 UNK         0.5000 
     36 O          -0.4070  -20.2798  -41.7536 O.2       7 UNK        -0.5000 
     37 CA         -1.3978  -18.7491  -40.2053 C.3       7 UNK         0.1400 
     38 CB         -1.0703  -19.3180  -38.8166 C.3       7 UNK        -0.1800 
     39 N          -1.5966  -17.3038  -40.0844 N.am      7 UNK        -0.5000 
     40 C          -1.9811  -16.4677  -41.0558 C.2       6 UNK         0.5000 
     41 O          -2.1465  -16.8200  -42.2226 O.2       6 UNK        -0.5000 
     42 CA         -2.1931  -14.9871  -40.6773 C.3       6 UNK         0.1400 
     43 CB         -3.6167  -14.7467  -40.1413 C.3       6 UNK        -0.1800 
     44 N          -1.1715  -14.4400  -39.7737 N.am      6 UNK        -0.5000 
     45 C          -0.9027  -14.7576  -38.4964 C.2       5 UNK         0.5000 
     46 O          -1.5762  -15.5521  -37.8380 O.2       5 UNK        -0.5000 
     47 CA          0.3565  -14.1160  -37.8665 C.3       5 UNK         0.1400 
     48 CB          0.9735  -14.9951  -36.7583 C.3       5 UNK        -0.1800 
     49 N           1.3820  -13.7400  -38.8498 N.am      5 UNK        -0.5000 
     50 C           1.9917  -14.5486  -39.7293 C.2       4 UNK         0.5000 
     51 O           1.7920  -15.7628  -39.8135 O.2       4 UNK        -0.5000 
     52 CA          2.9275  -13.8598  -40.7404 C.3       4 UNK         0.1400 
     53 CB          4.3650  -14.3884  -40.6162 C.3       4 UNK        -0.1800 
     54 N           2.4586  -14.0464  -42.1146 N.am      4 UNK        -0.5000 
     55 C           1.2620  -13.6758  -42.5895 C.2       3 UNK         0.5000 
     56 O           0.4264  -13.0740  -41.9119 O.2       3 UNK        -0.5000 
     57 CA          0.8992  -14.0654  -44.0387 C.3       3 UNK         0.1400 
     58 CB          0.4443  -12.8419  -44.8569 C.3       3 UNK        -0.1800 
     59 N           1.9035  -14.8403  -44.7837 N.am      3 UNK        -0.5000 
     60 C           3.1287  -14.4672  -45.1855 C.2       2 UNK         0.5000 
     61 O           3.6586  -13.4020  -44.8760 O.2       2 UNK        -0.5000 
     62 CA          3.8798  -15.4428  -46.1144 C.3       2 UNK         0.1400 
     63 CB          4.9233  -16.2371  -45.3163 C.3       2 UNK        -0.1800 
     64 N           2.9647  -16.3869  -46.7710 N.am      2 UNK        -0.5000 
     65 C           2.3589  -16.2746  -47.9662 C.2       1 UNK         0.5000 
     66 O           1.5189  -17.1037  -48.3146 O.2       1 UNK        -0.5000 
     67 C          -4.4523  -21.7984  -46.4466 C.2       11 UNK         0.5000 
     68 O          -5.2747  -22.7135  -46.4029 O.2       11 UNK        -0.5000 
     69 N          -3.6525  -21.4682  -45.4247 N.am      12 UNK        -0.5000 
     70 CA         -3.5844  -22.1839  -44.1538 C.3       12 UNK         0.1400 
     71 CB         -3.5789  -21.1632  -43.0038 C.3       12 UNK        -0.1800 
     72 C          -2.3337  -23.0767  -44.0984 C.2       12 UNK         0.5000 
     73 O          -2.4360  -24.2410  -43.7117 O.2       12 UNK        -0.5000 
     74 N          -1.1796  -22.5206  -44.4908 N.am      13 UNK        -0.5000 
     75 CA          0.1381  -23.1442  -44.3658 C.3       13 UNK         0.1400 
     76 CB          1.2181  -22.0732  -44.5790 C.3       13 UNK        -0.1800 
     77 C           0.3716  -24.3258  -45.3222 C.2       13 UNK         0.5000 
     78 O           1.0657  -25.2720  -44.9482 O.2       13 UNK        -0.5000 
     79 N          -0.1926  -24.2461  -46.5329 N.am      14 UNK        -0.5000 
     80 CA         -0.0238  -25.2309  -47.6031 C.3       14 UNK         0.1400 
     81 CB          0.7993  -24.5887  -48.7357 C.3       14 UNK        -0.1800 
     82 C          -1.3779  -25.7470  -48.1202 C.2       14 UNK         0.5000 
     83 O          -1.4176  -26.3626  -49.1851 O.2       14 UNK        -0.5000 
     84 N          -2.4712  -25.4551  -47.3970 N.am      15 UNK        -0.5000 
     85 CA         -3.8642  -25.7819  -47.7362 C.3       15 UNK         0.1400 
     86 CB         -4.1076  -27.2980  -47.5881 C.3       15 UNK        -0.1800 
     87 C          -4.3043  -25.2397  -49.1174 C.2       15 UNK         0.5000 
     88 O          -5.1195  -25.8654  -49.7965 O.2       15 UNK        -0.5000 
     89 N          -3.7240  -24.0956  -49.5095 N.am      16 UNK        -0.5000 
     90 CA         -3.8707  -23.3889  -50.7850 C.3       16 UNK         0.1400 
     91 CB         -5.3420  -23.0233  -51.0778 C.3       16 UNK        -0.1800 
     92 C          -3.1991  -24.0888  -51.9828 C.2       16 UNK         0.5000 
     93 O          -3.3674  -23.6173  -53.1053 O.2       16 UNK        -0.5000 
     94 N          -2.4110  -25.1533  -51.7618 N.am      17 UNK        -0.5000 
     95 CA         -1.6907  -25.8601  -52.8290 C.3       17 UNK         0.1400 
     96 CB         -1.1365  -27.1877  -52.2921 C.3       17 UNK        -0.1800 
     97 C          -0.5602  -25.0143  -53.4474 C.2       17 UNK         0.5000 
     98 O          -0.2937  -25.1297  -54.6436 O.2       17 UNK        -0.5000 
     99 N           0.0573  -24.1546  -52.6257 N.am      18 UNK        -0.5000 
    100 CA         1.1076  -23.2151  -53.0260 C.3       18 UNK         0.1400 
    101 CB         1.9964  -22.9233  -51.8055 C.3       18 UNK        -0.1800 
    102 C          0.5591  -21.9072  -53.6376 C.2       18 UNK         0.5000 
    103 O          1.3522  -21.0812  -54.0898 O.2       18 UNK        -0.5000 
    104 N         -0.7688  -21.7316  -53.6424 N.am      19 UNK        -0.5000 
    105 CA        -1.4706  -20.5615  -54.1686 C.3       19 UNK         0.1400 
    106 CB        -1.7918  -19.5914  -53.0162 C.3       19 UNK        -0.1800 
    107 C         -2.7204  -21.0129  -54.9420 C.2       19 UNK         0.5000 
    108 O         -3.7877  -20.4178  -54.7954 O.2       19 UNK        -0.5000 
    109 N         -2.5698  -22.0775  -55.7452 N.am      20 UNK        -0.5000 
    110 CA        -3.6564  -22.7856  -56.4325 C.3       20 UNK         0.1400 
    111 CB        -3.0730  -23.9921  -57.1823 C.3       20 UNK        -0.1800 
    112 C         -4.4973  -21.9097  -57.3809 C.2       20 UNK         0.5000 
    113 O         -5.6947  -22.1554  -57.5330 O.2       20 UNK        -0.5000 
    114 N         -3.8735  -20.8723  -57.9563 N.am      21 UNK        -0.5000 
    115 CA        -4.5184  -19.8511  -58.7853 C.3       21 UNK         0.1400 
    116 CB        -3.4344  -18.9404  -59.3816 C.3       21 UNK        -0.1800 
    117 C         -5.5741  -19.0108  -58.0345 C.2       21 UNK         0.5000 
    118 O         -6.4752  -18.4677  -58.6748 O.2       21 UNK        -0.5000 
    119 N         -5.4569  -18.9314  -56.7033 N.am      22 UNK        -0.5000 
    120 CA        -6.4172  -18.2755  -55.8033 C.3       22 UNK         0.1400 
    121 C         -7.5757  -19.2121  -55.3462 C.2       22 UNK         0.5000 
    122 N         -7.6242  -20.4775  -55.7515 N.am      22 UNK        -0.7600 
    123 O         -8.4662  -18.7761  -54.6215 O.2       22 UNK        -0.5000 
    124 C124       -5.7056  -17.6196  -54.5904 C.3       23 UNK        -0.0398 
    125 S125       -4.4696  -16.3760  -55.1034 S.3       23 UNK        -0.2404 
    126 C126       -4.4852  -15.2372  -53.6844 C.3       23 UNK        -0.0205 
    127 H127        2.3807  -10.5834  -48.4477 H         1 UNK         0.0600 
    128 H128        2.8639  -11.1969  -46.8617 H         1 UNK         0.0600 
    129 H129        1.2768  -11.6043  -47.5280 H         1 UNK         0.0600 
    130 H130        1.4177  -13.8541  -47.7914 H         1 UNK         0.3000 
    131 H131        3.7874  -15.1122  -48.9922 H         1 UNK         0.0600 
    132 H132        2.3813  -16.2382  -50.7497 H         1 UNK         0.0800 
    133 H133        2.7043  -14.5553  -51.0071 H         1 UNK         0.0800 
    134 H134        0.0795  -17.2525  -50.5542 H         1 UNK         0.0800 
    135 H135        0.1704  -16.6288  -52.1843 H         1 UNK         0.0800 
    136 H136       -1.8192  -15.4679  -53.2032 H         1 UNK         0.1150 
    137 H137       -5.6406  -16.3516  -51.4675 H         1 UNK         0.1150 
    138 H138       -2.0419  -17.3443  -49.3583 H         1 UNK         0.1150 
    139 H139       -4.1548  -17.4973  -48.2373 H         1 UNK         0.0800 
    140 H140       -5.6049  -16.8262  -48.9403 H         1 UNK         0.0800 
    141 H141       -6.3884  -20.3870  -47.7849 H         1 UNK         0.0800 
    142 H142       -5.3282  -19.1757  -47.1130 H         1 UNK         0.0800 
    143 H143       -4.4439  -21.7116  -48.5612 H         1 UNK         0.0600 
    144 H144       -2.8722  -19.4324  -47.9142 H         1 UNK         0.3000 
    145 H145        0.2752  -21.0417  -47.8042 H         1 UNK         0.0600 
    146 H146        0.8057  -19.6618  -49.7826 H         1 UNK         0.0600 
    147 H147       -0.2289  -20.9989  -50.2665 H         1 UNK         0.0600 
    148 H148       -0.9112  -19.3943  -50.0920 H         1 UNK         0.0600 
    149 H149        0.0258  -18.3574  -47.8856 H         1 UNK         0.3000 
    150 H150        0.1533  -17.0282  -46.1145 H         1 UNK         0.0600 
    151 H151       -1.7446  -15.8708  -44.9582 H         1 UNK         0.0600 
    152 H152       -2.6080  -17.4016  -44.8448 H         1 UNK         0.0600 
    153 H153       -2.2763  -16.6874  -46.4177 H         1 UNK         0.0600 
    154 H154       -0.5988  -17.6569  -43.3786 H         1 UNK         0.3000 
    155 H155        1.9783  -19.5890  -42.4585 H         1 UNK         0.0600 
    156 H156        3.2157  -17.9024  -41.0276 H         1 UNK         0.0600 
    157 H157        2.8354  -16.6794  -42.2392 H         1 UNK         0.0600 
    158 H158        3.8295  -18.0669  -42.6615 H         1 UNK         0.0600 
    159 H159        0.6875  -17.4197  -40.9877 H         1 UNK         0.3000 
    160 H160       -2.3436  -19.1809  -40.5387 H         1 UNK         0.0600 
    161 H161       -0.1506  -18.8895  -38.4159 H         1 UNK         0.0600 
    162 H162       -0.9401  -20.4004  -38.8564 H         1 UNK         0.0600 
    163 H163       -1.8724  -19.1136  -38.1070 H         1 UNK         0.0600 
    164 H164       -1.4971  -16.9060  -39.1546 H         1 UNK         0.3000 
    165 H165       -2.0954  -14.4170  -41.6026 H         1 UNK         0.0600 
    166 H166       -3.8136  -15.3117  -39.2299 H         1 UNK         0.0600 
    167 H167       -3.7834  -13.6914  -39.9251 H         1 UNK         0.0600 
    168 H168       -4.3629  -15.0497  -40.8769 H         1 UNK         0.0600 
    169 H169       -0.5244  -13.8066  -40.2327 H         1 UNK         0.3000 
    170 H170        0.0201  -13.1874  -37.4034 H         1 UNK         0.0600 
    171 H171        0.2643  -15.1591  -35.9461 H         1 UNK         0.0600 
    172 H172        1.2692  -15.9743  -37.1366 H         1 UNK         0.0600 
    173 H173        1.8552  -14.5228  -36.3251 H         1 UNK         0.0600 
    174 H174        1.5891  -12.7516  -38.8937 H         1 UNK         0.3000 
    175 H175        2.9429  -12.7864  -40.5406 H         1 UNK         0.0600 
    176 H176        4.4252  -15.4575  -40.8208 H         1 UNK         0.0600 
    177 H177        5.0351  -13.8766  -41.3074 H         1 UNK         0.0600 
    178 H178        4.7520  -14.2270  -39.6093 H         1 UNK         0.0600 
    179 H179        3.0941  -14.5047  -42.7492 H         1 UNK         0.3000 
    180 H180        0.0377  -14.7260  -43.9410 H         1 UNK         0.0600 
    181 H181        0.1085  -13.1356  -45.8512 H         1 UNK         0.0600 
    182 H182        1.2455  -12.1113  -44.9701 H         1 UNK         0.0600 
    183 H183       -0.3916  -12.3341  -44.3740 H         1 UNK         0.0600 
    184 H184        1.5972  -15.7555  -45.0787 H         1 UNK         0.3000 
    185 H185        4.4220  -14.8504  -46.8513 H         1 UNK         0.0600 
    186 H186        4.4595  -16.8568  -44.5504 H         1 UNK         0.0600 
    187 H187        5.5016  -16.8915  -45.9687 H         1 UNK         0.0600 
    188 H188        5.6284  -15.5703  -44.8179 H         1 UNK         0.0600 
    189 H189        2.7382  -17.2050  -46.2110 H         1 UNK         0.3000 
    190 H190       -2.9584  -20.7394  -45.5591 H         1 UNK         0.3000 
    191 H191       -4.4583  -22.8264  -44.0257 H         1 UNK         0.0600 
    192 H192       -3.4621  -21.6574  -42.0385 H         1 UNK         0.0600 
    193 H193       -4.5136  -20.6031  -42.9730 H         1 UNK         0.0600 
    194 H194       -2.7657  -20.4437  -43.1059 H         1 UNK         0.0600 
    195 H195       -1.1853  -21.5450  -44.7827 H         1 UNK         0.3000 
    196 H196        0.2330  -23.5209  -43.3451 H         1 UNK         0.0600 
    197 H197        1.1691  -21.6409  -45.5788 H         1 UNK         0.0600 
    198 H198        1.1061  -21.2630  -43.8612 H         1 UNK         0.0600 
    199 H199        2.2176  -22.4894  -44.4475 H         1 UNK         0.0600 
    200 H200       -0.7562  -23.4370  -46.7701 H         1 UNK         0.3000 
    201 H201        0.5177  -26.1072  -47.2419 H         1 UNK         0.0600 
    202 H202        0.2768  -23.7418  -49.1806 H         1 UNK         0.0600 
    203 H203        1.0044  -25.3054  -49.5320 H         1 UNK         0.0600 
    204 H204        1.7619  -24.2317  -48.3691 H         1 UNK         0.0600 
    205 H205       -2.3356  -24.9477  -46.5344 H         1 UNK         0.3000 
    206 H206       -4.4871  -25.2747  -46.9987 H         1 UNK         0.0600 
    207 H207       -3.8014  -27.6518  -46.6036 H         1 UNK         0.0600 
    208 H208       -5.1651  -27.5390  -47.7027 H         1 UNK         0.0600 
    209 H209       -3.5583  -27.8705  -48.3362 H         1 UNK         0.0600 
    210 H210       -3.0409  -23.6821  -48.8799 H         1 UNK         0.3000 
    211 H211       -3.3278  -22.4511  -50.6590 H         1 UNK         0.0600 
    212 H212       -5.4071  -22.3113  -51.9019 H         1 UNK         0.0600 
    213 H213       -5.8248  -22.5621  -50.2172 H         1 UNK         0.0600 
    214 H214       -5.9286  -23.8974  -51.3609 H         1 UNK         0.0600 
    215 H215       -2.2901  -25.5070  -50.8178 H         1 UNK         0.3000 
    216 H216       -2.4054  -26.0896  -53.6225 H         1 UNK         0.0600 
    217 H217       -0.3651  -27.0275  -51.5379 H         1 UNK         0.0600 
    218 H218       -0.6897  -27.7752  -53.0951 H         1 UNK         0.0600 
    219 H219       -1.9242  -27.7937  -51.8438 H         1 UNK         0.0600 
    220 H220       -0.2311  -24.1305  -51.6592 H         1 UNK         0.3000 
    221 H221        1.7320  -23.6866  -53.7878 H         1 UNK         0.0600 
    222 H222        2.4360  -23.8394  -51.4105 H         1 UNK         0.0600 
    223 H223        1.4378  -22.4469  -51.0010 H         1 UNK         0.0600 
    224 H224        2.8206  -22.2591  -52.0692 H         1 UNK         0.0600 
    225 H225       -1.3636  -22.4804  -53.3111 H         1 UNK         0.3000 
    226 H226       -0.8413  -20.0379  -54.8909 H         1 UNK         0.0600 
    227 H227       -2.4183  -20.0601  -52.2562 H         1 UNK         0.0600 
    228 H228       -0.8791  -19.2424  -52.5343 H         1 UNK         0.0600 
    229 H229       -2.3208  -18.7091  -53.3793 H         1 UNK         0.0600 
    230 H230       -1.6569  -22.5053  -55.7997 H         1 UNK         0.3000 
    231 H231       -4.3331  -23.1607  -55.6625 H         1 UNK         0.0600 
    232 H232       -2.3523  -23.6843  -57.9401 H         1 UNK         0.0600 
    233 H233       -3.8581  -24.5583  -57.6850 H         1 UNK         0.0600 
    234 H234       -2.5705  -24.6748  -56.4972 H         1 UNK         0.0600 
    235 H235       -2.8918  -20.7432  -57.7615 H         1 UNK         0.3000 
    236 H236       -5.0289  -20.3610  -59.6050 H         1 UNK         0.0600 
    237 H237       -2.7248  -19.5106  -59.9814 H         1 UNK         0.0600 
    238 H238       -3.8742  -18.1841  -60.0326 H         1 UNK         0.0600 
    239 H239       -2.8764  -18.4181  -58.6032 H         1 UNK         0.0600 
    240 H240       -4.7104  -19.4369  -56.2369 H         1 UNK         0.3000 
    241 H241       -6.9046  -17.4695  -56.3546 H         1 UNK         0.0600 
    242 H242       -8.3876  -21.0616  -55.4497 H         1 UNK         0.3800 
    243 H243       -6.9126  -20.8619  -56.3604 H         1 UNK         0.3800 
    244 H244       -5.2112  -18.3712  -53.9737 H         1 UNK         0.0800 
    245 H245       -6.4380  -17.1316  -53.9451 H         1 UNK         0.0800 
    246 H246       -5.5108  -14.9446  -53.4527 H         1 UNK         0.0800 
    247 H247       -3.9658  -14.3197  -53.9660 H         1 UNK         0.0800 
@<TRIPOS>BOND
     1    1    2 1    
     2    1  127 1    
     3    1  128 1    
     4    1  129 1    
     5    2    3 2    
     6    2    4 am   BACKBONE|DICT|INTERRES
     7    4    5 1    
     8    4  130 1    
     9    5    6 1    
    10    5   65 1    
    11    5  131 1    
    12    6    7 1    
    13    6  132 1    
    14    6  133 1    
    15    7    8 1    
    16    8    9 1    
    17    8  134 1    
    18    8  135 1    
    19    9   10 ar   
    20    9   14 ar   
    21   10   11 ar   
    22   10  136 1    
    23   11   12 ar   
    24   11  126 1    
    25   12   13 ar   
    26   12  137 1    
    27   13   14 ar   
    28   13   15 1    
    29   14  138 1    
    30   15   16 1    
    31   15  139 1    
    32   15  140 1    
    33   16   17 1    
    34   17   18 1    
    35   17  141 1    
    36   17  142 1    
    37   18   19 1    
    38   18   67 1    
    39   18  143 1    
    40   19   20 am   BACKBONE|DICT|INTERRES
    41   19  144 1    
    42   20   21 2    
    43   20   22 1    
    44   22   23 1    
    45   22   24 1    
    46   22  145 1    
    47   23  146 1    
    48   23  147 1    
    49   23  148 1    
    50   24   25 am   BACKBONE|DICT|INTERRES
    51   24  149 1    
    52   25   26 2    
    53   25   27 1    
    54   27   28 1    
    55   27   29 1    
    56   27  150 1    
    57   28  151 1    
    58   28  152 1    
    59   28  153 1    
    60   29   30 am   BACKBONE|DICT|INTERRES
    61   29  154 1    
    62   30   31 2    
    63   30   32 1    
    64   32   33 1    
    65   32   34 1    
    66   32  155 1    
    67   33  156 1    
    68   33  157 1    
    69   33  158 1    
    70   34   35 am   BACKBONE|DICT|INTERRES
    71   34  159 1    
    72   35   36 2    
    73   35   37 1    
    74   37   38 1    
    75   37   39 1    
    76   37  160 1    
    77   38  161 1    
    78   38  162 1    
    79   38  163 1    
    80   39   40 am   BACKBONE|DICT|INTERRES
    81   39  164 1    
    82   40   41 2    
    83   40   42 1    
    84   42   43 1    
    85   42   44 1    
    86   42  165 1    
    87   43  166 1    
    88   43  167 1    
    89   43  168 1    
    90   44   45 am   BACKBONE|DICT|INTERRES
    91   44  169 1    
    92   45   46 2    
    93   45   47 1    
    94   47   48 1    
    95   47   49 1    
    96   47  170 1    
    97   48  171 1    
    98   48  172 1    
    99   48  173 1    
   100   49   50 am   BACKBONE|DICT|INTERRES
   101   49  174 1    
   102   50   51 2    
   103   50   52 1    
   104   52   53 1    
   105   52   54 1    
   106   52  175 1    
   107   53  176 1    
   108   53  177 1    
   109   53  178 1    
   110   54   55 am   BACKBONE|DICT|INTERRES
   111   54  179 1    
   112   55   56 2    
   113   55   57 1    
   114   57   58 1    
   115   57   59 1    
   116   57  180 1    
   117   58  181 1    
   118   58  182 1    
   119   58  183 1    
   120   59   60 am   BACKBONE|DICT|INTERRES
   121   59  184 1    
   122   60   61 2    
   123   60   62 1    
   124   62   63 1    
   125   62   64 1    
   126   62  185 1    
   127   63  186 1    
   128   63  187 1    
   129   63  188 1    
   130   64   65 am   BACKBONE|DICT|INTERRES
   131   64  189 1    
   132   65   66 2    
   133   67   68 2    
   134   67   69 am   BACKBONE|DICT|INTERRES
   135   69   70 1    
   136   69  190 1    
   137   70   71 1    
   138   70   72 1    
   139   70  191 1    
   140   71  192 1    
   141   71  193 1    
   142   71  194 1    
   143   72   73 2    
   144   72   74 am   BACKBONE|DICT|INTERRES
   145   74   75 1    
   146   74  195 1    
   147   75   76 1    
   148   75   77 1    
   149   75  196 1    
   150   76  197 1    
   151   76  198 1    
   152   76  199 1    
   153   77   78 2    
   154   77   79 am   BACKBONE|DICT|INTERRES
   155   79   80 1    
   156   79  200 1    
   157   80   81 1    
   158   80   82 1    
   159   80  201 1    
   160   81  202 1    
   161   81  203 1    
   162   81  204 1    
   163   82   83 2    
   164   82   84 am   BACKBONE|DICT|INTERRES
   165   84   85 1    
   166   84  205 1    
   167   85   86 1    
   168   85   87 1    
   169   85  206 1    
   170   86  207 1    
   171   86  208 1    
   172   86  209 1    
   173   87   88 2    
   174   87   89 am   BACKBONE|DICT|INTERRES
   175   89   90 1    
   176   89  210 1    
   177   90   91 1    
   178   90   92 1    
   179   90  211 1    
   180   91  212 1    
   181   91  213 1    
   182   91  214 1    
   183   92   93 2    
   184   92   94 am   BACKBONE|DICT|INTERRES
   185   94   95 1    
   186   94  215 1    
   187   95   96 1    
   188   95   97 1    
   189   95  216 1    
   190   96  217 1    
   191   96  218 1    
   192   96  219 1    
   193   97   98 2    
   194   97   99 am   BACKBONE|DICT|INTERRES
   195   99  100 1    
   196   99  220 1    
   197  100  101 1    
   198  100  102 1    
   199  100  221 1    
   200  101  222 1    
   201  101  223 1    
   202  101  224 1    
   203  102  103 2    
   204  102  104 am   BACKBONE|DICT|INTERRES
   205  104  105 1    
   206  104  225 1    
   207  105  106 1    
   208  105  107 1    
   209  105  226 1    
   210  106  227 1    
   211  106  228 1    
   212  106  229 1    
   213  107  108 2    
   214  107  109 am   BACKBONE|DICT|INTERRES
   215  109  110 1    
   216  109  230 1    
   217  110  111 1    
   218  110  112 1    
   219  110  231 1    
   220  111  232 1    
   221  111  233 1    
   222  111  234 1    
   223  112  113 2    
   224  112  114 am   BACKBONE|DICT|INTERRES
   225  114  115 1    
   226  114  235 1    
   227  115  116 1    
   228  115  117 1    
   229  115  236 1    
   230  116  237 1    
   231  116  238 1    
   232  116  239 1    
   233  117  118 2    
   234  117  119 am   BACKBONE|DICT|INTERRES
   235  119  120 1    
   236  119  240 1    
   237  120  121 1    
   238  120  124 1    
   239  120  241 1    
   240  121  122 am   BACKBONE|DICT|INTERRES
   241  121  123 2    
   242  122  242 1    
   243  122  243 1    
   244  124  125 1    
   245  124  244 1    
   246  124  245 1    
   247  125  126 1    
   248  126  246 1    
   249  126  247 1    
@<TRIPOS>SUBSTRUCTURE
     1 UNK         1 GROUP             0       ****    0 ROOT    
