@<TRIPOS>MOLECULE
3R540
247   249    1
SMALL
USER_CHARGES


@<TRIPOS>ATOM
      1 CA          3.2154   -9.4405  -49.6581 C.3       0 UNK        -0.1800 
      2 C           2.9928  -10.8678  -49.1790 C.2       0 UNK         0.5000 
      3 O           3.2750  -11.1782  -48.0209 O.2       0 UNK        -0.5000 
      4 N           2.4758  -11.7369  -50.0569 N.am      1 UNK        -0.5000 
      5 CA          2.1772  -13.1507  -49.7926 C.3       1 UNK         0.1400 
      6 C6          2.2637  -13.9928  -51.0981 C.3       23 UNK        -0.0398 
      7 S7          3.0276  -15.6285  -50.8440 S.3       23 UNK        -0.2404 
      8 C8          1.5747  -16.7088  -50.6612 C.3       23 UNK        -0.0205 
      9 C9          1.9695  -18.1717  -50.8024 C.ar      23 UNK        -0.0193 
     10 C10         1.6045  -18.8965  -51.9427 C.ar      23 UNK        -0.1150 
     11 C11         1.9770  -20.2373  -52.0884 C.ar      23 UNK        -0.0193 
     12 C12         2.7434  -20.8393  -51.0838 C.ar      23 UNK        -0.1150 
     13 C13         3.1030  -20.1344  -49.9347 C.ar      23 UNK        -0.0193 
     14 C14         2.7100  -18.8003  -49.7965 C.ar      23 UNK        -0.1150 
     15 C15         3.9320  -20.8219  -48.8594 C.3       23 UNK        -0.0205 
     16 S16         3.0685  -20.9205  -47.2631 S.3       23 UNK        -0.2404 
     17 C17         1.5663  -21.8906  -47.6432 C.3       23 UNK        -0.0398 
     18 CA          1.5372  -23.2766  -46.9493 C.3       11 UNK         0.1400 
     19 N           1.7523  -23.1510  -45.5039 N.am      11 UNK        -0.5000 
     20 C           2.1500  -24.1264  -44.6798 C.2       10 UNK         0.5000 
     21 O           2.4553  -25.2601  -45.0574 O.2       10 UNK        -0.5000 
     22 CA          2.2173  -23.7508  -43.1841 C.3       10 UNK         0.1400 
     23 CB          2.7888  -24.8733  -42.2927 C.3       10 UNK        -0.1800 
     24 N           2.9191  -22.4851  -42.9490 N.am      10 UNK        -0.5000 
     25 C           4.2020  -22.1939  -43.2116 C.2       9 UNK         0.5000 
     26 O           5.0068  -23.0006  -43.6794 O.2       9 UNK        -0.5000 
     27 CA          4.6836  -20.7611  -42.8943 C.3       9 UNK         0.1400 
     28 CB          4.9923  -19.9903  -44.1864 C.3       9 UNK        -0.1800 
     29 N           3.7334  -19.9773  -42.1024 N.am      9 UNK        -0.5000 
     30 C           3.5247  -20.1116  -40.7864 C.2       8 UNK         0.5000 
     31 O           4.1549  -20.8893  -40.0692 O.2       8 UNK        -0.5000 
     32 CA          2.3945  -19.2570  -40.1782 C.3       8 UNK         0.1400 
     33 CB          2.9004  -17.8512  -39.8207 C.3       8 UNK        -0.1800 
     34 N           1.2261  -19.1493  -41.0568 N.am      8 UNK        -0.5000 
     35 C           0.4449  -20.1824  -41.4044 C.2       7 UNK         0.5000 
     36 O           0.6070  -21.3306  -40.9911 O.2       7 UNK        -0.5000 
     37 CA         -0.6741  -19.9048  -42.4216 C.3       7 UNK         0.1400 
     38 CB         -1.9064  -19.2914  -41.7414 C.3       7 UNK        -0.1800 
     39 N          -0.2330  -19.0479  -43.5215 N.am      7 UNK        -0.5000 
     40 C           0.6654  -19.4108  -44.4465 C.2       6 UNK         0.5000 
     41 O           1.1485  -20.5403  -44.5062 O.2       6 UNK        -0.5000 
     42 CA          1.1335  -18.3290  -45.4405 C.3       6 UNK         0.1400 
     43 CB          0.1842  -18.2219  -46.6413 C.3       6 UNK        -0.1800 
     44 N           1.2787  -17.0124  -44.8241 N.am      6 UNK        -0.5000 
     45 C           2.1527  -16.7162  -43.8533 C.2       5 UNK         0.5000 
     46 O           2.9631  -17.5185  -43.3933 O.2       5 UNK        -0.5000 
     47 CA          2.0634  -15.3025  -43.2560 C.3       5 UNK         0.1400 
     48 CB          2.7900  -14.2777  -44.1409 C.3       5 UNK        -0.1800 
     49 N           0.6739  -14.8916  -43.0566 N.am      5 UNK        -0.5000 
     50 C          -0.1470  -15.4304  -42.1436 C.2       4 UNK         0.5000 
     51 O           0.1990  -16.2949  -41.3378 O.2       4 UNK        -0.5000 
     52 CA         -1.6110  -14.9529  -42.1699 C.3       4 UNK         0.1400 
     53 CB         -1.7631  -13.6242  -41.4148 C.3       4 UNK        -0.1800 
     54 N          -2.1243  -14.7997  -43.5331 N.am      4 UNK        -0.5000 
     55 C          -2.3168  -15.8180  -44.3839 C.2       3 UNK         0.5000 
     56 O          -2.1237  -16.9948  -44.0891 O.2       3 UNK        -0.5000 
     57 CA         -2.7427  -15.4602  -45.8188 C.3       3 UNK         0.1400 
     58 CB         -4.2702  -15.4017  -45.9362 C.3       3 UNK        -0.1800 
     59 N          -2.1631  -14.2051  -46.3032 N.am      3 UNK        -0.5000 
     60 C          -0.8517  -14.0043  -46.4835 C.2       2 UNK         0.5000 
     61 O           0.0126  -14.8374  -46.2037 O.2       2 UNK        -0.5000 
     62 CA         -0.4373  -12.6185  -47.0050 C.3       2 UNK         0.1400 
     63 CB         -0.1484  -11.6756  -45.8266 C.3       2 UNK        -0.1800 
     64 N           0.7461  -12.6738  -47.8613 N.am      2 UNK        -0.5000 
     65 C           0.8256  -13.2864  -49.0497 C.2       1 UNK         0.5000 
     66 O          -0.1233  -13.8738  -49.5726 O.2       1 UNK        -0.5000 
     67 C           0.2226  -24.0366  -47.2685 C.2       11 UNK         0.5000 
     68 O          -0.4772  -24.4896  -46.3582 O.2       11 UNK        -0.5000 
     69 N          -0.0890  -24.1655  -48.5671 N.am      12 UNK        -0.5000 
     70 CA         -1.3047  -24.7869  -49.1004 C.3       12 UNK         0.1400 
     71 CB         -1.0122  -25.2644  -50.5378 C.3       12 UNK        -0.1800 
     72 C          -2.5382  -23.8552  -48.9917 C.2       12 UNK         0.5000 
     73 O          -2.7250  -23.1982  -47.9668 O.2       12 UNK        -0.5000 
     74 N          -3.3662  -23.7962  -50.0465 N.am      13 UNK        -0.5000 
     75 CA         -4.6074  -23.0117  -50.1404 C.3       13 UNK         0.1400 
     76 CB         -5.2729  -23.2940  -51.4966 C.3       13 UNK        -0.1800 
     77 C          -4.4397  -21.4950  -49.9002 C.2       13 UNK         0.5000 
     78 O          -5.3999  -20.8318  -49.5027 O.2       13 UNK        -0.5000 
     79 N          -3.2081  -20.9948  -50.0713 N.am      14 UNK        -0.5000 
     80 CA         -2.7324  -19.6717  -49.6681 C.3       14 UNK         0.1400 
     81 CB         -1.2123  -19.6121  -49.8883 C.3       14 UNK        -0.1800 
     82 C          -3.0463  -19.3233  -48.1994 C.2       14 UNK         0.5000 
     83 O          -3.4479  -18.1950  -47.9194 O.2       14 UNK        -0.5000 
     84 N          -2.8995  -20.3058  -47.2967 N.am      15 UNK        -0.5000 
     85 CA         -3.1648  -20.1709  -45.8617 C.3       15 UNK         0.1400 
     86 CB         -2.6363  -21.4178  -45.1381 C.3       15 UNK        -0.1800 
     87 C          -4.6539  -19.9584  -45.5304 C.2       15 UNK         0.5000 
     88 O          -4.9693  -19.3533  -44.5063 O.2       15 UNK        -0.5000 
     89 N          -5.5400  -20.4513  -46.4049 N.am      16 UNK        -0.5000 
     90 CA         -6.9899  -20.2895  -46.3069 C.3       16 UNK         0.1400 
     91 CB         -7.6600  -21.5393  -46.9030 C.3       16 UNK        -0.1800 
     92 C          -7.4894  -19.0156  -47.0172 C.2       16 UNK         0.5000 
     93 O          -8.6852  -18.7289  -46.9490 O.2       16 UNK        -0.5000 
     94 N          -6.5866  -18.2988  -47.7087 N.am      17 UNK        -0.5000 
     95 CA         -6.8423  -17.1529  -48.5909 C.3       17 UNK         0.1400 
     96 CB         -7.4356  -15.9665  -47.7999 C.3       17 UNK        -0.1800 
     97 C          -7.7038  -17.5221  -49.8201 C.2       17 UNK         0.5000 
     98 O          -8.3884  -16.6579  -50.3717 O.2       17 UNK        -0.5000 
     99 N          -7.6774  -18.8010  -50.2154 N.am      18 UNK        -0.5000 
    100 CA        -8.4900  -19.3515  -51.2943 C.3       18 UNK         0.1400 
    101 CB        -8.7497  -20.8358  -50.9944 C.3       18 UNK        -0.1800 
    102 C         -7.8147  -19.1713  -52.6641 C.2       18 UNK         0.5000 
    103 O         -6.5918  -19.0237  -52.7446 O.2       18 UNK        -0.5000 
    104 N         -8.6344  -19.2143  -53.7226 N.am      19 UNK        -0.5000 
    105 CA        -8.1974  -19.2259  -55.1194 C.3       19 UNK         0.1400 
    106 CB        -9.4251  -19.0581  -56.0280 C.3       19 UNK        -0.1800 
    107 C         -7.4412  -20.5235  -55.4627 C.2       19 UNK         0.5000 
    108 O         -7.7245  -21.5674  -54.8692 O.2       19 UNK        -0.5000 
    109 N         -6.5025  -20.4246  -56.4162 N.am      20 UNK        -0.5000 
    110 CA        -5.5313  -21.4594  -56.7961 C.3       20 UNK         0.1400 
    111 CB        -6.2259  -22.6766  -57.4430 C.3       20 UNK        -0.1800 
    112 C         -4.6338  -21.8293  -55.5973 C.2       20 UNK         0.5000 
    113 O         -4.5934  -22.9870  -55.1773 O.2       20 UNK        -0.5000 
    114 N         -3.9553  -20.8020  -55.0638 N.am      21 UNK        -0.5000 
    115 CA        -3.1948  -20.7709  -53.8083 C.3       21 UNK         0.1400 
    116 CB        -2.4729  -19.4175  -53.7225 C.3       21 UNK        -0.1800 
    117 C         -2.1984  -21.9263  -53.5797 C.2       21 UNK         0.5000 
    118 O         -1.9936  -22.3199  -52.4317 O.2       21 UNK        -0.5000 
    119 N         -1.6292  -22.4567  -54.6662 N.am      22 UNK        -0.5000 
    120 CA        -0.8000  -23.6714  -54.6976 C.3       22 UNK         0.1400 
    121 C         -1.2299  -24.6251  -55.8521 C.2       22 UNK         0.5000 
    122 N         -2.4852  -24.6066  -56.2853 N.am      22 UNK        -0.7600 
    123 O         -0.4298  -25.4046  -56.3624 O.2       22 UNK        -0.5000 
    124 C124        0.7182  -23.3426  -54.6988 C.3       23 UNK        -0.0398 
    125 S125        1.2964  -22.7850  -53.0639 S.3       23 UNK        -0.2404 
    126 C126        1.5690  -21.0024  -53.3470 C.3       23 UNK        -0.0205 
    127 H127        2.9208   -9.3115  -50.7000 H         1 UNK         0.0600 
    128 H128        4.2686   -9.1746  -49.5670 H         1 UNK         0.0600 
    129 H129        2.6334   -8.7466  -49.0514 H         1 UNK         0.0600 
    130 H130        2.2295  -11.4073  -50.9797 H         1 UNK         0.3000 
    131 H131        2.9437  -13.5192  -49.1069 H         1 UNK         0.0600 
    132 H132        1.3068  -14.0867  -51.6138 H         1 UNK         0.0800 
    133 H133        2.9124  -13.4896  -51.8167 H         1 UNK         0.0800 
    134 H134        0.8230  -16.4447  -51.4065 H         1 UNK         0.0800 
    135 H135        1.1164  -16.5418  -49.6852 H         1 UNK         0.0800 
    136 H136        1.0298  -18.4146  -52.7212 H         1 UNK         0.1150 
    137 H137        3.0645  -21.8651  -51.1906 H         1 UNK         0.1150 
    138 H138        2.9926  -18.2470  -48.9118 H         1 UNK         0.1150 
    139 H139        4.2193  -21.8288  -49.1663 H         1 UNK         0.0800 
    140 H140        4.8608  -20.2669  -48.7218 H         1 UNK         0.0800 
    141 H141        1.4776  -21.9934  -48.7244 H         1 UNK         0.0800 
    142 H142        0.7033  -21.3070  -47.3247 H         1 UNK         0.0800 
    143 H143        2.3560  -23.8726  -47.3577 H         1 UNK         0.0600 
    144 H144        1.5461  -22.2358  -45.1082 H         1 UNK         0.3000 
    145 H145        1.1858  -23.5823  -42.8708 H         1 UNK         0.0600 
    146 H146        2.7925  -24.5782  -41.2434 H         1 UNK         0.0600 
    147 H147        2.1858  -25.7784  -42.3730 H         1 UNK         0.0600 
    148 H148        3.8095  -25.1362  -42.5714 H         1 UNK         0.0600 
    149 H149        2.3411  -21.7349  -42.5942 H         1 UNK         0.3000 
    150 H150        5.6122  -20.8540  -42.3277 H         1 UNK         0.0600 
    151 H151        5.6746  -20.5466  -44.8302 H         1 UNK         0.0600 
    152 H152        5.4588  -19.0293  -43.9691 H         1 UNK         0.0600 
    153 H153        4.0843  -19.7959  -44.7562 H         1 UNK         0.0600 
    154 H154        3.2236  -19.2529  -42.6015 H         1 UNK         0.3000 
    155 H155        2.0727  -19.7441  -39.2554 H         1 UNK         0.0600 
    156 H156        3.7478  -17.9040  -39.1363 H         1 UNK         0.0600 
    157 H157        2.1222  -17.2652  -39.3314 H         1 UNK         0.0600 
    158 H158        3.2258  -17.3018  -40.7040 H         1 UNK         0.0600 
    159 H159        1.0046  -18.2252  -41.4114 H         1 UNK         0.3000 
    160 H160       -0.9639  -20.8688  -42.8409 H         1 UNK         0.0600 
    161 H161       -1.6913  -18.3053  -41.3296 H         1 UNK         0.0600 
    162 H162       -2.2560  -19.9216  -40.9230 H         1 UNK         0.0600 
    163 H163       -2.7319  -19.1860  -42.4459 H         1 UNK         0.0600 
    164 H164       -0.6638  -18.1301  -43.5861 H         1 UNK         0.3000 
    165 H165        2.1171  -18.6205  -45.8096 H         1 UNK         0.0600 
    166 H166        0.5464  -17.4951  -47.3684 H         1 UNK         0.0600 
    167 H167        0.0904  -19.1748  -47.1565 H         1 UNK         0.0600 
    168 H168       -0.8150  -17.9194  -46.3352 H         1 UNK         0.0600 
    169 H169        0.6863  -16.2701  -45.1880 H         1 UNK         0.3000 
    170 H170        2.5575  -15.3186  -42.2822 H         1 UNK         0.0600 
    171 H171        3.8396  -14.5477  -44.2635 H         1 UNK         0.0600 
    172 H172        2.3524  -14.2135  -45.1373 H         1 UNK         0.0600 
    173 H173        2.7605  -13.2825  -43.6974 H         1 UNK         0.0600 
    174 H174        0.2972  -14.2301  -43.7183 H         1 UNK         0.3000 
    175 H175       -2.2161  -15.7064  -41.6611 H         1 UNK         0.0600 
    176 H176       -1.4003  -13.7148  -40.3900 H         1 UNK         0.0600 
    177 H177       -1.2012  -12.8204  -41.8923 H         1 UNK         0.0600 
    178 H178       -2.8081  -13.3183  -41.3623 H         1 UNK         0.0600 
    179 H179       -2.3091  -13.8607  -43.8529 H         1 UNK         0.3000 
    180 H180       -2.3882  -16.2558  -46.4746 H         1 UNK         0.0600 
    181 H181       -4.7190  -16.3463  -45.6241 H         1 UNK         0.0600 
    182 H182       -4.6965  -14.6107  -45.3183 H         1 UNK         0.0600 
    183 H183       -4.5717  -15.2267  -46.9688 H         1 UNK         0.0600 
    184 H184       -2.8132  -13.4700  -46.5411 H         1 UNK         0.3000 
    185 H185       -1.2580  -12.2048  -47.5944 H         1 UNK         0.0600 
    186 H186       -1.0169  -11.5833  -45.1731 H         1 UNK         0.0600 
    187 H187        0.6840  -12.0338  -45.2194 H         1 UNK         0.0600 
    188 H188        0.1007  -10.6734  -46.1761 H         1 UNK         0.0600 
    189 H189        1.5756  -12.1955  -47.5272 H         1 UNK         0.3000 
    190 H190        0.5301  -23.7696  -49.2586 H         1 UNK         0.3000 
    191 H191       -1.5309  -25.6701  -48.4999 H         1 UNK         0.0600 
    192 H192       -0.8061  -24.4287  -51.2075 H         1 UNK         0.0600 
    193 H193       -1.8464  -25.8319  -50.9520 H         1 UNK         0.0600 
    194 H194       -0.1443  -25.9238  -50.5604 H         1 UNK         0.0600 
    195 H195       -3.1109  -24.3121  -50.8760 H         1 UNK         0.3000 
    196 H196       -5.2765  -23.3726  -49.3570 H         1 UNK         0.0600 
    197 H197       -6.1560  -22.6755  -51.6490 H         1 UNK         0.0600 
    198 H198       -5.5920  -24.3338  -51.5667 H         1 UNK         0.0600 
    199 H199       -4.5987  -23.1004  -52.3289 H         1 UNK         0.0600 
    200 H200       -2.5192  -21.6133  -50.4836 H         1 UNK         0.3000 
    201 H201       -3.2172  -18.9342  -50.3105 H         1 UNK         0.0600 
    202 H202       -0.8304  -18.6068  -49.7069 H         1 UNK         0.0600 
    203 H203       -0.6813  -20.2906  -49.2202 H         1 UNK         0.0600 
    204 H204       -0.9365  -19.8903  -50.9033 H         1 UNK         0.0600 
    205 H205       -2.6455  -21.2359  -47.6180 H         1 UNK         0.3000 
    206 H206       -2.6193  -19.3012  -45.4920 H         1 UNK         0.0600 
    207 H207       -1.5605  -21.5316  -45.2742 H         1 UNK         0.0600 
    208 H208       -2.8327  -21.3586  -44.0678 H         1 UNK         0.0600 
    209 H209       -3.1171  -22.3270  -45.4996 H         1 UNK         0.0600 
    210 H210       -5.1964  -20.9004  -47.2439 H         1 UNK         0.3000 
    211 H211       -7.2820  -20.2165  -45.2573 H         1 UNK         0.0600 
    212 H212       -8.7440  -21.4930  -46.7918 H         1 UNK         0.0600 
    213 H213       -7.3223  -22.4459  -46.4007 H         1 UNK         0.0600 
    214 H214       -7.4464  -21.6457  -47.9669 H         1 UNK         0.0600 
    215 H215       -5.6241  -18.6124  -47.6886 H         1 UNK         0.3000 
    216 H216       -5.8683  -16.8460  -48.9746 H         1 UNK         0.0600 
    217 H217       -7.3812  -15.0459  -48.3817 H         1 UNK         0.0600 
    218 H218       -6.9010  -15.7959  -46.8672 H         1 UNK         0.0600 
    219 H219       -8.4843  -16.1308  -47.5505 H         1 UNK         0.0600 
    220 H220       -7.0200  -19.4364  -49.7778 H         1 UNK         0.3000 
    221 H221       -9.4533  -18.8371  -51.3175 H         1 UNK         0.0600 
    222 H222       -7.8193  -21.3868  -50.8704 H         1 UNK         0.0600 
    223 H223       -9.3274  -20.9539  -50.0774 H         1 UNK         0.0600 
    224 H224       -9.3124  -21.3128  -51.7979 H         1 UNK         0.0600 
    225 H225       -9.6192  -19.3717  -53.5670 H         1 UNK         0.3000 
    226 H226       -7.5276  -18.3770  -55.2724 H         1 UNK         0.0600 
    227 H227       -9.9501  -18.1266  -55.8151 H         1 UNK         0.0600 
    228 H228       -9.1340  -19.0326  -57.0789 H         1 UNK         0.0600 
    229 H229      -10.1326  -19.8791  -55.9040 H         1 UNK         0.0600 
    230 H230       -6.3694  -19.5258  -56.8589 H         1 UNK         0.3000 
    231 H231       -4.8795  -21.0178  -57.5514 H         1 UNK         0.0600 
    232 H232       -6.8437  -22.3738  -58.2883 H         1 UNK         0.0600 
    233 H233       -6.8622  -23.2119  -56.7380 H         1 UNK         0.0600 
    234 H234       -5.4888  -23.3880  -57.8174 H         1 UNK         0.0600 
    235 H235       -4.0716  -19.9023  -55.5064 H         1 UNK         0.3000 
    236 H236       -3.9260  -20.8141  -52.9991 H         1 UNK         0.0600 
    237 H237       -3.1831  -18.5904  -53.7392 H         1 UNK         0.0600 
    238 H238       -1.9027  -19.3277  -52.8007 H         1 UNK         0.0600 
    239 H239       -1.7759  -19.2811  -54.5503 H         1 UNK         0.0600 
    240 H240       -1.8746  -22.0779  -55.5692 H         1 UNK         0.3000 
    241 H241       -1.0072  -24.2594  -53.8016 H         1 UNK         0.0600 
    242 H242       -3.1923  -24.0370  -55.8265 H         1 UNK         0.3800 
    243 H243       -2.7567  -25.2321  -57.0272 H         1 UNK         0.3800 
    244 H244        1.3119  -24.2255  -54.9397 H         1 UNK         0.0800 
    245 H245        0.9548  -22.6020  -55.4640 H         1 UNK         0.0800 
    246 H246        0.6528  -20.5756  -53.7576 H         1 UNK         0.0800 
    247 H247        2.3455  -20.8736  -54.1019 H         1 UNK         0.0800 
@<TRIPOS>BOND
     1    1    2 1    
     2    1  127 1    
     3    1  128 1    
     4    1  129 1    
     5    2    3 2    
     6    2    4 am   BACKBONE|DICT|INTERRES
     7    4    5 1    
     8    4  130 1    
     9    5    6 1    
    10    5   65 1    
    11    5  131 1    
    12    6    7 1    
    13    6  132 1    
    14    6  133 1    
    15    7    8 1    
    16    8    9 1    
    17    8  134 1    
    18    8  135 1    
    19    9   10 ar   
    20    9   14 ar   
    21   10   11 ar   
    22   10  136 1    
    23   11   12 ar   
    24   11  126 1    
    25   12   13 ar   
    26   12  137 1    
    27   13   14 ar   
    28   13   15 1    
    29   14  138 1    
    30   15   16 1    
    31   15  139 1    
    32   15  140 1    
    33   16   17 1    
    34   17   18 1    
    35   17  141 1    
    36   17  142 1    
    37   18   19 1    
    38   18   67 1    
    39   18  143 1    
    40   19   20 am   BACKBONE|DICT|INTERRES
    41   19  144 1    
    42   20   21 2    
    43   20   22 1    
    44   22   23 1    
    45   22   24 1    
    46   22  145 1    
    47   23  146 1    
    48   23  147 1    
    49   23  148 1    
    50   24   25 am   BACKBONE|DICT|INTERRES
    51   24  149 1    
    52   25   26 2    
    53   25   27 1    
    54   27   28 1    
    55   27   29 1    
    56   27  150 1    
    57   28  151 1    
    58   28  152 1    
    59   28  153 1    
    60   29   30 am   BACKBONE|DICT|INTERRES
    61   29  154 1    
    62   30   31 2    
    63   30   32 1    
    64   32   33 1    
    65   32   34 1    
    66   32  155 1    
    67   33  156 1    
    68   33  157 1    
    69   33  158 1    
    70   34   35 am   BACKBONE|DICT|INTERRES
    71   34  159 1    
    72   35   36 2    
    73   35   37 1    
    74   37   38 1    
    75   37   39 1    
    76   37  160 1    
    77   38  161 1    
    78   38  162 1    
    79   38  163 1    
    80   39   40 am   BACKBONE|DICT|INTERRES
    81   39  164 1    
    82   40   41 2    
    83   40   42 1    
    84   42   43 1    
    85   42   44 1    
    86   42  165 1    
    87   43  166 1    
    88   43  167 1    
    89   43  168 1    
    90   44   45 am   BACKBONE|DICT|INTERRES
    91   44  169 1    
    92   45   46 2    
    93   45   47 1    
    94   47   48 1    
    95   47   49 1    
    96   47  170 1    
    97   48  171 1    
    98   48  172 1    
    99   48  173 1    
   100   49   50 am   BACKBONE|DICT|INTERRES
   101   49  174 1    
   102   50   51 2    
   103   50   52 1    
   104   52   53 1    
   105   52   54 1    
   106   52  175 1    
   107   53  176 1    
   108   53  177 1    
   109   53  178 1    
   110   54   55 am   BACKBONE|DICT|INTERRES
   111   54  179 1    
   112   55   56 2    
   113   55   57 1    
   114   57   58 1    
   115   57   59 1    
   116   57  180 1    
   117   58  181 1    
   118   58  182 1    
   119   58  183 1    
   120   59   60 am   BACKBONE|DICT|INTERRES
   121   59  184 1    
   122   60   61 2    
   123   60   62 1    
   124   62   63 1    
   125   62   64 1    
   126   62  185 1    
   127   63  186 1    
   128   63  187 1    
   129   63  188 1    
   130   64   65 am   BACKBONE|DICT|INTERRES
   131   64  189 1    
   132   65   66 2    
   133   67   68 2    
   134   67   69 am   BACKBONE|DICT|INTERRES
   135   69   70 1    
   136   69  190 1    
   137   70   71 1    
   138   70   72 1    
   139   70  191 1    
   140   71  192 1    
   141   71  193 1    
   142   71  194 1    
   143   72   73 2    
   144   72   74 am   BACKBONE|DICT|INTERRES
   145   74   75 1    
   146   74  195 1    
   147   75   76 1    
   148   75   77 1    
   149   75  196 1    
   150   76  197 1    
   151   76  198 1    
   152   76  199 1    
   153   77   78 2    
   154   77   79 am   BACKBONE|DICT|INTERRES
   155   79   80 1    
   156   79  200 1    
   157   80   81 1    
   158   80   82 1    
   159   80  201 1    
   160   81  202 1    
   161   81  203 1    
   162   81  204 1    
   163   82   83 2    
   164   82   84 am   BACKBONE|DICT|INTERRES
   165   84   85 1    
   166   84  205 1    
   167   85   86 1    
   168   85   87 1    
   169   85  206 1    
   170   86  207 1    
   171   86  208 1    
   172   86  209 1    
   173   87   88 2    
   174   87   89 am   BACKBONE|DICT|INTERRES
   175   89   90 1    
   176   89  210 1    
   177   90   91 1    
   178   90   92 1    
   179   90  211 1    
   180   91  212 1    
   181   91  213 1    
   182   91  214 1    
   183   92   93 2    
   184   92   94 am   BACKBONE|DICT|INTERRES
   185   94   95 1    
   186   94  215 1    
   187   95   96 1    
   188   95   97 1    
   189   95  216 1    
   190   96  217 1    
   191   96  218 1    
   192   96  219 1    
   193   97   98 2    
   194   97   99 am   BACKBONE|DICT|INTERRES
   195   99  100 1    
   196   99  220 1    
   197  100  101 1    
   198  100  102 1    
   199  100  221 1    
   200  101  222 1    
   201  101  223 1    
   202  101  224 1    
   203  102  103 2    
   204  102  104 am   BACKBONE|DICT|INTERRES
   205  104  105 1    
   206  104  225 1    
   207  105  106 1    
   208  105  107 1    
   209  105  226 1    
   210  106  227 1    
   211  106  228 1    
   212  106  229 1    
   213  107  108 2    
   214  107  109 am   BACKBONE|DICT|INTERRES
   215  109  110 1    
   216  109  230 1    
   217  110  111 1    
   218  110  112 1    
   219  110  231 1    
   220  111  232 1    
   221  111  233 1    
   222  111  234 1    
   223  112  113 2    
   224  112  114 am   BACKBONE|DICT|INTERRES
   225  114  115 1    
   226  114  235 1    
   227  115  116 1    
   228  115  117 1    
   229  115  236 1    
   230  116  237 1    
   231  116  238 1    
   232  116  239 1    
   233  117  118 2    
   234  117  119 am   BACKBONE|DICT|INTERRES
   235  119  120 1    
   236  119  240 1    
   237  120  121 1    
   238  120  124 1    
   239  120  241 1    
   240  121  122 am   BACKBONE|DICT|INTERRES
   241  121  123 2    
   242  122  242 1    
   243  122  243 1    
   244  124  125 1    
   245  124  244 1    
   246  124  245 1    
   247  125  126 1    
   248  126  246 1    
   249  126  247 1    
@<TRIPOS>SUBSTRUCTURE
     1 UNK         1 GROUP             0       ****    0 ROOT    
