@<TRIPOS>MOLECULE
3R540
247   249    1
SMALL
USER_CHARGES


@<TRIPOS>ATOM
      1 CA          6.3391  -12.4225  -46.4367 C.3       0 UNK        -0.1800 
      2 C           5.2077  -13.4380  -46.4852 C.2       0 UNK         0.5000 
      3 O           4.1564  -13.2144  -45.8868 O.2       0 UNK        -0.5000 
      4 N           5.4033  -14.5463  -47.2094 N.am      1 UNK        -0.5000 
      5 CA          4.4233  -15.6280  -47.3727 C.3       1 UNK         0.1400 
      6 C6          5.0502  -16.8739  -48.0443 C.3       23 UNK        -0.0398 
      7 S7          5.7522  -16.5541  -49.7053 S.3       23 UNK        -0.2404 
      8 C8          5.0213  -17.8898  -50.7034 C.3       23 UNK        -0.0205 
      9 C9          3.5209  -17.7272  -50.9029 C.ar      23 UNK        -0.0193 
     10 C10         3.0246  -16.8872  -51.9047 C.ar      23 UNK        -0.1150 
     11 C11         1.6483  -16.7772  -52.1375 C.ar      23 UNK        -0.0193 
     12 C12         0.7670  -17.5117  -51.3316 C.ar      23 UNK        -0.1150 
     13 C13         1.2517  -18.3491  -50.3250 C.ar      23 UNK        -0.0193 
     14 C14         2.6268  -18.4563  -50.1167 C.ar      23 UNK        -0.1150 
     15 C15         0.2908  -19.1578  -49.4757 C.3       23 UNK        -0.0205 
     16 S16         0.1708  -20.8691  -50.0791 S.3       23 UNK        -0.2404 
     17 C17        -1.0742  -21.5239  -48.9238 C.3       23 UNK        -0.0398 
     18 CA         -0.5946  -22.7726  -48.1462 C.3       11 UNK         0.1400 
     19 N           0.7012  -22.5789  -47.4878 N.am      11 UNK        -0.5000 
     20 C           1.3790  -23.5258  -46.8243 C.2       10 UNK         0.5000 
     21 O           0.9980  -24.6916  -46.7256 O.2       10 UNK        -0.5000 
     22 CA          2.6681  -23.0936  -46.0989 C.3       10 UNK         0.1400 
     23 CB          3.8937  -23.3917  -46.9748 C.3       10 UNK        -0.1800 
     24 N           2.7077  -21.6860  -45.6827 N.am      10 UNK        -0.5000 
     25 C           1.7946  -21.0626  -44.9244 C.2       9 UNK         0.5000 
     26 O           0.7401  -21.5864  -44.5544 O.2       9 UNK        -0.5000 
     27 CA          2.1036  -19.5952  -44.5720 C.3       9 UNK         0.1400 
     28 CB          1.8786  -18.6884  -45.7919 C.3       9 UNK        -0.1800 
     29 N           1.2771  -19.1050  -43.4720 N.am      9 UNK        -0.5000 
     30 C           1.3488  -19.5000  -42.1970 C.2       8 UNK         0.5000 
     31 O           2.2107  -20.2723  -41.7743 O.2       8 UNK        -0.5000 
     32 CA          0.2874  -18.9511  -41.2180 C.3       8 UNK         0.1400 
     33 CB          0.7477  -17.6157  -40.6028 C.3       8 UNK        -0.1800 
     34 N          -1.0861  -18.8441  -41.7413 N.am      8 UNK        -0.5000 
     35 C          -1.5567  -18.0644  -42.7248 C.2       7 UNK         0.5000 
     36 O          -0.8515  -17.3307  -43.4182 O.2       7 UNK        -0.5000 
     37 CA         -3.0743  -18.0996  -42.9539 C.3       7 UNK         0.1400 
     38 CB         -3.7870  -17.1517  -41.9764 C.3       7 UNK        -0.1800 
     39 N          -3.3698  -17.6710  -44.3179 N.am      7 UNK        -0.5000 
     40 C          -4.0960  -18.3572  -45.2077 C.2       6 UNK         0.5000 
     41 O          -4.6496  -19.4258  -44.9477 O.2       6 UNK        -0.5000 
     42 CA         -4.2598  -17.7618  -46.6230 C.3       6 UNK         0.1400 
     43 CB         -5.7365  -17.4553  -46.9248 C.3       6 UNK        -0.1800 
     44 N          -3.4836  -16.5466  -46.8667 N.am      6 UNK        -0.5000 
     45 C          -2.1627  -16.5002  -47.0754 C.2       5 UNK         0.5000 
     46 O          -1.4321  -17.4897  -47.0133 O.2       5 UNK        -0.5000 
     47 CA         -1.5578  -15.1281  -47.4338 C.3       5 UNK         0.1400 
     48 CB         -2.5869  -13.9760  -47.5667 C.3       5 UNK        -0.1800 
     49 N          -0.4949  -14.7466  -46.5084 N.am      5 UNK        -0.5000 
     50 C          -0.6182  -14.4418  -45.2086 C.2       4 UNK         0.5000 
     51 O          -1.6647  -14.5472  -44.5662 O.2       4 UNK        -0.5000 
     52 CA          0.6249  -13.8129  -44.5455 C.3       4 UNK         0.1400 
     53 CB          1.6233  -14.8837  -44.0833 C.3       4 UNK        -0.1800 
     54 N           1.3063  -12.8769  -45.4440 N.am      4 UNK        -0.5000 
     55 C           0.7795  -11.7320  -45.9049 C.2       3 UNK         0.5000 
     56 O          -0.2837  -11.2557  -45.5057 O.2       3 UNK        -0.5000 
     57 CA          1.5523  -11.0189  -47.0285 C.3       3 UNK         0.1400 
     58 CB          2.6632  -10.1229  -46.4584 C.3       3 UNK        -0.1800 
     59 N           2.1231  -11.9747  -47.9796 N.am      3 UNK        -0.5000 
     60 C           1.4230  -12.5942  -48.9423 C.2       2 UNK         0.5000 
     61 O           0.2371  -12.3686  -49.1750 O.2       2 UNK        -0.5000 
     62 CA          2.1657  -13.6465  -49.7885 C.3       2 UNK         0.1400 
     63 CB          2.7042  -13.0155  -51.0808 C.3       2 UNK        -0.1800 
     64 N           3.2741  -14.2721  -49.0691 N.am      2 UNK        -0.5000 
     65 C           3.1292  -15.1606  -48.0765 C.2       1 UNK         0.5000 
     66 O           2.0368  -15.5552  -47.6714 O.2       1 UNK        -0.5000 
     67 C          -1.6988  -23.2095  -47.1630 C.2       11 UNK         0.5000 
     68 O          -2.5790  -23.9758  -47.5541 O.2       11 UNK        -0.5000 
     69 N          -1.6378  -22.7249  -45.9140 N.am      12 UNK        -0.5000 
     70 CA         -2.5846  -23.0719  -44.8555 C.3       12 UNK         0.1400 
     71 CB         -2.4731  -22.0479  -43.7155 C.3       12 UNK        -0.1800 
     72 C          -2.3535  -24.5000  -44.3332 C.2       12 UNK         0.5000 
     73 O          -3.3202  -25.2130  -44.0655 O.2       12 UNK        -0.5000 
     74 N          -1.0778  -24.8994  -44.2305 N.am      13 UNK        -0.5000 
     75 CA         -0.6545  -26.2382  -43.8177 C.3       13 UNK         0.1400 
     76 CB          0.8393  -26.2117  -43.4584 C.3       13 UNK        -0.1800 
     77 C          -0.9412  -27.2974  -44.8973 C.2       13 UNK         0.5000 
     78 O          -1.3920  -28.3958  -44.5713 O.2       13 UNK        -0.5000 
     79 N          -0.6978  -26.9367  -46.1644 N.am      14 UNK        -0.5000 
     80 CA         -0.9571  -27.7695  -47.3403 C.3       14 UNK         0.1400 
     81 CB         -0.1625  -27.1988  -48.5262 C.3       14 UNK        -0.1800 
     82 C          -2.4507  -27.8709  -47.7095 C.2       14 UNK         0.5000 
     83 O          -2.8135  -28.7499  -48.4918 O.2       14 UNK        -0.5000 
     84 N          -3.2728  -26.9528  -47.1774 N.am      15 UNK        -0.5000 
     85 CA         -4.6889  -26.7261  -47.4950 C.3       15 UNK         0.1400 
     86 CB         -5.5550  -27.9462  -47.1197 C.3       15 UNK        -0.1800 
     87 C          -4.9077  -26.2488  -48.9490 C.2       15 UNK         0.5000 
     88 O          -5.9803  -26.4530  -49.5194 O.2       15 UNK        -0.5000 
     89 N          -3.8843  -25.5935  -49.5108 N.am      16 UNK        -0.5000 
     90 CA         -3.8843  -24.9760  -50.8350 C.3       16 UNK         0.1400 
     91 CB         -2.4446  -24.9590  -51.3706 C.3       16 UNK        -0.1800 
     92 C          -4.4546  -23.5473  -50.8087 C.2       16 UNK         0.5000 
     93 O          -4.7835  -23.0172  -51.8692 O.2       16 UNK        -0.5000 
     94 N          -4.5672  -22.9533  -49.6100 N.am      17 UNK        -0.5000 
     95 CA         -5.0059  -21.5809  -49.3273 C.3       17 UNK         0.1400 
     96 CB         -5.0101  -21.3769  -47.8047 C.3       17 UNK        -0.1800 
     97 C          -6.3677  -21.1668  -49.9203 C.2       17 UNK         0.5000 
     98 O          -6.6138  -19.9718  -50.0773 O.2       17 UNK        -0.5000 
     99 N          -7.2197  -22.1459  -50.2518 N.am      18 UNK        -0.5000 
    100 CA        -8.4853  -21.9448  -50.9588 C.3       18 UNK         0.1400 
    101 CB        -9.2891  -23.2533  -50.9178 C.3       18 UNK        -0.1800 
    102 C         -8.3033  -21.4693  -52.4164 C.2       18 UNK         0.5000 
    103 O         -9.1974  -20.8083  -52.9461 O.2       18 UNK        -0.5000 
    104 N         -7.1626  -21.8100  -53.0314 N.am      19 UNK        -0.5000 
    105 CA        -6.7801  -21.4062  -54.3832 C.3       19 UNK         0.1400 
    106 CB        -6.4514  -22.6584  -55.2126 C.3       19 UNK        -0.1800 
    107 C         -5.5778  -20.4520  -54.3326 C.2       19 UNK         0.5000 
    108 O         -5.6327  -19.3651  -54.9092 O.2       19 UNK        -0.5000 
    109 N         -4.5233  -20.8523  -53.6114 N.am      20 UNK        -0.5000 
    110 CA        -3.2947  -20.0905  -53.3958 C.3       20 UNK         0.1400 
    111 CB        -2.1299  -21.0786  -53.2002 C.3       20 UNK        -0.1800 
    112 C         -3.4607  -19.1288  -52.2051 C.2       20 UNK         0.5000 
    113 O         -2.7295  -19.2270  -51.2205 O.2       20 UNK        -0.5000 
    114 N         -4.4596  -18.2434  -52.2953 N.am      21 UNK        -0.5000 
    115 CA        -4.7833  -17.2705  -51.2567 C.3       21 UNK         0.1400 
    116 CB        -6.2030  -16.7249  -51.4816 C.3       21 UNK        -0.1800 
    117 C         -3.7446  -16.1393  -51.2030 C.2       21 UNK         0.5000 
    118 O         -3.1338  -15.9305  -50.1593 O.2       21 UNK        -0.5000 
    119 N         -3.5683  -15.4365  -52.3305 N.am      22 UNK        -0.5000 
    120 CA        -2.6684  -14.2773  -52.5057 C.3       22 UNK         0.1400 
    121 C         -3.0612  -12.9980  -51.7008 C.2       22 UNK         0.5000 
    122 N         -4.2299  -12.9330  -51.0744 N.am      22 UNK        -0.7600 
    123 O         -2.3192  -12.0201  -51.6891 O.2       22 UNK        -0.5000 
    124 C124       -1.1635  -14.6386  -52.3461 C.3       23 UNK        -0.0398 
    125 S125       -0.6186  -15.8417  -53.6048 S.3       23 UNK        -0.2404 
    126 C126        1.1811  -15.8861  -53.2917 C.3       23 UNK        -0.0205 
    127 H127        6.6665  -12.2768  -45.4074 H         1 UNK         0.0600 
    128 H128        5.9979  -11.4632  -46.8259 H         1 UNK         0.0600 
    129 H129        7.1981  -12.7440  -47.0260 H         1 UNK         0.0600 
    130 H130        6.2799  -14.6767  -47.6949 H         1 UNK         0.3000 
    131 H131        4.1268  -15.9297  -46.3657 H         1 UNK         0.0600 
    132 H132        5.8577  -17.2517  -47.4157 H         1 UNK         0.0800 
    133 H133        4.3219  -17.6826  -48.0841 H         1 UNK         0.0800 
    134 H134        5.2453  -18.8517  -50.2393 H         1 UNK         0.0800 
    135 H135        5.5132  -17.9055  -51.6770 H         1 UNK         0.0800 
    136 H136        3.7176  -16.3323  -52.5217 H         1 UNK         0.1150 
    137 H137       -0.3012  -17.4612  -51.4847 H         1 UNK         0.1150 
    138 H138        2.9970  -19.1257  -49.3536 H         1 UNK         0.1150 
    139 H139        0.6223  -19.1532  -48.4378 H         1 UNK         0.0800 
    140 H140       -0.6986  -18.6968  -49.4844 H         1 UNK         0.0800 
    141 H141       -1.9594  -21.7639  -49.5139 H         1 UNK         0.0800 
    142 H142       -1.3787  -20.7338  -48.2339 H         1 UNK         0.0800 
    143 H143       -0.4630  -23.5853  -48.8628 H         1 UNK         0.0600 
    144 H144        1.0915  -21.6501  -47.5305 H         1 UNK         0.3000 
    145 H145        2.7409  -23.6987  -45.1931 H         1 UNK         0.0600 
    146 H146        4.8216  -23.2002  -46.4357 H         1 UNK         0.0600 
    147 H147        3.9097  -24.4383  -47.2826 H         1 UNK         0.0600 
    148 H148        3.8978  -22.7832  -47.8802 H         1 UNK         0.0600 
    149 H149        3.5347  -21.1746  -45.9545 H         1 UNK         0.3000 
    150 H150        3.1507  -19.5288  -44.2699 H         1 UNK         0.0600 
    151 H151        0.8299  -18.6771  -46.0901 H         1 UNK         0.0600 
    152 H152        2.4650  -19.0142  -46.6514 H         1 UNK         0.0600 
    153 H153        2.1706  -17.6618  -45.5775 H         1 UNK         0.0600 
    154 H154        0.5303  -18.4562  -43.7101 H         1 UNK         0.3000 
    155 H155        0.2271  -19.6749  -40.4037 H         1 UNK         0.0600 
    156 H156        0.8304  -16.8284  -41.3518 H         1 UNK         0.0600 
    157 H157        1.7261  -17.7202  -40.1322 H         1 UNK         0.0600 
    158 H158        0.0528  -17.2755  -39.8351 H         1 UNK         0.0600 
    159 H159       -1.7540  -19.4286  -41.2584 H         1 UNK         0.3000 
    160 H160       -3.4244  -19.1188  -42.7801 H         1 UNK         0.0600 
    161 H161       -3.4524  -16.1209  -42.1023 H         1 UNK         0.0600 
    162 H162       -3.5955  -17.4362  -40.9411 H         1 UNK         0.0600 
    163 H163       -4.8667  -17.1734  -42.1250 H         1 UNK         0.0600 
    164 H164       -2.8697  -16.8452  -44.6247 H         1 UNK         0.3000 
    165 H165       -3.9205  -18.5227  -47.3288 H         1 UNK         0.0600 
    166 H166       -5.8694  -17.1370  -47.9591 H         1 UNK         0.0600 
    167 H167       -6.3645  -18.3346  -46.7772 H         1 UNK         0.0600 
    168 H168       -6.1227  -16.6676  -46.2769 H         1 UNK         0.0600 
    169 H169       -4.0039  -15.6840  -46.9269 H         1 UNK         0.3000 
    170 H170       -1.0789  -15.2540  -48.4060 H         1 UNK         0.0600 
    171 H171       -3.3380  -14.1879  -48.3262 H         1 UNK         0.0600 
    172 H172       -3.1142  -13.7765  -46.6339 H         1 UNK         0.0600 
    173 H173       -2.0933  -13.0513  -47.8656 H         1 UNK         0.0600 
    174 H174        0.4385  -14.7480  -46.9084 H         1 UNK         0.3000 
    175 H175        0.2899  -13.2569  -43.6676 H         1 UNK         0.0600 
    176 H176        1.1494  -15.5971  -43.4103 H         1 UNK         0.0600 
    177 H177        2.0275  -15.4425  -44.9258 H         1 UNK         0.0600 
    178 H178        2.4610  -14.4367  -43.5480 H         1 UNK         0.0600 
    179 H179        2.2301  -13.1482  -45.7677 H         1 UNK         0.3000 
    180 H180        0.8483  -10.3762  -47.5617 H         1 UNK         0.0600 
    181 H181        3.3952  -10.6919  -45.8857 H         1 UNK         0.0600 
    182 H182        2.2460   -9.3670  -45.7920 H         1 UNK         0.0600 
    183 H183        3.1933   -9.5980  -47.2531 H         1 UNK         0.0600 
    184 H184        3.0822  -12.2486  -47.8255 H         1 UNK         0.3000 
    185 H185        1.4490  -14.4253  -50.0597 H         1 UNK         0.0600 
    186 H186        1.8924  -12.5967  -51.6769 H         1 UNK         0.0600 
    187 H187        3.4090  -12.2096  -50.8721 H         1 UNK         0.0600 
    188 H188        3.2150  -13.7544  -51.6981 H         1 UNK         0.0600 
    189 H189        4.2085  -14.0058  -49.3430 H         1 UNK         0.3000 
    190 H190       -0.8494  -22.1468  -45.6391 H         1 UNK         0.3000 
    191 H191       -3.5960  -23.0167  -45.2645 H         1 UNK         0.0600 
    192 H192       -2.5823  -21.0315  -44.0916 H         1 UNK         0.0600 
    193 H193       -3.2537  -22.2080  -42.9712 H         1 UNK         0.0600 
    194 H194       -1.5125  -22.1108  -43.2031 H         1 UNK         0.0600 
    195 H195       -0.3497  -24.2522  -44.4968 H         1 UNK         0.3000 
    196 H196       -1.2143  -26.5133  -42.9212 H         1 UNK         0.0600 
    197 H197        1.1736  -27.1907  -43.1129 H         1 UNK         0.0600 
    198 H198        1.0398  -25.4990  -42.6582 H         1 UNK         0.0600 
    199 H199        1.4578  -25.9381  -44.3137 H         1 UNK         0.0600 
    200 H200       -0.2518  -26.0388  -46.3376 H         1 UNK         0.3000 
    201 H201       -0.5966  -28.7801  -47.1378 H         1 UNK         0.0600 
    202 H202       -0.2950  -27.8099  -49.4199 H         1 UNK         0.0600 
    203 H203        0.9053  -27.1699  -48.3081 H         1 UNK         0.0600 
    204 H204       -0.4806  -26.1847  -48.7715 H         1 UNK         0.0600 
    205 H205       -2.8570  -26.2667  -46.5624 H         1 UNK         0.3000 
    206 H206       -5.0034  -25.8964  -46.8603 H         1 UNK         0.0600 
    207 H207       -5.3675  -28.2610  -46.0931 H         1 UNK         0.0600 
    208 H208       -6.6166  -27.7089  -47.1966 H         1 UNK         0.0600 
    209 H209       -5.3651  -28.7979  -47.7730 H         1 UNK         0.0600 
    210 H210       -3.0831  -25.3989  -48.9217 H         1 UNK         0.3000 
    211 H211       -4.4997  -25.5704  -51.5134 H         1 UNK         0.0600 
    212 H212       -1.7882  -24.3527  -50.7461 H         1 UNK         0.0600 
    213 H213       -2.4080  -24.5467  -52.3799 H         1 UNK         0.0600 
    214 H214       -2.0288  -25.9658  -51.4157 H         1 UNK         0.0600 
    215 H215       -4.2355  -23.4774  -48.8095 H         1 UNK         0.3000 
    216 H216       -4.2649  -20.9071  -49.7589 H         1 UNK         0.0600 
    217 H217       -5.4486  -20.4168  -47.5354 H         1 UNK         0.0600 
    218 H218       -3.9999  -21.3894  -47.3984 H         1 UNK         0.0600 
    219 H219       -5.5884  -22.1489  -47.2960 H         1 UNK         0.0600 
    220 H220       -6.9403  -23.1006  -50.0809 H         1 UNK         0.3000 
    221 H221       -9.0525  -21.1764  -50.4292 H         1 UNK         0.0600 
    222 H222       -8.7595  -24.0664  -51.4160 H         1 UNK         0.0600 
    223 H223       -9.4895  -23.5616  -49.8915 H         1 UNK         0.0600 
    224 H224      -10.2530  -23.1358  -51.4148 H         1 UNK         0.0600 
    225 H225       -6.4636  -22.3248  -52.5049 H         1 UNK         0.3000 
    226 H226       -7.5992  -20.8801  -54.8778 H         1 UNK         0.0600 
    227 H227       -6.1363  -22.3878  -56.2211 H         1 UNK         0.0600 
    228 H228       -5.6499  -23.2459  -54.7626 H         1 UNK         0.0600 
    229 H229       -7.3242  -23.3046  -55.3069 H         1 UNK         0.0600 
    230 H230       -4.5858  -21.7305  -53.1010 H         1 UNK         0.3000 
    231 H231       -3.0770  -19.4871  -54.2795 H         1 UNK         0.0600 
    232 H232       -2.2743  -21.7044  -52.3186 H         1 UNK         0.0600 
    233 H233       -1.1855  -20.5476  -53.0726 H         1 UNK         0.0600 
    234 H234       -2.0200  -21.7358  -54.0627 H         1 UNK         0.0600 
    235 H235       -5.0317  -18.2486  -53.1305 H         1 UNK         0.3000 
    236 H236       -4.7723  -17.7805  -50.2905 H         1 UNK         0.0600 
    237 H237       -6.9407  -17.5262  -51.4319 H         1 UNK         0.0600 
    238 H238       -6.4663  -15.9964  -50.7138 H         1 UNK         0.0600 
    239 H239       -6.3073  -16.2374  -52.4514 H         1 UNK         0.0600 
    240 H240       -4.1085  -15.6919  -53.1437 H         1 UNK         0.3000 
    241 H241       -2.8094  -13.9736  -53.5436 H         1 UNK         0.0600 
    242 H242       -4.4771  -12.0917  -50.5780 H         1 UNK         0.3800 
    243 H243       -4.8652  -13.7130  -51.0899 H         1 UNK         0.3800 
    244 H244       -0.5408  -13.7494  -52.4567 H         1 UNK         0.0800 
    245 H245       -0.9566  -15.0297  -51.3494 H         1 UNK         0.0800 
    246 H246        1.6613  -16.2409  -54.2047 H         1 UNK         0.0800 
    247 H247        1.5425  -14.8696  -53.1354 H         1 UNK         0.0800 
@<TRIPOS>BOND
     1    1    2 1    
     2    1  127 1    
     3    1  128 1    
     4    1  129 1    
     5    2    3 2    
     6    2    4 am   BACKBONE|DICT|INTERRES
     7    4    5 1    
     8    4  130 1    
     9    5    6 1    
    10    5   65 1    
    11    5  131 1    
    12    6    7 1    
    13    6  132 1    
    14    6  133 1    
    15    7    8 1    
    16    8    9 1    
    17    8  134 1    
    18    8  135 1    
    19    9   10 ar   
    20    9   14 ar   
    21   10   11 ar   
    22   10  136 1    
    23   11   12 ar   
    24   11  126 1    
    25   12   13 ar   
    26   12  137 1    
    27   13   14 ar   
    28   13   15 1    
    29   14  138 1    
    30   15   16 1    
    31   15  139 1    
    32   15  140 1    
    33   16   17 1    
    34   17   18 1    
    35   17  141 1    
    36   17  142 1    
    37   18   19 1    
    38   18   67 1    
    39   18  143 1    
    40   19   20 am   BACKBONE|DICT|INTERRES
    41   19  144 1    
    42   20   21 2    
    43   20   22 1    
    44   22   23 1    
    45   22   24 1    
    46   22  145 1    
    47   23  146 1    
    48   23  147 1    
    49   23  148 1    
    50   24   25 am   BACKBONE|DICT|INTERRES
    51   24  149 1    
    52   25   26 2    
    53   25   27 1    
    54   27   28 1    
    55   27   29 1    
    56   27  150 1    
    57   28  151 1    
    58   28  152 1    
    59   28  153 1    
    60   29   30 am   BACKBONE|DICT|INTERRES
    61   29  154 1    
    62   30   31 2    
    63   30   32 1    
    64   32   33 1    
    65   32   34 1    
    66   32  155 1    
    67   33  156 1    
    68   33  157 1    
    69   33  158 1    
    70   34   35 am   BACKBONE|DICT|INTERRES
    71   34  159 1    
    72   35   36 2    
    73   35   37 1    
    74   37   38 1    
    75   37   39 1    
    76   37  160 1    
    77   38  161 1    
    78   38  162 1    
    79   38  163 1    
    80   39   40 am   BACKBONE|DICT|INTERRES
    81   39  164 1    
    82   40   41 2    
    83   40   42 1    
    84   42   43 1    
    85   42   44 1    
    86   42  165 1    
    87   43  166 1    
    88   43  167 1    
    89   43  168 1    
    90   44   45 am   BACKBONE|DICT|INTERRES
    91   44  169 1    
    92   45   46 2    
    93   45   47 1    
    94   47   48 1    
    95   47   49 1    
    96   47  170 1    
    97   48  171 1    
    98   48  172 1    
    99   48  173 1    
   100   49   50 am   BACKBONE|DICT|INTERRES
   101   49  174 1    
   102   50   51 2    
   103   50   52 1    
   104   52   53 1    
   105   52   54 1    
   106   52  175 1    
   107   53  176 1    
   108   53  177 1    
   109   53  178 1    
   110   54   55 am   BACKBONE|DICT|INTERRES
   111   54  179 1    
   112   55   56 2    
   113   55   57 1    
   114   57   58 1    
   115   57   59 1    
   116   57  180 1    
   117   58  181 1    
   118   58  182 1    
   119   58  183 1    
   120   59   60 am   BACKBONE|DICT|INTERRES
   121   59  184 1    
   122   60   61 2    
   123   60   62 1    
   124   62   63 1    
   125   62   64 1    
   126   62  185 1    
   127   63  186 1    
   128   63  187 1    
   129   63  188 1    
   130   64   65 am   BACKBONE|DICT|INTERRES
   131   64  189 1    
   132   65   66 2    
   133   67   68 2    
   134   67   69 am   BACKBONE|DICT|INTERRES
   135   69   70 1    
   136   69  190 1    
   137   70   71 1    
   138   70   72 1    
   139   70  191 1    
   140   71  192 1    
   141   71  193 1    
   142   71  194 1    
   143   72   73 2    
   144   72   74 am   BACKBONE|DICT|INTERRES
   145   74   75 1    
   146   74  195 1    
   147   75   76 1    
   148   75   77 1    
   149   75  196 1    
   150   76  197 1    
   151   76  198 1    
   152   76  199 1    
   153   77   78 2    
   154   77   79 am   BACKBONE|DICT|INTERRES
   155   79   80 1    
   156   79  200 1    
   157   80   81 1    
   158   80   82 1    
   159   80  201 1    
   160   81  202 1    
   161   81  203 1    
   162   81  204 1    
   163   82   83 2    
   164   82   84 am   BACKBONE|DICT|INTERRES
   165   84   85 1    
   166   84  205 1    
   167   85   86 1    
   168   85   87 1    
   169   85  206 1    
   170   86  207 1    
   171   86  208 1    
   172   86  209 1    
   173   87   88 2    
   174   87   89 am   BACKBONE|DICT|INTERRES
   175   89   90 1    
   176   89  210 1    
   177   90   91 1    
   178   90   92 1    
   179   90  211 1    
   180   91  212 1    
   181   91  213 1    
   182   91  214 1    
   183   92   93 2    
   184   92   94 am   BACKBONE|DICT|INTERRES
   185   94   95 1    
   186   94  215 1    
   187   95   96 1    
   188   95   97 1    
   189   95  216 1    
   190   96  217 1    
   191   96  218 1    
   192   96  219 1    
   193   97   98 2    
   194   97   99 am   BACKBONE|DICT|INTERRES
   195   99  100 1    
   196   99  220 1    
   197  100  101 1    
   198  100  102 1    
   199  100  221 1    
   200  101  222 1    
   201  101  223 1    
   202  101  224 1    
   203  102  103 2    
   204  102  104 am   BACKBONE|DICT|INTERRES
   205  104  105 1    
   206  104  225 1    
   207  105  106 1    
   208  105  107 1    
   209  105  226 1    
   210  106  227 1    
   211  106  228 1    
   212  106  229 1    
   213  107  108 2    
   214  107  109 am   BACKBONE|DICT|INTERRES
   215  109  110 1    
   216  109  230 1    
   217  110  111 1    
   218  110  112 1    
   219  110  231 1    
   220  111  232 1    
   221  111  233 1    
   222  111  234 1    
   223  112  113 2    
   224  112  114 am   BACKBONE|DICT|INTERRES
   225  114  115 1    
   226  114  235 1    
   227  115  116 1    
   228  115  117 1    
   229  115  236 1    
   230  116  237 1    
   231  116  238 1    
   232  116  239 1    
   233  117  118 2    
   234  117  119 am   BACKBONE|DICT|INTERRES
   235  119  120 1    
   236  119  240 1    
   237  120  121 1    
   238  120  124 1    
   239  120  241 1    
   240  121  122 am   BACKBONE|DICT|INTERRES
   241  121  123 2    
   242  122  242 1    
   243  122  243 1    
   244  124  125 1    
   245  124  244 1    
   246  124  245 1    
   247  125  126 1    
   248  126  246 1    
   249  126  247 1    
@<TRIPOS>SUBSTRUCTURE
     1 UNK         1 GROUP             0       ****    0 ROOT    
