@<TRIPOS>MOLECULE
3R540
247   249    1
SMALL
USER_CHARGES


@<TRIPOS>ATOM
      1 CA          7.6760  -15.1003  -48.5770 C.3       0 UNK        -0.1800 
      2 C           6.7269  -15.2117  -47.3923 C.2       0 UNK         0.5000 
      3 O           7.1781  -15.2541  -46.2479 O.2       0 UNK        -0.5000 
      4 N           5.4179  -15.2599  -47.6672 N.am      1 UNK        -0.5000 
      5 CA          4.3462  -15.3178  -46.6699 C.3       1 UNK         0.1400 
      6 C6          2.9875  -15.7827  -47.2541 C.3       23 UNK        -0.0398 
      7 S7          2.2583  -14.7109  -48.5420 S.3       23 UNK        -0.2404 
      8 C8          2.8206  -15.4792  -50.0979 C.3       23 UNK        -0.0205 
      9 C9          2.2346  -16.8668  -50.3058 C.ar      23 UNK        -0.0193 
     10 C10         0.8862  -17.0146  -50.6413 C.ar      23 UNK        -0.1150 
     11 C11         0.3321  -18.2870  -50.8025 C.ar      23 UNK        -0.0193 
     12 C12         1.1388  -19.4150  -50.6345 C.ar      23 UNK        -0.1150 
     13 C13         2.4908  -19.2808  -50.3067 C.ar      23 UNK        -0.0193 
     14 C14         3.0362  -18.0026  -50.1555 C.ar      23 UNK        -0.1150 
     15 C15         3.3468  -20.5215  -50.0852 C.3       23 UNK        -0.0205 
     16 S16         4.0271  -20.6313  -48.3936 S.3       23 UNK        -0.2404 
     17 C17         2.5436  -20.4282  -47.3481 C.3       23 UNK        -0.0398 
     18 CA          1.9845  -21.7404  -46.7512 C.3       11 UNK         0.1400 
     19 N           1.0304  -21.4476  -45.6782 N.am      11 UNK        -0.5000 
     20 C           0.5155  -22.3468  -44.8314 C.2       10 UNK         0.5000 
     21 O           0.8638  -23.5257  -44.8041 O.2       10 UNK        -0.5000 
     22 CA         -0.5986  -21.8591  -43.8853 C.3       10 UNK         0.1400 
     23 CB         -0.0020  -21.2341  -42.6158 C.3       10 UNK        -0.1800 
     24 N          -1.5085  -20.9050  -44.5244 N.am      10 UNK        -0.5000 
     25 C          -2.3461  -21.2131  -45.5263 C.2       9 UNK         0.5000 
     26 O          -2.4813  -22.3496  -45.9765 O.2       9 UNK        -0.5000 
     27 CA         -3.1388  -20.0549  -46.1607 C.3       9 UNK         0.1400 
     28 CB         -4.4016  -19.7428  -45.3449 C.3       9 UNK        -0.1800 
     29 N          -2.3426  -18.8380  -46.3183 N.am      9 UNK        -0.5000 
     30 C          -1.2601  -18.7370  -47.1031 C.2       8 UNK         0.5000 
     31 O          -0.8240  -19.6655  -47.7825 O.2       8 UNK        -0.5000 
     32 CA         -0.4883  -17.4038  -47.0540 C.3       8 UNK         0.1400 
     33 CB         -1.2223  -16.2986  -47.8222 C.3       8 UNK        -0.1800 
     34 N          -0.2616  -16.9467  -45.6849 N.am      8 UNK        -0.5000 
     35 C           0.4294  -17.6155  -44.7532 C.2       7 UNK         0.5000 
     36 O           1.0223  -18.6709  -44.9662 O.2       7 UNK        -0.5000 
     37 CA          0.4154  -17.0266  -43.3342 C.3       7 UNK         0.1400 
     38 CB          1.4734  -15.9253  -43.1910 C.3       7 UNK        -0.1800 
     39 N          -0.9015  -16.4972  -42.9814 N.am      7 UNK        -0.5000 
     40 C          -1.9826  -17.2583  -42.7596 C.2       6 UNK         0.5000 
     41 O          -1.9720  -18.4887  -42.7934 O.2       6 UNK        -0.5000 
     42 CA         -3.3043  -16.5140  -42.4983 C.3       6 UNK         0.1400 
     43 CB         -3.3890  -16.0524  -41.0358 C.3       6 UNK        -0.1800 
     44 N          -3.4775  -15.3617  -43.3844 N.am      6 UNK        -0.5000 
     45 C          -3.6639  -15.4529  -44.7088 C.2       5 UNK         0.5000 
     46 O          -3.7526  -16.5208  -45.3116 O.2       5 UNK        -0.5000 
     47 CA         -3.7229  -14.1331  -45.4993 C.3       5 UNK         0.1400 
     48 CB         -5.1678  -13.6215  -45.5903 C.3       5 UNK        -0.1800 
     49 N          -2.8648  -13.0803  -44.9493 N.am      5 UNK        -0.5000 
     50 C          -1.5284  -13.1436  -44.8809 C.2       4 UNK         0.5000 
     51 O          -0.8684  -14.1313  -45.2103 O.2       4 UNK        -0.5000 
     52 CA         -0.8100  -11.9044  -44.3183 C.3       4 UNK         0.1400 
     53 CB         -0.1756  -12.2196  -42.9547 C.3       4 UNK        -0.1800 
     54 N           0.2231  -11.4047  -45.2270 N.am      4 UNK        -0.5000 
     55 C          -0.0171  -10.8901  -46.4432 C.2       3 UNK         0.5000 
     56 O          -1.1432  -10.7825  -46.9297 O.2       3 UNK        -0.5000 
     57 CA          1.1935  -10.3919  -47.2463 C.3       3 UNK         0.1400 
     58 CB          1.5185   -8.9309  -46.8785 C.3       3 UNK        -0.1800 
     59 N           2.3646  -11.2484  -47.0516 N.am      3 UNK        -0.5000 
     60 C           3.4279  -11.2837  -47.8669 C.2       2 UNK         0.5000 
     61 O           3.5337  -10.5784  -48.8717 O.2       2 UNK        -0.5000 
     62 CA          4.5664  -12.2630  -47.5122 C.3       2 UNK         0.1400 
     63 CB          5.9371  -11.5665  -47.5901 C.3       2 UNK        -0.1800 
     64 N           4.4017  -12.8153  -46.1628 N.am      2 UNK        -0.5000 
     65 C           4.2279  -14.0792  -45.7388 C.2       1 UNK         0.5000 
     66 O           3.9939  -14.2860  -44.5504 O.2       1 UNK        -0.5000 
     67 C           1.3555  -22.6607  -47.8234 C.2       11 UNK         0.5000 
     68 O           1.9945  -23.6157  -48.2663 O.2       11 UNK        -0.5000 
     69 N           0.0898  -22.3957  -48.1736 N.am      12 UNK        -0.5000 
     70 CA         -0.7189  -23.1826  -49.1049 C.3       12 UNK         0.1400 
     71 CB         -1.8327  -22.2915  -49.6782 C.3       12 UNK        -0.1800 
     72 C          -1.3021  -24.4837  -48.5150 C.2       12 UNK         0.5000 
     73 O          -2.0794  -25.1442  -49.2060 O.2       12 UNK        -0.5000 
     74 N          -0.9426  -24.8655  -47.2792 N.am      13 UNK        -0.5000 
     75 CA         -1.4382  -26.0720  -46.6003 C.3       13 UNK         0.1400 
     76 CB         -0.9074  -26.1207  -45.1624 C.3       13 UNK        -0.1800 
     77 C          -1.1234  -27.3906  -47.3367 C.2       13 UNK         0.5000 
     78 O          -1.8741  -28.3556  -47.1930 O.2       13 UNK        -0.5000 
     79 N          -0.0697  -27.3918  -48.1663 N.am      14 UNK        -0.5000 
     80 CA          0.2724  -28.4721  -49.0973 C.3       14 UNK         0.1400 
     81 CB          1.6421  -28.1703  -49.7235 C.3       14 UNK        -0.1800 
     82 C          -0.7866  -28.6972  -50.2003 C.2       14 UNK         0.5000 
     83 O          -0.8781  -29.8030  -50.7336 O.2       14 UNK        -0.5000 
     84 N          -1.5796  -27.6597  -50.4981 N.am      15 UNK        -0.5000 
     85 CA         -2.7319  -27.6758  -51.3984 C.3       15 UNK         0.1400 
     86 CB         -2.5726  -26.5330  -52.4181 C.3       15 UNK        -0.1800 
     87 C          -4.0464  -27.5495  -50.5985 C.2       15 UNK         0.5000 
     88 O          -5.0388  -27.0459  -51.1263 O.2       15 UNK        -0.5000 
     89 N          -4.0255  -27.9686  -49.3223 N.am      16 UNK        -0.5000 
     90 CA         -5.1283  -27.9444  -48.3526 C.3       16 UNK         0.1400 
     91 CB         -6.2455  -28.9181  -48.7824 C.3       16 UNK        -0.1800 
     92 C          -5.6637  -26.5282  -48.0441 C.2       16 UNK         0.5000 
     93 O          -6.8171  -26.3895  -47.6351 O.2       16 UNK        -0.5000 
     94 N          -4.8218  -25.5045  -48.2589 N.am      17 UNK        -0.5000 
     95 CA         -5.0995  -24.0702  -48.1257 C.3       17 UNK         0.1400 
     96 CB         -5.4604  -23.7026  -46.6723 C.3       17 UNK        -0.1800 
     97 C          -6.1275  -23.5342  -49.1453 C.2       17 UNK         0.5000 
     98 O          -6.6250  -22.4215  -48.9692 O.2       17 UNK        -0.5000 
     99 N          -6.4118  -24.3025  -50.2096 N.am      18 UNK        -0.5000 
    100 CA        -7.4308  -23.9988  -51.2203 C.3       18 UNK         0.1400 
    101 CB        -7.6091  -25.2187  -52.1359 C.3       18 UNK        -0.1800 
    102 C         -7.1354  -22.7381  -52.0552 C.2       18 UNK         0.5000 
    103 O         -8.0688  -22.1100  -52.5562 O.2       18 UNK        -0.5000 
    104 N         -5.8498  -22.3805  -52.1736 N.am      19 UNK        -0.5000 
    105 CA        -5.3810  -21.1634  -52.8375 C.3       19 UNK         0.1400 
    106 CB        -3.8979  -21.3388  -53.1909 C.3       19 UNK        -0.1800 
    107 C         -5.5990  -19.8858  -51.9979 C.2       19 UNK         0.5000 
    108 O         -5.5353  -18.7876  -52.5539 O.2       19 UNK        -0.5000 
    109 N         -5.8618  -20.0469  -50.6901 N.am      20 UNK        -0.5000 
    110 CA        -6.1282  -19.0035  -49.6982 C.3       20 UNK         0.1400 
    111 CB        -7.5387  -18.4129  -49.9198 C.3       20 UNK        -0.1800 
    112 C         -5.0004  -17.9520  -49.6438 C.2       20 UNK         0.5000 
    113 O         -3.8756  -18.2991  -49.2886 O.2       20 UNK        -0.5000 
    114 N         -5.3133  -16.6997  -49.9995 N.am      21 UNK        -0.5000 
    115 CA        -4.3755  -15.5780  -50.0329 C.3       21 UNK         0.1400 
    116 CB        -5.1715  -14.2705  -49.8938 C.3       21 UNK        -0.1800 
    117 C         -3.4823  -15.5451  -51.2915 C.2       21 UNK         0.5000 
    118 O         -2.5458  -14.7470  -51.3262 O.2       21 UNK        -0.5000 
    119 N         -3.7738  -16.3880  -52.2956 N.am      22 UNK        -0.5000 
    120 CA        -3.0710  -16.4756  -53.5928 C.3       22 UNK         0.1400 
    121 C         -3.2183  -15.2110  -54.4976 C.2       22 UNK         0.5000 
    122 N         -4.1959  -14.3427  -54.2670 N.am      22 UNK        -0.7600 
    123 O         -2.4626  -15.0244  -55.4478 O.2       22 UNK        -0.5000 
    124 C124       -1.5940  -16.9579  -53.4650 C.3       23 UNK        -0.0398 
    125 S125       -1.4689  -18.6813  -52.8787 S.3       23 UNK        -0.2404 
    126 C126       -1.1467  -18.4526  -51.1078 C.3       23 UNK        -0.0205 
    127 H127        8.3582  -15.9502  -48.5927 H         1 UNK         0.0600 
    128 H128        8.2673  -14.1881  -48.4987 H         1 UNK         0.0600 
    129 H129        7.1400  -15.0768  -49.5263 H         1 UNK         0.0600 
    130 H130        5.1161  -15.2209  -48.6283 H         1 UNK         0.3000 
    131 H131        4.6445  -16.1268  -45.9987 H         1 UNK         0.0600 
    132 H132        3.0879  -16.7960  -47.6418 H         1 UNK         0.0800 
    133 H133        2.2556  -15.8638  -46.4499 H         1 UNK         0.0800 
    134 H134        3.9099  -15.5110  -50.1238 H         1 UNK         0.0800 
    135 H135        2.5191  -14.8400  -50.9290 H         1 UNK         0.0800 
    136 H136        0.2643  -16.1371  -50.7517 H         1 UNK         0.1150 
    137 H137        0.7053  -20.3991  -50.7411 H         1 UNK         0.1150 
    138 H138        4.0795  -17.8972  -49.8927 H         1 UNK         0.1150 
    139 H139        2.7753  -21.4275  -50.2922 H         1 UNK         0.0800 
    140 H140        4.1729  -20.5131  -50.7973 H         1 UNK         0.0800 
    141 H141        1.7641  -19.8804  -47.8742 H         1 UNK         0.0800 
    142 H142        2.8499  -19.7703  -46.5342 H         1 UNK         0.0800 
    143 H143        2.8157  -22.2857  -46.2993 H         1 UNK         0.0600 
    144 H144        0.7442  -20.4772  -45.5840 H         1 UNK         0.3000 
    145 H145       -1.1844  -22.7316  -43.5888 H         1 UNK         0.0600 
    146 H146       -0.7842  -20.9472  -41.9128 H         1 UNK         0.0600 
    147 H147        0.6528  -21.9404  -42.1041 H         1 UNK         0.0600 
    148 H148        0.5868  -20.3453  -42.8419 H         1 UNK         0.0600 
    149 H149       -1.4964  -19.9544  -44.1708 H         1 UNK         0.3000 
    150 H150       -3.4520  -20.3750  -47.1566 H         1 UNK         0.0600 
    151 H151       -5.0094  -20.6365  -45.2017 H         1 UNK         0.0600 
    152 H152       -5.0227  -19.0045  -45.8526 H         1 UNK         0.0600 
    153 H153       -4.1556  -19.3509  -44.3576 H         1 UNK         0.0600 
    154 H154       -2.6731  -18.0131  -45.8256 H         1 UNK         0.3000 
    155 H155        0.4846  -17.5605  -47.5243 H         1 UNK         0.0600 
    156 H156       -2.2152  -16.1241  -47.4148 H         1 UNK         0.0600 
    157 H157       -1.3471  -16.5638  -48.8673 H         1 UNK         0.0600 
    158 H158       -0.6738  -15.3573  -47.7898 H         1 UNK         0.0600 
    159 H159       -0.6643  -16.0477  -45.4359 H         1 UNK         0.3000 
    160 H160        0.6615  -17.8269  -42.6332 H         1 UNK         0.0600 
    161 H161        1.3130  -15.1144  -43.9018 H         1 UNK         0.0600 
    162 H162        2.4720  -16.3242  -43.3735 H         1 UNK         0.0600 
    163 H163        1.4722  -15.4998  -42.1875 H         1 UNK         0.0600 
    164 H164       -1.0053  -15.4938  -42.9889 H         1 UNK         0.3000 
    165 H165       -4.1226  -17.2133  -42.6834 H         1 UNK         0.0600 
    166 H166       -4.3542  -15.5921  -40.8235 H         1 UNK         0.0600 
    167 H167       -3.2755  -16.8962  -40.3538 H         1 UNK         0.0600 
    168 H168       -2.6106  -15.3276  -40.7939 H         1 UNK         0.0600 
    169 H169       -3.4220  -14.4452  -42.9659 H         1 UNK         0.3000 
    170 H170       -3.3787  -14.3394  -46.5140 H         1 UNK         0.0600 
    171 H171       -5.8233  -14.3799  -46.0208 H         1 UNK         0.0600 
    172 H172       -5.5664  -13.3607  -44.6091 H         1 UNK         0.0600 
    173 H173       -5.2344  -12.7390  -46.2269 H         1 UNK         0.0600 
    174 H174       -3.3286  -12.2315  -44.6592 H         1 UNK         0.3000 
    175 H175       -1.5422  -11.1071  -44.1742 H         1 UNK         0.0600 
    176 H176        0.6168  -12.9635  -43.0395 H         1 UNK         0.0600 
    177 H177        0.2544  -11.3246  -42.5047 H         1 UNK         0.0600 
    178 H178       -0.9181  -12.6077  -42.2561 H         1 UNK         0.0600 
    179 H179        1.1668  -11.4210  -44.8744 H         1 UNK         0.3000 
    180 H180        0.9111  -10.4310  -48.3009 H         1 UNK         0.0600 
    181 H181        1.8658   -8.8447  -45.8483 H         1 UNK         0.0600 
    182 H182        0.6375   -8.2961  -46.9830 H         1 UNK         0.0600 
    183 H183        2.2899   -8.5162  -47.5272 H         1 UNK         0.0600 
    184 H184        2.3095  -11.9291  -46.3082 H         1 UNK         0.3000 
    185 H185        4.5311  -13.0313  -48.2784 H         1 UNK         0.0600 
    186 H186        6.1403  -11.2072  -48.5996 H         1 UNK         0.0600 
    187 H187        5.9891  -10.7086  -46.9187 H         1 UNK         0.0600 
    188 H188        6.7456  -12.2457  -47.3219 H         1 UNK         0.0600 
    189 H189        4.3708  -12.1042  -45.4469 H         1 UNK         0.3000 
    190 H190       -0.3512  -21.5614  -47.7952 H         1 UNK         0.3000 
    191 H191       -0.0824  -23.4867  -49.9382 H         1 UNK         0.0600 
    192 H192       -2.4448  -21.8515  -48.8908 H         1 UNK         0.0600 
    193 H193       -2.4947  -22.8466  -50.3438 H         1 UNK         0.0600 
    194 H194       -1.4066  -21.4819  -50.2651 H         1 UNK         0.0600 
    195 H195       -0.3198  -24.2710  -46.7492 H         1 UNK         0.3000 
    196 H196       -2.5252  -25.9878  -46.5482 H         1 UNK         0.0600 
    197 H197       -1.2753  -27.0034  -44.6375 H         1 UNK         0.0600 
    198 H198       -1.2346  -25.2497  -44.5946 H         1 UNK         0.0600 
    199 H199        0.1823  -26.1540  -45.1376 H         1 UNK         0.0600 
    200 H200        0.4935  -26.5550  -48.2178 H         1 UNK         0.3000 
    201 H201        0.3516  -29.3981  -48.5241 H         1 UNK         0.0600 
    202 H202        2.4154  -28.0861  -48.9597 H         1 UNK         0.0600 
    203 H203        1.6278  -27.2395  -50.2920 H         1 UNK         0.0600 
    204 H204        1.9450  -28.9667  -50.4045 H         1 UNK         0.0600 
    205 H205       -1.4638  -26.7926  -49.9821 H         1 UNK         0.3000 
    206 H206       -2.7788  -28.6195  -51.9448 H         1 UNK         0.0600 
    207 H207       -1.6340  -26.6222  -52.9650 H         1 UNK         0.0600 
    208 H208       -3.3774  -26.5457  -53.1540 H         1 UNK         0.0600 
    209 H209       -2.5856  -25.5564  -51.9324 H         1 UNK         0.0600 
    210 H210       -3.1517  -28.3290  -48.9583 H         1 UNK         0.3000 
    211 H211       -4.7126  -28.3155  -47.4149 H         1 UNK         0.0600 
    212 H212       -6.7615  -28.5720  -49.6786 H         1 UNK         0.0600 
    213 H213       -6.9940  -29.0288  -47.9971 H         1 UNK         0.0600 
    214 H214       -5.8456  -29.9111  -48.9877 H         1 UNK         0.0600 
    215 H215       -3.9005  -25.7161  -48.6291 H         1 UNK         0.3000 
    216 H216       -4.1651  -23.5613  -48.3582 H         1 UNK         0.0600 
    217 H217       -5.4922  -22.6208  -46.5429 H         1 UNK         0.0600 
    218 H218       -4.7181  -24.0879  -45.9732 H         1 UNK         0.0600 
    219 H219       -6.4353  -24.0930  -46.3805 H         1 UNK         0.0600 
    220 H220       -5.9455  -25.1978  -50.3018 H         1 UNK         0.3000 
    221 H221       -8.3727  -23.8270  -50.6956 H         1 UNK         0.0600 
    222 H222       -6.6963  -25.4405  -52.6903 H         1 UNK         0.0600 
    223 H223       -7.8766  -26.1071  -51.5632 H         1 UNK         0.0600 
    224 H224       -8.4031  -25.0495  -52.8643 H         1 UNK         0.0600 
    225 H225       -5.1504  -22.9653  -51.7411 H         1 UNK         0.3000 
    226 H226       -5.9380  -21.0425  -53.7690 H         1 UNK         0.0600 
    227 H227       -3.7271  -22.2573  -53.7525 H         1 UNK         0.0600 
    228 H228       -3.5548  -20.5137  -53.8151 H         1 UNK         0.0600 
    229 H229       -3.2692  -21.3642  -52.3002 H         1 UNK         0.0600 
    230 H230       -5.9168  -20.9916  -50.3289 H         1 UNK         0.3000 
    231 H231       -6.1271  -19.4973  -48.7252 H         1 UNK         0.0600 
    232 H232       -8.2961  -19.1950  -49.8628 H         1 UNK         0.0600 
    233 H233       -7.6384  -17.9332  -50.8942 H         1 UNK         0.0600 
    234 H234       -7.7843  -17.6762  -49.1538 H         1 UNK         0.0600 
    235 H235       -6.2578  -16.5083  -50.3004 H         1 UNK         0.3000 
    236 H236       -3.7131  -15.6549  -49.1702 H         1 UNK         0.0600 
    237 H237       -4.5060  -13.4063  -49.8730 H         1 UNK         0.0600 
    238 H238       -5.8657  -14.1309  -50.7232 H         1 UNK         0.0600 
    239 H239       -5.7459  -14.2557  -48.9672 H         1 UNK         0.0600 
    240 H240       -4.5385  -17.0453  -52.1805 H         1 UNK         0.3000 
    241 H241       -3.6059  -17.2472  -54.1475 H         1 UNK         0.0600 
    242 H242       -4.2927  -13.5351  -54.8622 H         1 UNK         0.3800 
    243 H243       -4.8389  -14.4858  -53.5055 H         1 UNK         0.3800 
    244 H244       -1.0973  -16.9384  -54.4361 H         1 UNK         0.0800 
    245 H245       -1.0134  -16.2934  -52.8257 H         1 UNK         0.0800 
    246 H246       -1.5449  -19.3023  -50.5561 H         1 UNK         0.0800 
    247 H247       -1.7082  -17.5951  -50.7518 H         1 UNK         0.0800 
@<TRIPOS>BOND
     1    1    2 1    
     2    1  127 1    
     3    1  128 1    
     4    1  129 1    
     5    2    3 2    
     6    2    4 am   BACKBONE|DICT|INTERRES
     7    4    5 1    
     8    4  130 1    
     9    5    6 1    
    10    5   65 1    
    11    5  131 1    
    12    6    7 1    
    13    6  132 1    
    14    6  133 1    
    15    7    8 1    
    16    8    9 1    
    17    8  134 1    
    18    8  135 1    
    19    9   10 ar   
    20    9   14 ar   
    21   10   11 ar   
    22   10  136 1    
    23   11   12 ar   
    24   11  126 1    
    25   12   13 ar   
    26   12  137 1    
    27   13   14 ar   
    28   13   15 1    
    29   14  138 1    
    30   15   16 1    
    31   15  139 1    
    32   15  140 1    
    33   16   17 1    
    34   17   18 1    
    35   17  141 1    
    36   17  142 1    
    37   18   19 1    
    38   18   67 1    
    39   18  143 1    
    40   19   20 am   BACKBONE|DICT|INTERRES
    41   19  144 1    
    42   20   21 2    
    43   20   22 1    
    44   22   23 1    
    45   22   24 1    
    46   22  145 1    
    47   23  146 1    
    48   23  147 1    
    49   23  148 1    
    50   24   25 am   BACKBONE|DICT|INTERRES
    51   24  149 1    
    52   25   26 2    
    53   25   27 1    
    54   27   28 1    
    55   27   29 1    
    56   27  150 1    
    57   28  151 1    
    58   28  152 1    
    59   28  153 1    
    60   29   30 am   BACKBONE|DICT|INTERRES
    61   29  154 1    
    62   30   31 2    
    63   30   32 1    
    64   32   33 1    
    65   32   34 1    
    66   32  155 1    
    67   33  156 1    
    68   33  157 1    
    69   33  158 1    
    70   34   35 am   BACKBONE|DICT|INTERRES
    71   34  159 1    
    72   35   36 2    
    73   35   37 1    
    74   37   38 1    
    75   37   39 1    
    76   37  160 1    
    77   38  161 1    
    78   38  162 1    
    79   38  163 1    
    80   39   40 am   BACKBONE|DICT|INTERRES
    81   39  164 1    
    82   40   41 2    
    83   40   42 1    
    84   42   43 1    
    85   42   44 1    
    86   42  165 1    
    87   43  166 1    
    88   43  167 1    
    89   43  168 1    
    90   44   45 am   BACKBONE|DICT|INTERRES
    91   44  169 1    
    92   45   46 2    
    93   45   47 1    
    94   47   48 1    
    95   47   49 1    
    96   47  170 1    
    97   48  171 1    
    98   48  172 1    
    99   48  173 1    
   100   49   50 am   BACKBONE|DICT|INTERRES
   101   49  174 1    
   102   50   51 2    
   103   50   52 1    
   104   52   53 1    
   105   52   54 1    
   106   52  175 1    
   107   53  176 1    
   108   53  177 1    
   109   53  178 1    
   110   54   55 am   BACKBONE|DICT|INTERRES
   111   54  179 1    
   112   55   56 2    
   113   55   57 1    
   114   57   58 1    
   115   57   59 1    
   116   57  180 1    
   117   58  181 1    
   118   58  182 1    
   119   58  183 1    
   120   59   60 am   BACKBONE|DICT|INTERRES
   121   59  184 1    
   122   60   61 2    
   123   60   62 1    
   124   62   63 1    
   125   62   64 1    
   126   62  185 1    
   127   63  186 1    
   128   63  187 1    
   129   63  188 1    
   130   64   65 am   BACKBONE|DICT|INTERRES
   131   64  189 1    
   132   65   66 2    
   133   67   68 2    
   134   67   69 am   BACKBONE|DICT|INTERRES
   135   69   70 1    
   136   69  190 1    
   137   70   71 1    
   138   70   72 1    
   139   70  191 1    
   140   71  192 1    
   141   71  193 1    
   142   71  194 1    
   143   72   73 2    
   144   72   74 am   BACKBONE|DICT|INTERRES
   145   74   75 1    
   146   74  195 1    
   147   75   76 1    
   148   75   77 1    
   149   75  196 1    
   150   76  197 1    
   151   76  198 1    
   152   76  199 1    
   153   77   78 2    
   154   77   79 am   BACKBONE|DICT|INTERRES
   155   79   80 1    
   156   79  200 1    
   157   80   81 1    
   158   80   82 1    
   159   80  201 1    
   160   81  202 1    
   161   81  203 1    
   162   81  204 1    
   163   82   83 2    
   164   82   84 am   BACKBONE|DICT|INTERRES
   165   84   85 1    
   166   84  205 1    
   167   85   86 1    
   168   85   87 1    
   169   85  206 1    
   170   86  207 1    
   171   86  208 1    
   172   86  209 1    
   173   87   88 2    
   174   87   89 am   BACKBONE|DICT|INTERRES
   175   89   90 1    
   176   89  210 1    
   177   90   91 1    
   178   90   92 1    
   179   90  211 1    
   180   91  212 1    
   181   91  213 1    
   182   91  214 1    
   183   92   93 2    
   184   92   94 am   BACKBONE|DICT|INTERRES
   185   94   95 1    
   186   94  215 1    
   187   95   96 1    
   188   95   97 1    
   189   95  216 1    
   190   96  217 1    
   191   96  218 1    
   192   96  219 1    
   193   97   98 2    
   194   97   99 am   BACKBONE|DICT|INTERRES
   195   99  100 1    
   196   99  220 1    
   197  100  101 1    
   198  100  102 1    
   199  100  221 1    
   200  101  222 1    
   201  101  223 1    
   202  101  224 1    
   203  102  103 2    
   204  102  104 am   BACKBONE|DICT|INTERRES
   205  104  105 1    
   206  104  225 1    
   207  105  106 1    
   208  105  107 1    
   209  105  226 1    
   210  106  227 1    
   211  106  228 1    
   212  106  229 1    
   213  107  108 2    
   214  107  109 am   BACKBONE|DICT|INTERRES
   215  109  110 1    
   216  109  230 1    
   217  110  111 1    
   218  110  112 1    
   219  110  231 1    
   220  111  232 1    
   221  111  233 1    
   222  111  234 1    
   223  112  113 2    
   224  112  114 am   BACKBONE|DICT|INTERRES
   225  114  115 1    
   226  114  235 1    
   227  115  116 1    
   228  115  117 1    
   229  115  236 1    
   230  116  237 1    
   231  116  238 1    
   232  116  239 1    
   233  117  118 2    
   234  117  119 am   BACKBONE|DICT|INTERRES
   235  119  120 1    
   236  119  240 1    
   237  120  121 1    
   238  120  124 1    
   239  120  241 1    
   240  121  122 am   BACKBONE|DICT|INTERRES
   241  121  123 2    
   242  122  242 1    
   243  122  243 1    
   244  124  125 1    
   245  124  244 1    
   246  124  245 1    
   247  125  126 1    
   248  126  246 1    
   249  126  247 1    
@<TRIPOS>SUBSTRUCTURE
     1 UNK         1 GROUP             0       ****    0 ROOT    
