@<TRIPOS>MOLECULE
3R540
247   249    1
SMALL
USER_CHARGES


@<TRIPOS>ATOM
      1 CA          4.5126  -18.0413  -45.4780 C.3       0 UNK        -0.1800 
      2 C           5.2836  -17.7174  -46.7560 C.2       0 UNK         0.5000 
      3 O           6.0310  -18.5625  -47.2433 O.2       0 UNK        -0.5000 
      4 N           5.1393  -16.5204  -47.3385 N.am      1 UNK        -0.5000 
      5 CA          4.4263  -15.3574  -46.8001 C.3       1 UNK         0.1400 
      6 C6          4.1123  -14.3250  -47.9119 C.3       23 UNK        -0.0398 
      7 S7          2.6223  -14.7873  -48.8487 S.3       23 UNK        -0.2404 
      8 C8          3.2927  -15.7410  -50.2474 C.3       23 UNK        -0.0205 
      9 C9          2.5173  -17.0368  -50.4259 C.ar      23 UNK        -0.0193 
     10 C10         1.1771  -16.9978  -50.8225 C.ar      23 UNK        -0.1150 
     11 C11         0.4320  -18.1741  -50.9321 C.ar      23 UNK        -0.0193 
     12 C12         1.0460  -19.3993  -50.6551 C.ar      23 UNK        -0.1150 
     13 C13         2.3930  -19.4564  -50.2878 C.ar      23 UNK        -0.0193 
     14 C14         3.1247  -18.2705  -50.1726 C.ar      23 UNK        -0.1150 
     15 C15         3.0435  -20.8029  -50.0004 C.3       23 UNK        -0.0205 
     16 S16         3.5854  -20.9858  -48.2685 S.3       23 UNK        -0.2404 
     17 C17         2.0966  -20.5220  -47.3208 C.3       23 UNK        -0.0398 
     18 CA          1.2490  -21.7241  -46.8523 C.3       11 UNK         0.1400 
     19 N           0.3565  -21.3413  -45.7584 N.am      11 UNK        -0.5000 
     20 C          -0.3726  -22.1906  -45.0236 C.2       10 UNK         0.5000 
     21 O          -0.3303  -23.4143  -45.1475 O.2       10 UNK        -0.5000 
     22 CA         -1.3475  -21.5603  -44.0132 C.3       10 UNK         0.1400 
     23 CB         -0.6145  -21.1613  -42.7241 C.3       10 UNK        -0.1800 
     24 N          -2.0471  -20.3982  -44.5655 N.am      10 UNK        -0.5000 
     25 C          -2.9032  -20.4553  -45.5960 C.2       9 UNK         0.5000 
     26 O          -3.2378  -21.5049  -46.1448 O.2       9 UNK        -0.5000 
     27 CA         -3.4457  -19.1191  -46.1340 C.3       9 UNK         0.1400 
     28 CB         -4.6119  -18.6153  -45.2717 C.3       9 UNK        -0.1800 
     29 N          -2.4195  -18.0811  -46.2328 N.am      9 UNK        -0.5000 
     30 C          -1.3501  -18.1427  -47.0390 C.2       8 UNK         0.5000 
     31 O          -1.1280  -19.0789  -47.8038 O.2       8 UNK        -0.5000 
     32 CA         -0.3310  -16.9931  -46.9330 C.3       8 UNK         0.1400 
     33 CB         -0.8212  -15.7545  -47.6977 C.3       8 UNK        -0.1800 
     34 N          -0.0456  -16.6361  -45.5417 N.am      8 UNK        -0.5000 
     35 C           0.5148  -17.4663  -44.6499 C.2       7 UNK         0.5000 
     36 O           0.9013  -18.6025  -44.9192 O.2       7 UNK        -0.5000 
     37 CA          0.6061  -16.9635  -43.2008 C.3       7 UNK         0.1400 
     38 CB          1.8137  -16.0325  -43.0137 C.3       7 UNK        -0.1800 
     39 N          -0.6219  -16.2833  -42.7889 N.am      7 UNK        -0.5000 
     40 C          -1.7938  -16.9076  -42.5947 C.2       6 UNK         0.5000 
     41 O          -1.9461  -18.1234  -42.7067 O.2       6 UNK        -0.5000 
     42 CA         -3.0099  -16.0231  -42.2632 C.3       6 UNK         0.1400 
     43 CB         -3.0877  -15.7577  -40.7526 C.3       6 UNK        -0.1800 
     44 N          -2.9949  -14.7466  -42.9776 N.am      6 UNK        -0.5000 
     45 C          -3.0604  -14.6134  -44.3104 C.2       5 UNK         0.5000 
     46 O          -3.1973  -15.5601  -45.0834 O.2       5 UNK        -0.5000 
     47 CA         -2.8941  -13.1895  -44.8744 C.3       5 UNK         0.1400 
     48 CB         -4.2646  -12.5282  -45.0800 C.3       5 UNK        -0.1800 
     49 N          -2.0642  -12.3331  -44.0215 N.am      5 UNK        -0.5000 
     50 C          -0.7587  -12.5293  -43.7959 C.2       4 UNK         0.5000 
     51 O          -0.1058  -13.4447  -44.3043 O.2       4 UNK        -0.5000 
     52 CA         -0.0997  -11.5978  -42.7646 C.3       4 UNK         0.1400 
     53 CB         -0.0422  -12.2902  -41.3938 C.3       4 UNK        -0.1800 
     54 N           1.2547  -11.2206  -43.1559 N.am      4 UNK        -0.5000 
     55 C           1.5742  -10.4149  -44.1737 C.2       3 UNK         0.5000 
     56 O           0.7386   -9.8541  -44.8840 O.2       3 UNK        -0.5000 
     57 CA          3.0745  -10.1920  -44.4564 C.3       3 UNK         0.1400 
     58 CB          3.6378   -9.0482  -43.5913 C.3       3 UNK        -0.1800 
     59 N           3.9103  -11.3995  -44.3633 N.am      3 UNK        -0.5000 
     60 C           4.2249  -12.1400  -43.2893 C.2       2 UNK         0.5000 
     61 O           3.8181  -11.9087  -42.1499 O.2       2 UNK        -0.5000 
     62 CA          5.0908  -13.3794  -43.5694 C.3       2 UNK         0.1400 
     63 CB          5.2120  -14.3291  -42.3625 C.3       2 UNK        -0.1800 
     64 N           4.5320  -14.0998  -44.7125 N.am      2 UNK        -0.5000 
     65 C           5.2447  -14.7006  -45.6701 C.2       1 UNK         0.5000 
     66 O           6.4773  -14.7286  -45.6977 O.2       1 UNK        -0.5000 
     67 C           0.4762  -22.3866  -48.0129 C.2       11 UNK         0.5000 
     68 O           0.9066  -23.4304  -48.5033 O.2       11 UNK        -0.5000 
     69 N          -0.6744  -21.8100  -48.3947 N.am      12 UNK        -0.5000 
     70 CA         -1.5967  -22.3731  -49.3824 C.3       12 UNK         0.1400 
     71 CB         -2.7597  -21.4053  -49.6460 C.3       12 UNK        -0.1800 
     72 C          -2.1281  -23.7511  -48.9605 C.2       12 UNK         0.5000 
     73 O          -2.0707  -24.6834  -49.7590 O.2       12 UNK        -0.5000 
     74 N          -2.5766  -23.8707  -47.7028 N.am      13 UNK        -0.5000 
     75 CA         -3.0523  -25.1206  -47.1092 C.3       13 UNK         0.1400 
     76 CB         -3.6096  -24.8483  -45.7043 C.3       13 UNK        -0.1800 
     77 C          -1.9726  -26.2187  -47.0731 C.2       13 UNK         0.5000 
     78 O          -2.2680  -27.3646  -47.4129 O.2       13 UNK        -0.5000 
     79 N          -0.7340  -25.8453  -46.7194 N.am      14 UNK        -0.5000 
     80 CA          0.4400  -26.7227  -46.7411 C.3       14 UNK         0.1400 
     81 CB          1.6229  -26.0130  -46.0654 C.3       14 UNK        -0.1800 
     82 C           0.8201  -27.1891  -48.1610 C.2       14 UNK         0.5000 
     83 O           1.2294  -28.3374  -48.3345 O.2       14 UNK        -0.5000 
     84 N           0.6431  -26.3061  -49.1526 N.am      15 UNK        -0.5000 
     85 CA          0.8265  -26.5846  -50.5792 C.3       15 UNK         0.1400 
     86 CB          1.0628  -25.2534  -51.3128 C.3       15 UNK        -0.1800 
     87 C          -0.3502  -27.3574  -51.2170 C.2       15 UNK         0.5000 
     88 O          -0.2486  -27.7391  -52.3837 O.2       15 UNK        -0.5000 
     89 N          -1.4378  -27.5628  -50.4583 N.am      16 UNK        -0.5000 
     90 CA         -2.7091  -28.1811  -50.8496 C.3       16 UNK         0.1400 
     91 CB         -2.5139  -29.6606  -51.2427 C.3       16 UNK        -0.1800 
     92 C          -3.4865  -27.3649  -51.9064 C.2       16 UNK         0.5000 
     93 O          -4.2104  -27.9393  -52.7223 O.2       16 UNK        -0.5000 
     94 N          -3.3383  -26.0368  -51.8583 N.am      17 UNK        -0.5000 
     95 CA         -4.0781  -25.0644  -52.6552 C.3       17 UNK         0.1400 
     96 CB         -3.1005  -23.9716  -53.1200 C.3       17 UNK        -0.1800 
     97 C          -5.1998  -24.4441  -51.8058 C.2       17 UNK         0.5000 
     98 O          -5.1289  -24.4561  -50.5741 O.2       17 UNK        -0.5000 
     99 N          -6.2083  -23.8781  -52.4774 N.am      18 UNK        -0.5000 
    100 CA        -7.2544  -23.0836  -51.8390 C.3       18 UNK         0.1400 
    101 CB        -8.4806  -23.0119  -52.7621 C.3       18 UNK        -0.1800 
    102 C         -6.7156  -21.6773  -51.5350 C.2       18 UNK         0.5000 
    103 O         -6.2304  -21.0058  -52.4483 O.2       18 UNK        -0.5000 
    104 N         -6.8325  -21.2399  -50.2756 N.am      19 UNK        -0.5000 
    105 CA        -6.3523  -19.9389  -49.7967 C.3       19 UNK         0.1400 
    106 CB        -6.5195  -19.8722  -48.2714 C.3       19 UNK        -0.1800 
    107 C         -7.0329  -18.7310  -50.4715 C.2       19 UNK         0.5000 
    108 O         -6.4149  -17.6730  -50.5781 O.2       19 UNK        -0.5000 
    109 N         -8.2780  -18.9177  -50.9310 N.am      20 UNK        -0.5000 
    110 CA        -9.0421  -17.9267  -51.6890 C.3       20 UNK         0.1400 
    111 CB       -10.5312  -18.3023  -51.6386 C.3       20 UNK        -0.1800 
    112 C         -8.5724  -17.7904  -53.1514 C.2       20 UNK         0.5000 
    113 O         -8.7246  -16.7150  -53.7320 O.2       20 UNK        -0.5000 
    114 N         -8.0271  -18.8731  -53.7245 N.am      21 UNK        -0.5000 
    115 CA        -7.4892  -18.9016  -55.0862 C.3       21 UNK         0.1400 
    116 CB        -7.6095  -20.3248  -55.6529 C.3       21 UNK        -0.1800 
    117 C         -6.0262  -18.4290  -55.1246 C.2       21 UNK         0.5000 
    118 O         -5.6247  -17.7700  -56.0846 O.2       21 UNK        -0.5000 
    119 N         -5.2636  -18.7820  -54.0827 N.am      22 UNK        -0.5000 
    120 CA        -3.8681  -18.3863  -53.8604 C.3       22 UNK         0.1400 
    121 C         -3.6741  -16.8450  -53.7519 C.2       22 UNK         0.5000 
    122 N         -2.5967  -16.3076  -54.3082 N.am      22 UNK        -0.7600 
    123 O         -4.4715  -16.1373  -53.1418 O.2       22 UNK        -0.5000 
    124 C124       -3.3034  -19.1215  -52.6198 C.3       23 UNK        -0.0398 
    125 S125       -1.4862  -19.2609  -52.6392 S.3       23 UNK        -0.2404 
    126 C126       -1.0448  -18.1101  -51.2964 C.3       23 UNK        -0.0205 
    127 H127        4.6235  -19.0955  -45.2232 H         1 UNK         0.0600 
    128 H128        3.4489  -17.8462  -45.6045 H         1 UNK         0.0600 
    129 H129        4.8840  -17.4540  -44.6386 H         1 UNK         0.0600 
    130 H130        5.6868  -16.3342  -48.1649 H         1 UNK         0.3000 
    131 H131        3.4811  -15.6923  -46.3683 H         1 UNK         0.0600 
    132 H132        3.9010  -13.3413  -47.4882 H         1 UNK         0.0800 
    133 H133        4.9608  -14.1810  -48.5829 H         1 UNK         0.0800 
    134 H134        4.3525  -15.9489  -50.0975 H         1 UNK         0.0800 
    135 H135        3.2211  -15.1435  -51.1571 H         1 UNK         0.0800 
    136 H136        0.7078  -16.0428  -51.0132 H         1 UNK         0.1150 
    137 H137        0.4681  -20.3102  -50.7218 H         1 UNK         0.1150 
    138 H138        4.1602  -18.3118  -49.8643 H         1 UNK         0.1150 
    139 H139        2.3650  -21.6212  -50.2462 H         1 UNK         0.0800 
    140 H140        3.9095  -20.9233  -50.6523 H         1 UNK         0.0800 
    141 H141        1.4886  -19.7921  -47.8538 H         1 UNK         0.0800 
    142 H142        2.4719  -19.9930  -46.4457 H         1 UNK         0.0800 
    143 H143        1.9297  -22.4757  -46.4465 H         1 UNK         0.0600 
    144 H144        0.2950  -20.3477  -45.5559 H         1 UNK         0.3000 
    145 H145       -2.0961  -22.3134  -43.7591 H         1 UNK         0.0600 
    146 H146       -0.0919  -22.0152  -42.2913 H         1 UNK         0.0600 
    147 H147        0.1242  -20.3800  -42.9052 H         1 UNK         0.0600 
    148 H148       -1.3130  -20.7924  -41.9728 H         1 UNK         0.0600 
    149 H149       -1.8627  -19.5026  -44.1240 H         1 UNK         0.3000 
    150 H150       -3.8213  -19.3006  -47.1423 H         1 UNK         0.0600 
    151 H151       -5.4046  -19.3621  -45.2121 H         1 UNK         0.0600 
    152 H152       -5.0491  -17.7089  -45.6910 H         1 UNK         0.0600 
    153 H153       -4.2925  -18.3923  -44.2536 H         1 UNK         0.0600 
    154 H154       -2.5614  -17.2451  -45.6719 H         1 UNK         0.3000 
    155 H155        0.6030  -17.3268  -47.3911 H         1 UNK         0.0600 
    156 H156       -1.7879  -15.4062  -47.3349 H         1 UNK         0.0600 
    157 H157       -0.1162  -14.9286  -47.6080 H         1 UNK         0.0600 
    158 H158       -0.9311  -15.9756  -48.7599 H         1 UNK         0.0600 
    159 H159       -0.3397  -15.7193  -45.2330 H         1 UNK         0.3000 
    160 H160        0.7475  -17.8320  -42.5537 H         1 UNK         0.0600 
    161 H161        1.7535  -15.1514  -43.6514 H         1 UNK         0.0600 
    162 H162        2.7431  -16.5489  -43.2569 H         1 UNK         0.0600 
    163 H163        1.8918  -15.6931  -41.9808 H         1 UNK         0.0600 
    164 H164       -0.5879  -15.2760  -42.7328 H         1 UNK         0.3000 
    165 H165       -3.9086  -16.5660  -42.5631 H         1 UNK         0.0600 
    166 H166       -3.9874  -15.1979  -40.4963 H         1 UNK         0.0600 
    167 H167       -3.1188  -16.6939  -40.1935 H         1 UNK         0.0600 
    168 H168       -2.2261  -15.1912  -40.3970 H         1 UNK         0.0600 
    169 H169       -2.8953  -13.9132  -42.4181 H         1 UNK         0.3000 
    170 H170       -2.4050  -13.2757  -45.8470 H         1 UNK         0.0600 
    171 H171       -4.8963  -13.1346  -45.7307 H         1 UNK         0.0600 
    172 H172       -4.7955  -12.3972  -44.1362 H         1 UNK         0.0600 
    173 H173       -4.1639  -11.5490  -45.5484 H         1 UNK         0.0600 
    174 H174       -2.5327  -11.5631  -43.5655 H         1 UNK         0.3000 
    175 H175       -0.6949  -10.6869  -42.6725 H         1 UNK         0.0600 
    176 H176        0.5619  -13.1982  -41.4265 H         1 UNK         0.0600 
    177 H177        0.3871  -11.6318  -40.6383 H         1 UNK         0.0600 
    178 H178       -1.0392  -12.5695  -41.0508 H         1 UNK         0.0600 
    179 H179        2.0206  -11.6259  -42.6259 H         1 UNK         0.3000 
    180 H180        3.1448   -9.8720  -45.4973 H         1 UNK         0.0600 
    181 H181        3.5829   -9.2747  -42.5262 H         1 UNK         0.0600 
    182 H182        3.0780   -8.1265  -43.7551 H         1 UNK         0.0600 
    183 H183        4.6795   -8.8433  -43.8380 H         1 UNK         0.0600 
    184 H184        4.2853  -11.7107  -45.2481 H         1 UNK         0.3000 
    185 H185        6.0880  -13.0073  -43.8139 H         1 UNK         0.0600 
    186 H186        5.6714  -13.8236  -41.5123 H         1 UNK         0.0600 
    187 H187        4.2379  -14.6960  -42.0394 H         1 UNK         0.0600 
    188 H188        5.8334  -15.1925  -42.6004 H         1 UNK         0.0600 
    189 H189        3.5231  -14.0901  -44.7755 H         1 UNK         0.3000 
    190 H190       -0.9351  -20.9140  -47.9887 H         1 UNK         0.3000 
    191 H191       -1.0422  -22.4971  -50.3147 H         1 UNK         0.0600 
    192 H192       -3.3726  -21.2516  -48.7589 H         1 UNK         0.0600 
    193 H193       -3.4138  -21.7867  -50.4313 H         1 UNK         0.0600 
    194 H194       -2.3953  -20.4334  -49.9683 H         1 UNK         0.0600 
    195 H195       -2.6217  -23.0406  -47.1176 H         1 UNK         0.3000 
    196 H196       -3.8713  -25.4844  -47.7335 H         1 UNK         0.0600 
    197 H197       -3.9994  -25.7623  -45.2549 H         1 UNK         0.0600 
    198 H198       -4.4269  -24.1276  -45.7384 H         1 UNK         0.0600 
    199 H199       -2.8446  -24.4534  -45.0358 H         1 UNK         0.0600 
    200 H200       -0.5832  -24.8907  -46.4049 H         1 UNK         0.3000 
    201 H201        0.2000  -27.6124  -46.1554 H         1 UNK         0.0600 
    202 H202        1.3860  -25.7460  -45.0354 H         1 UNK         0.0600 
    203 H203        1.8990  -25.0992  -46.5920 H         1 UNK         0.0600 
    204 H204        2.5029  -26.6568  -46.0410 H         1 UNK         0.0600 
    205 H205        0.3587  -25.3609  -48.9145 H         1 UNK         0.3000 
    206 H206        1.7204  -27.1997  -50.7001 H         1 UNK         0.0600 
    207 H207        1.9177  -24.7197  -50.8969 H         1 UNK         0.0600 
    208 H208        1.2669  -25.4182  -52.3714 H         1 UNK         0.0600 
    209 H209        0.1950  -24.5971  -51.2452 H         1 UNK         0.0600 
    210 H210       -1.4229  -27.1799  -49.5215 H         1 UNK         0.3000 
    211 H211       -3.3301  -28.1652  -49.9530 H         1 UNK         0.0600 
    212 H212       -1.9685  -29.7643  -52.1808 H         1 UNK         0.0600 
    213 H213       -3.4748  -30.1608  -51.3685 H         1 UNK         0.0600 
    214 H214       -1.9657  -30.2036  -50.4727 H         1 UNK         0.0600 
    215 H215       -2.7926  -25.6384  -51.0946 H         1 UNK         0.3000 
    216 H216       -4.5191  -25.5423  -53.5323 H         1 UNK         0.0600 
    217 H217       -3.6063  -23.2228  -53.7310 H         1 UNK         0.0600 
    218 H218       -2.2965  -24.3947  -53.7224 H         1 UNK         0.0600 
    219 H219       -2.6452  -23.4518  -52.2763 H         1 UNK         0.0600 
    220 H220       -6.1852  -23.8625  -53.4866 H         1 UNK         0.3000 
    221 H221       -7.5592  -23.5656  -50.9074 H         1 UNK         0.0600 
    222 H222       -8.2373  -22.5727  -53.7293 H         1 UNK         0.0600 
    223 H223       -8.8934  -24.0046  -52.9425 H         1 UNK         0.0600 
    224 H224       -9.2718  -22.4079  -52.3163 H         1 UNK         0.0600 
    225 H225       -7.2389  -21.8504  -49.5813 H         1 UNK         0.3000 
    226 H226       -5.2867  -19.8743  -50.0247 H         1 UNK         0.0600 
    227 H227       -5.9365  -20.6491  -47.7757 H         1 UNK         0.0600 
    228 H228       -6.1792  -18.9115  -47.8831 H         1 UNK         0.0600 
    229 H229       -7.5622  -19.9926  -47.9753 H         1 UNK         0.0600 
    230 H230       -8.7166  -19.8138  -50.7789 H         1 UNK         0.3000 
    231 H231       -8.9206  -16.9528  -51.2097 H         1 UNK         0.0600 
    232 H232      -11.1370  -17.5692  -52.1730 H         1 UNK         0.0600 
    233 H233      -10.8952  -18.3356  -50.6116 H         1 UNK         0.0600 
    234 H234      -10.7172  -19.2759  -52.0937 H         1 UNK         0.0600 
    235 H235       -7.8827  -19.7024  -53.1655 H         1 UNK         0.3000 
    236 H236       -8.0776  -18.2367  -55.7222 H         1 UNK         0.0600 
    237 H237       -8.6405  -20.6775  -55.6227 H         1 UNK         0.0600 
    238 H238       -7.2853  -20.3555  -56.6938 H         1 UNK         0.0600 
    239 H239       -6.9930  -21.0339  -55.0998 H         1 UNK         0.0600 
    240 H240       -5.6763  -19.3759  -53.3715 H         1 UNK         0.3000 
    241 H241       -3.3213  -18.7321  -54.7399 H         1 UNK         0.0600 
    242 H242       -1.9181  -16.8729  -54.7945 H         1 UNK         0.3800 
    243 H243       -2.4542  -15.3122  -54.2399 H         1 UNK         0.3800 
    244 H244       -3.6515  -18.6585  -51.6947 H         1 UNK         0.0800 
    245 H245       -3.6771  -20.1461  -52.5931 H         1 UNK         0.0800 
    246 H246       -1.3229  -17.0996  -51.5997 H         1 UNK         0.0800 
    247 H247       -1.6269  -18.3342  -50.4031 H         1 UNK         0.0800 
@<TRIPOS>BOND
     1    1    2 1    
     2    1  127 1    
     3    1  128 1    
     4    1  129 1    
     5    2    3 2    
     6    2    4 am   BACKBONE|DICT|INTERRES
     7    4    5 1    
     8    4  130 1    
     9    5    6 1    
    10    5   65 1    
    11    5  131 1    
    12    6    7 1    
    13    6  132 1    
    14    6  133 1    
    15    7    8 1    
    16    8    9 1    
    17    8  134 1    
    18    8  135 1    
    19    9   10 ar   
    20    9   14 ar   
    21   10   11 ar   
    22   10  136 1    
    23   11   12 ar   
    24   11  126 1    
    25   12   13 ar   
    26   12  137 1    
    27   13   14 ar   
    28   13   15 1    
    29   14  138 1    
    30   15   16 1    
    31   15  139 1    
    32   15  140 1    
    33   16   17 1    
    34   17   18 1    
    35   17  141 1    
    36   17  142 1    
    37   18   19 1    
    38   18   67 1    
    39   18  143 1    
    40   19   20 am   BACKBONE|DICT|INTERRES
    41   19  144 1    
    42   20   21 2    
    43   20   22 1    
    44   22   23 1    
    45   22   24 1    
    46   22  145 1    
    47   23  146 1    
    48   23  147 1    
    49   23  148 1    
    50   24   25 am   BACKBONE|DICT|INTERRES
    51   24  149 1    
    52   25   26 2    
    53   25   27 1    
    54   27   28 1    
    55   27   29 1    
    56   27  150 1    
    57   28  151 1    
    58   28  152 1    
    59   28  153 1    
    60   29   30 am   BACKBONE|DICT|INTERRES
    61   29  154 1    
    62   30   31 2    
    63   30   32 1    
    64   32   33 1    
    65   32   34 1    
    66   32  155 1    
    67   33  156 1    
    68   33  157 1    
    69   33  158 1    
    70   34   35 am   BACKBONE|DICT|INTERRES
    71   34  159 1    
    72   35   36 2    
    73   35   37 1    
    74   37   38 1    
    75   37   39 1    
    76   37  160 1    
    77   38  161 1    
    78   38  162 1    
    79   38  163 1    
    80   39   40 am   BACKBONE|DICT|INTERRES
    81   39  164 1    
    82   40   41 2    
    83   40   42 1    
    84   42   43 1    
    85   42   44 1    
    86   42  165 1    
    87   43  166 1    
    88   43  167 1    
    89   43  168 1    
    90   44   45 am   BACKBONE|DICT|INTERRES
    91   44  169 1    
    92   45   46 2    
    93   45   47 1    
    94   47   48 1    
    95   47   49 1    
    96   47  170 1    
    97   48  171 1    
    98   48  172 1    
    99   48  173 1    
   100   49   50 am   BACKBONE|DICT|INTERRES
   101   49  174 1    
   102   50   51 2    
   103   50   52 1    
   104   52   53 1    
   105   52   54 1    
   106   52  175 1    
   107   53  176 1    
   108   53  177 1    
   109   53  178 1    
   110   54   55 am   BACKBONE|DICT|INTERRES
   111   54  179 1    
   112   55   56 2    
   113   55   57 1    
   114   57   58 1    
   115   57   59 1    
   116   57  180 1    
   117   58  181 1    
   118   58  182 1    
   119   58  183 1    
   120   59   60 am   BACKBONE|DICT|INTERRES
   121   59  184 1    
   122   60   61 2    
   123   60   62 1    
   124   62   63 1    
   125   62   64 1    
   126   62  185 1    
   127   63  186 1    
   128   63  187 1    
   129   63  188 1    
   130   64   65 am   BACKBONE|DICT|INTERRES
   131   64  189 1    
   132   65   66 2    
   133   67   68 2    
   134   67   69 am   BACKBONE|DICT|INTERRES
   135   69   70 1    
   136   69  190 1    
   137   70   71 1    
   138   70   72 1    
   139   70  191 1    
   140   71  192 1    
   141   71  193 1    
   142   71  194 1    
   143   72   73 2    
   144   72   74 am   BACKBONE|DICT|INTERRES
   145   74   75 1    
   146   74  195 1    
   147   75   76 1    
   148   75   77 1    
   149   75  196 1    
   150   76  197 1    
   151   76  198 1    
   152   76  199 1    
   153   77   78 2    
   154   77   79 am   BACKBONE|DICT|INTERRES
   155   79   80 1    
   156   79  200 1    
   157   80   81 1    
   158   80   82 1    
   159   80  201 1    
   160   81  202 1    
   161   81  203 1    
   162   81  204 1    
   163   82   83 2    
   164   82   84 am   BACKBONE|DICT|INTERRES
   165   84   85 1    
   166   84  205 1    
   167   85   86 1    
   168   85   87 1    
   169   85  206 1    
   170   86  207 1    
   171   86  208 1    
   172   86  209 1    
   173   87   88 2    
   174   87   89 am   BACKBONE|DICT|INTERRES
   175   89   90 1    
   176   89  210 1    
   177   90   91 1    
   178   90   92 1    
   179   90  211 1    
   180   91  212 1    
   181   91  213 1    
   182   91  214 1    
   183   92   93 2    
   184   92   94 am   BACKBONE|DICT|INTERRES
   185   94   95 1    
   186   94  215 1    
   187   95   96 1    
   188   95   97 1    
   189   95  216 1    
   190   96  217 1    
   191   96  218 1    
   192   96  219 1    
   193   97   98 2    
   194   97   99 am   BACKBONE|DICT|INTERRES
   195   99  100 1    
   196   99  220 1    
   197  100  101 1    
   198  100  102 1    
   199  100  221 1    
   200  101  222 1    
   201  101  223 1    
   202  101  224 1    
   203  102  103 2    
   204  102  104 am   BACKBONE|DICT|INTERRES
   205  104  105 1    
   206  104  225 1    
   207  105  106 1    
   208  105  107 1    
   209  105  226 1    
   210  106  227 1    
   211  106  228 1    
   212  106  229 1    
   213  107  108 2    
   214  107  109 am   BACKBONE|DICT|INTERRES
   215  109  110 1    
   216  109  230 1    
   217  110  111 1    
   218  110  112 1    
   219  110  231 1    
   220  111  232 1    
   221  111  233 1    
   222  111  234 1    
   223  112  113 2    
   224  112  114 am   BACKBONE|DICT|INTERRES
   225  114  115 1    
   226  114  235 1    
   227  115  116 1    
   228  115  117 1    
   229  115  236 1    
   230  116  237 1    
   231  116  238 1    
   232  116  239 1    
   233  117  118 2    
   234  117  119 am   BACKBONE|DICT|INTERRES
   235  119  120 1    
   236  119  240 1    
   237  120  121 1    
   238  120  124 1    
   239  120  241 1    
   240  121  122 am   BACKBONE|DICT|INTERRES
   241  121  123 2    
   242  122  242 1    
   243  122  243 1    
   244  124  125 1    
   245  124  244 1    
   246  124  245 1    
   247  125  126 1    
   248  126  246 1    
   249  126  247 1    
@<TRIPOS>SUBSTRUCTURE
     1 UNK         1 GROUP             0       ****    0 ROOT    
