@<TRIPOS>MOLECULE
3R540
247   249    1
SMALL
USER_CHARGES


@<TRIPOS>ATOM
      1 CA          4.3698  -18.0485  -46.4192 C.3       0 UNK        -0.1800 
      2 C           4.9034  -17.7827  -47.8253 C.2       0 UNK         0.5000 
      3 O           5.8947  -18.3986  -48.2098 O.2       0 UNK        -0.5000 
      4 N           4.3080  -16.8903  -48.6320 N.am      1 UNK        -0.5000 
      5 CA          3.1550  -16.0235  -48.3442 C.3       1 UNK         0.1400 
      6 C6          2.7073  -15.2713  -49.6231 C.3       23 UNK        -0.0398 
      7 S7          0.9712  -14.7070  -49.5627 S.3       23 UNK        -0.2404 
      8 C8          0.3052  -15.3708  -51.1205 C.3       23 UNK        -0.0205 
      9 C9         -0.2273  -16.7853  -50.9553 C.ar      23 UNK        -0.0193 
     10 C10        -1.5964  -16.9949  -50.7754 C.ar      23 UNK        -0.1150 
     11 C11        -2.1129  -18.2888  -50.6773 C.ar      23 UNK        -0.0193 
     12 C12        -1.2382  -19.3798  -50.7158 C.ar      23 UNK        -0.1150 
     13 C13         0.1363  -19.1845  -50.8882 C.ar      23 UNK        -0.0193 
     14 C14         0.6325  -17.8850  -51.0219 C.ar      23 UNK        -0.1150 
     15 C15         1.0798  -20.3796  -50.9603 C.3       23 UNK        -0.0205 
     16 S16         2.4084  -20.3365  -49.7055 S.3       23 UNK        -0.2404 
     17 C17         1.4780  -20.1801  -48.1438 C.3       23 UNK        -0.0398 
     18 CA          1.1949  -21.5256  -47.4344 C.3       11 UNK         0.1400 
     19 N           0.8086  -21.3226  -46.0365 N.am      11 UNK        -0.5000 
     20 C           0.6013  -22.2930  -45.1361 C.2       10 UNK         0.5000 
     21 O           0.8043  -23.4864  -45.3577 O.2       10 UNK        -0.5000 
     22 CA          0.0133  -21.8617  -43.7790 C.3       10 UNK         0.1400 
     23 CB          1.1162  -21.3642  -42.8334 C.3       10 UNK        -0.1800 
     24 N          -1.0245  -20.8367  -43.9210 N.am      10 UNK        -0.5000 
     25 C          -2.2015  -21.0384  -44.5318 C.2       9 UNK         0.5000 
     26 O          -2.5576  -22.1322  -44.9688 O.2       9 UNK        -0.5000 
     27 CA         -3.1167  -19.8144  -44.7298 C.3       9 UNK         0.1400 
     28 CB         -3.9407  -19.5361  -43.4645 C.3       9 UNK        -0.1800 
     29 N          -2.3844  -18.6091  -45.1227 N.am      9 UNK        -0.5000 
     30 C          -1.6961  -18.4824  -46.2666 C.2       8 UNK         0.5000 
     31 O          -1.6450  -19.3628  -47.1228 O.2       8 UNK        -0.5000 
     32 CA         -0.8623  -17.1976  -46.4492 C.3       8 UNK         0.1400 
     33 CB         -1.7326  -16.0256  -46.9232 C.3       8 UNK        -0.1800 
     34 N          -0.1477  -16.8227  -45.2269 N.am      8 UNK        -0.5000 
     35 C           0.7840  -17.5864  -44.6391 C.2       7 UNK         0.5000 
     36 O           1.1865  -18.6487  -45.1103 O.2       7 UNK        -0.5000 
     37 CA          1.3024  -17.1336  -43.2642 C.3       7 UNK         0.1400 
     38 CB          2.4063  -16.0780  -43.3935 C.3       7 UNK        -0.1800 
     39 N           0.2239  -16.6232  -42.4210 N.am      7 UNK        -0.5000 
     40 C          -0.7179  -17.3949  -41.8612 C.2       6 UNK         0.5000 
     41 O          -0.7427  -18.6211  -41.9605 O.2       6 UNK        -0.5000 
     42 CA         -1.8393  -16.6702  -41.0945 C.3       6 UNK         0.1400 
     43 CB         -1.4131  -16.3957  -39.6448 C.3       6 UNK        -0.1800 
     44 N          -2.2305  -15.4115  -41.7311 N.am      6 UNK        -0.5000 
     45 C          -2.8299  -15.3217  -42.9271 C.2       5 UNK         0.5000 
     46 O          -3.1596  -16.2968  -43.5994 O.2       5 UNK        -0.5000 
     47 CA         -3.0512  -13.9046  -43.4863 C.3       5 UNK         0.1400 
     48 CB         -4.3972  -13.3393  -43.0097 C.3       5 UNK        -0.1800 
     49 N          -1.9761  -12.9763  -43.1249 N.am      5 UNK        -0.5000 
     50 C          -0.7087  -13.0894  -43.5421 C.2       4 UNK         0.5000 
     51 O          -0.3072  -13.9930  -44.2784 O.2       4 UNK        -0.5000 
     52 CA          0.2826  -12.0568  -42.9961 C.3       4 UNK         0.1400 
     53 CB          0.9534  -12.5754  -41.7121 C.3       4 UNK        -0.1800 
     54 N           1.3007  -11.7748  -44.0039 N.am      4 UNK        -0.5000 
     55 C           1.9110  -10.5920  -44.1527 C.2       3 UNK         0.5000 
     56 O           1.6936   -9.6222  -43.4235 O.2       3 UNK        -0.5000 
     57 CA          2.9494  -10.4854  -45.2834 C.3       3 UNK         0.1400 
     58 CB          3.8285   -9.2217  -45.1890 C.3       3 UNK        -0.1800 
     59 N           3.7910  -11.6790  -45.3005 N.am      3 UNK        -0.5000 
     60 C           4.3774  -12.1912  -46.3874 C.2       2 UNK         0.5000 
     61 O           4.3032  -11.6803  -47.5071 O.2       2 UNK        -0.5000 
     62 CA          5.1791  -13.5007  -46.2173 C.3       2 UNK         0.1400 
     63 CB          5.2445  -14.0299  -44.7672 C.3       2 UNK        -0.1800 
     64 N           4.6884  -14.5403  -47.1267 N.am      2 UNK        -0.5000 
     65 C           3.4354  -15.0175  -47.2052 C.2       1 UNK         0.5000 
     66 O           2.5306  -14.7101  -46.4307 O.2       1 UNK        -0.5000 
     67 C           0.1430  -22.3647  -48.1886 C.2       11 UNK         0.5000 
     68 O           0.5051  -23.3437  -48.8396 O.2       11 UNK        -0.5000 
     69 N          -1.1398  -22.0004  -48.0513 N.am      12 UNK        -0.5000 
     70 CA         -2.2727  -22.7222  -48.6298 C.3       12 UNK         0.1400 
     71 CB         -3.5677  -21.9355  -48.3927 C.3       12 UNK        -0.1800 
     72 C          -2.4100  -24.1606  -48.1027 C.2       12 UNK         0.5000 
     73 O          -2.6932  -25.0658  -48.8858 O.2       12 UNK        -0.5000 
     74 N          -2.1746  -24.3567  -46.7983 N.am      13 UNK        -0.5000 
     75 CA         -2.1475  -25.6695  -46.1537 C.3       13 UNK         0.1400 
     76 CB         -2.0823  -25.4994  -44.6286 C.3       13 UNK        -0.1800 
     77 C          -0.9932  -26.5533  -46.6625 C.2       13 UNK         0.5000 
     78 O          -1.2099  -27.7380  -46.9173 O.2       13 UNK        -0.5000 
     79 N           0.1960  -25.9589  -46.8373 N.am      14 UNK        -0.5000 
     80 CA          1.3805  -26.6141  -47.3967 C.3       14 UNK         0.1400 
     81 CB          2.6126  -25.7223  -47.1793 C.3       14 UNK        -0.1800 
     82 C           1.2162  -26.9728  -48.8863 C.2       14 UNK         0.5000 
     83 O           1.6141  -28.0639  -49.2962 O.2       14 UNK        -0.5000 
     84 N           0.6096  -26.0631  -49.6611 N.am      15 UNK        -0.5000 
     85 CA          0.2641  -26.2542  -51.0724 C.3       15 UNK         0.1400 
     86 CB         -0.0747  -24.8872  -51.6892 C.3       15 UNK        -0.1800 
     87 C          -0.9036  -27.2385  -51.2891 C.2       15 UNK         0.5000 
     88 O          -1.0460  -27.7705  -52.3906 O.2       15 UNK        -0.5000 
     89 N          -1.7167  -27.4427  -50.2428 N.am      16 UNK        -0.5000 
     90 CA         -2.9531  -28.2276  -50.1908 C.3       16 UNK         0.1400 
     91 CB         -2.6777  -29.7215  -50.4609 C.3       16 UNK        -0.1800 
     92 C          -4.0755  -27.6430  -51.0762 C.2       16 UNK         0.5000 
     93 O          -4.9327  -28.3877  -51.5556 O.2       16 UNK        -0.5000 
     94 N          -4.0600  -26.3182  -51.2640 N.am      17 UNK        -0.5000 
     95 CA         -5.0056  -25.5430  -52.0583 C.3       17 UNK         0.1400 
     96 CB         -4.8294  -25.8384  -53.5605 C.3       17 UNK        -0.1800 
     97 C          -4.7609  -24.0545  -51.7875 C.2       17 UNK         0.5000 
     98 O          -3.6106  -23.6464  -51.6100 O.2       17 UNK        -0.5000 
     99 N          -5.8328  -23.2537  -51.8084 N.am      18 UNK        -0.5000 
    100 CA        -5.7826  -21.7965  -51.6894 C.3       18 UNK         0.1400 
    101 CB        -7.1513  -21.2767  -51.2164 C.3       18 UNK        -0.1800 
    102 C         -5.3336  -21.1630  -53.0207 C.2       18 UNK         0.5000 
    103 O         -6.1576  -20.6123  -53.7514 O.2       18 UNK        -0.5000 
    104 N         -4.0319  -21.2848  -53.3131 N.am      19 UNK        -0.5000 
    105 CA        -3.3712  -20.9579  -54.5825 C.3       19 UNK         0.1400 
    106 CB        -1.8567  -21.1541  -54.4078 C.3       19 UNK        -0.1800 
    107 C         -3.6660  -19.5575  -55.1582 C.2       19 UNK         0.5000 
    108 O         -3.7800  -19.4198  -56.3767 O.2       19 UNK        -0.5000 
    109 N         -3.7982  -18.5595  -54.2763 N.am      20 UNK        -0.5000 
    110 CA        -4.1231  -17.1710  -54.6166 C.3       20 UNK         0.1400 
    111 CB        -2.9924  -16.2586  -54.1102 C.3       20 UNK        -0.1800 
    112 C         -5.4951  -16.7395  -54.0563 C.2       20 UNK         0.5000 
    113 O         -5.7514  -15.5384  -53.9635 O.2       20 UNK        -0.5000 
    114 N         -6.3469  -17.7100  -53.6828 N.am      21 UNK        -0.5000 
    115 CA        -7.6928  -17.5395  -53.1154 C.3       21 UNK         0.1400 
    116 CB        -8.6586  -16.9582  -54.1691 C.3       21 UNK        -0.1800 
    117 C         -7.6986  -16.7506  -51.7860 C.2       21 UNK         0.5000 
    118 O         -8.5682  -15.9064  -51.5627 O.2       21 UNK        -0.5000 
    119 N         -6.7097  -17.0396  -50.9311 N.am      22 UNK        -0.5000 
    120 CA        -6.4810  -16.3831  -49.6324 C.3       22 UNK         0.1400 
    121 C         -7.4378  -16.8214  -48.4825 C.2       22 UNK         0.5000 
    122 N         -8.2830  -17.8292  -48.6631 N.am      22 UNK        -0.7600 
    123 O         -7.4256  -16.2214  -47.4112 O.2       22 UNK        -0.5000 
    124 C124       -4.9854  -16.4532  -49.2194 C.3       23 UNK        -0.0398 
    125 S125       -4.3508  -18.1542  -48.9956 S.3       23 UNK        -0.2404 
    126 C126       -3.6166  -18.5139  -50.6204 C.3       23 UNK        -0.0205 
    127 H127        4.4570  -19.1080  -46.1785 H         1 UNK         0.0600 
    128 H128        3.3235  -17.7778  -46.3082 H         1 UNK         0.0600 
    129 H129        4.9491  -17.4861  -45.6871 H         1 UNK         0.0600 
    130 H130        4.7044  -16.7708  -49.5530 H         1 UNK         0.3000 
    131 H131        2.3353  -16.6731  -48.0301 H         1 UNK         0.0600 
    132 H132        3.3468  -14.4090  -49.8226 H         1 UNK         0.0800 
    133 H133        2.8299  -15.9184  -50.4906 H         1 UNK         0.0800 
    134 H134        1.0618  -15.3389  -51.9057 H         1 UNK         0.0800 
    135 H135       -0.4964  -14.7119  -51.4577 H         1 UNK         0.0800 
    136 H136       -2.2625  -16.1460  -50.7450 H         1 UNK         0.1150 
    137 H137       -1.6299  -20.3837  -50.6359 H         1 UNK         0.1150 
    138 H138        1.6907  -17.7377  -51.1776 H         1 UNK         0.1150 
    139 H139        0.5279  -21.3156  -50.8668 H         1 UNK         0.0800 
    140 H140        1.5380  -20.4009  -51.9497 H         1 UNK         0.0800 
    141 H141        0.5638  -19.6130  -48.3058 H         1 UNK         0.0800 
    142 H142        2.0884  -19.5554  -47.4928 H         1 UNK         0.0800 
    143 H143        2.1229  -22.1010  -47.4190 H         1 UNK         0.0600 
    144 H144        0.6731  -20.3590  -45.7420 H         1 UNK         0.3000 
    145 H145       -0.4478  -22.7404  -43.3237 H         1 UNK         0.0600 
    146 H146        0.7099  -21.1058  -41.8554 H         1 UNK         0.0600 
    147 H147        1.8722  -22.1350  -42.6788 H         1 UNK         0.0600 
    148 H148        1.6230  -20.4841  -43.2280 H         1 UNK         0.0600 
    149 H149       -0.8238  -19.9228  -43.5290 H         1 UNK         0.3000 
    150 H150       -3.8124  -20.0508  -45.5374 H         1 UNK         0.0600 
    151 H151       -4.5177  -20.4148  -43.1739 H         1 UNK         0.0600 
    152 H152       -4.6472  -18.7218  -43.6261 H         1 UNK         0.0600 
    153 H153       -3.3062  -19.2662  -42.6207 H         1 UNK         0.0600 
    154 H154       -2.4349  -17.8164  -44.4887 H         1 UNK         0.3000 
    155 H155       -0.1153  -17.3913  -47.2220 H         1 UNK         0.0600 
    156 H156       -2.5386  -15.8086  -46.2228 H         1 UNK         0.0600 
    157 H157       -1.1391  -15.1193  -47.0466 H         1 UNK         0.0600 
    158 H158       -2.1856  -16.2499  -47.8888 H         1 UNK         0.0600 
    159 H159       -0.3788  -15.9254  -44.8126 H         1 UNK         0.3000 
    160 H160        1.7371  -18.0064  -42.7724 H         1 UNK         0.0600 
    161 H161        2.0325  -15.1562  -43.8375 H         1 UNK         0.0600 
    162 H162        3.2179  -16.4413  -44.0244 H         1 UNK         0.0600 
    163 H163        2.8341  -15.8323  -42.4216 H         1 UNK         0.0600 
    164 H164        0.1449  -15.6211  -42.3395 H         1 UNK         0.3000 
    165 H165       -2.7107  -17.3281  -41.0766 H         1 UNK         0.0600 
    166 H166       -2.2265  -15.9493  -39.0726 H         1 UNK         0.0600 
    167 H167       -1.1315  -17.3207  -39.1398 H         1 UNK         0.0600 
    168 H168       -0.5574  -15.7210  -39.5957 H         1 UNK         0.0600 
    169 H169       -2.0017  -14.5596  -41.2411 H         1 UNK         0.3000 
    170 H170       -3.0793  -13.9797  -44.5753 H         1 UNK         0.0600 
    171 H171       -5.2180  -14.0031  -43.2853 H         1 UNK         0.0600 
    172 H172       -4.4235  -13.2169  -41.9262 H         1 UNK         0.0600 
    173 H173       -4.6003  -12.3689  -43.4631 H         1 UNK         0.0600 
    174 H174       -2.2282  -12.2115  -42.5152 H         1 UNK         0.3000 
    175 H175       -0.2727  -11.1442  -42.7680 H         1 UNK         0.0600 
    176 H176        1.5369  -13.4776  -41.8987 H         1 UNK         0.0600 
    177 H177        1.6242  -11.8273  -41.2893 H         1 UNK         0.0600 
    178 H178        0.2123  -12.8132  -40.9481 H         1 UNK         0.0600 
    179 H179        1.4729  -12.5259  -44.6625 H         1 UNK         0.3000 
    180 H180        2.3781  -10.4368  -46.2129 H         1 UNK         0.0600 
    181 H181        4.4158   -9.2114  -44.2702 H         1 UNK         0.0600 
    182 H182        3.2198   -8.3168  -45.2033 H         1 UNK         0.0600 
    183 H183        4.5200   -9.1556  -46.0289 H         1 UNK         0.0600 
    184 H184        3.8798  -12.1677  -44.4203 H         1 UNK         0.3000 
    185 H185        6.1995  -13.2752  -46.5303 H         1 UNK         0.0600 
    186 H186        5.7483  -13.3182  -44.1121 H         1 UNK         0.0600 
    187 H187        4.2552  -14.2186  -44.3539 H         1 UNK         0.0600 
    188 H188        5.8061  -14.9628  -44.7170 H         1 UNK         0.0600 
    189 H189        5.3516  -14.8541  -47.8211 H         1 UNK         0.3000 
    190 H190       -1.3553  -21.1451  -47.5425 H         1 UNK         0.3000 
    191 H191       -2.0998  -22.7793  -49.7050 H         1 UNK         0.0600 
    192 H192       -3.7692  -21.7966  -47.3313 H         1 UNK         0.0600 
    193 H193       -4.4247  -22.4547  -48.8225 H         1 UNK         0.0600 
    194 H194       -3.5126  -20.9511  -48.8521 H         1 UNK         0.0600 
    195 H195       -2.0205  -23.5480  -46.2032 H         1 UNK         0.3000 
    196 H196       -3.0840  -26.1765  -46.3955 H         1 UNK         0.0600 
    197 H197       -2.1030  -26.4678  -44.1274 H         1 UNK         0.0600 
    198 H198       -2.9312  -24.9234  -44.2600 H         1 UNK         0.0600 
    199 H199       -1.1717  -24.9885  -44.3167 H         1 UNK         0.0600 
    200 H200        0.3026  -24.9882  -46.5578 H         1 UNK         0.3000 
    201 H201        1.5380  -27.5449  -46.8478 H         1 UNK         0.0600 
    202 H202        2.7745  -25.5269  -46.1191 H         1 UNK         0.0600 
    203 H203        2.5101  -24.7609  -47.6829 H         1 UNK         0.0600 
    204 H204        3.5139  -26.2007  -47.5642 H         1 UNK         0.0600 
    205 H205        0.3877  -25.1537  -49.2608 H         1 UNK         0.3000 
    206 H206        1.1374  -26.6577  -51.5887 H         1 UNK         0.0600 
    207 H207        0.7642  -24.1961  -51.6048 H         1 UNK         0.0600 
    208 H208       -0.3146  -24.9816  -52.7490 H         1 UNK         0.0600 
    209 H209       -0.9345  -24.4296  -51.1989 H         1 UNK         0.0600 
    210 H210       -1.5320  -26.8947  -49.4120 H         1 UNK         0.3000 
    211 H211       -3.3109  -28.1429  -49.1637 H         1 UNK         0.0600 
    212 H212       -2.3917  -29.9015  -51.4974 H         1 UNK         0.0600 
    213 H213       -3.5634  -30.3245  -50.2582 H         1 UNK         0.0600 
    214 H214       -1.8785  -30.0957  -49.8211 H         1 UNK         0.0600 
    215 H215       -3.3620  -25.7622  -50.7769 H         1 UNK         0.3000 
    216 H216       -6.0199  -25.8005  -51.7470 H         1 UNK         0.0600 
    217 H217       -3.8064  -25.6459  -53.8869 H         1 UNK         0.0600 
    218 H218       -5.4898  -25.2136  -54.1632 H         1 UNK         0.0600 
    219 H219       -5.0656  -26.8754  -53.7979 H         1 UNK         0.0600 
    220 H220       -6.7402  -23.6537  -51.9997 H         1 UNK         0.3000 
    221 H221       -5.0507  -21.5289  -50.9269 H         1 UNK         0.0600 
    222 H222       -7.4197  -21.7028  -50.2495 H         1 UNK         0.0600 
    223 H223       -7.9460  -21.5213  -51.9223 H         1 UNK         0.0600 
    224 H224       -7.1360  -20.1931  -51.0974 H         1 UNK         0.0600 
    225 H225       -3.4779  -21.8346  -52.6657 H         1 UNK         0.3000 
    226 H226       -3.7243  -21.6853  -55.3160 H         1 UNK         0.0600 
    227 H227       -1.6218  -22.1771  -54.1125 H         1 UNK         0.0600 
    228 H228       -1.3250  -20.9558  -55.3393 H         1 UNK         0.0600 
    229 H229       -1.4499  -20.4847  -53.6485 H         1 UNK         0.0600 
    230 H230       -3.6663  -18.7711  -53.3000 H         1 UNK         0.3000 
    231 H231       -4.1847  -17.0502  -55.6997 H         1 UNK         0.0600 
    232 H232       -2.0156  -16.6123  -54.4409 H         1 UNK         0.0600 
    233 H233       -2.9809  -16.2034  -53.0234 H         1 UNK         0.0600 
    234 H234       -3.1122  -15.2417  -54.4854 H         1 UNK         0.0600 
    235 H235       -6.0718  -18.6763  -53.8368 H         1 UNK         0.3000 
    236 H236       -8.0474  -18.5418  -52.8715 H         1 UNK         0.0600 
    237 H237       -9.6844  -16.9534  -53.7990 H         1 UNK         0.0600 
    238 H238       -8.4020  -15.9320  -54.4335 H         1 UNK         0.0600 
    239 H239       -8.6479  -17.5527  -55.0826 H         1 UNK         0.0600 
    240 H240       -6.0542  -17.7621  -51.1787 H         1 UNK         0.3000 
    241 H241       -6.7018  -15.3240  -49.7793 H         1 UNK         0.0600 
    242 H242       -8.9012  -18.0964  -47.9134 H         1 UNK         0.3800 
    243 H243       -8.3144  -18.3229  -49.5391 H         1 UNK         0.3800 
    244 H244       -4.8242  -15.9086  -48.2875 H         1 UNK         0.0800 
    245 H245       -4.3806  -15.9331  -49.9613 H         1 UNK         0.0800 
    246 H246       -4.0979  -17.9127  -51.3902 H         1 UNK         0.0800 
    247 H247       -3.8373  -19.5510  -50.8647 H         1 UNK         0.0800 
@<TRIPOS>BOND
     1    1    2 1    
     2    1  127 1    
     3    1  128 1    
     4    1  129 1    
     5    2    3 2    
     6    2    4 am   BACKBONE|DICT|INTERRES
     7    4    5 1    
     8    4  130 1    
     9    5    6 1    
    10    5   65 1    
    11    5  131 1    
    12    6    7 1    
    13    6  132 1    
    14    6  133 1    
    15    7    8 1    
    16    8    9 1    
    17    8  134 1    
    18    8  135 1    
    19    9   10 ar   
    20    9   14 ar   
    21   10   11 ar   
    22   10  136 1    
    23   11   12 ar   
    24   11  126 1    
    25   12   13 ar   
    26   12  137 1    
    27   13   14 ar   
    28   13   15 1    
    29   14  138 1    
    30   15   16 1    
    31   15  139 1    
    32   15  140 1    
    33   16   17 1    
    34   17   18 1    
    35   17  141 1    
    36   17  142 1    
    37   18   19 1    
    38   18   67 1    
    39   18  143 1    
    40   19   20 am   BACKBONE|DICT|INTERRES
    41   19  144 1    
    42   20   21 2    
    43   20   22 1    
    44   22   23 1    
    45   22   24 1    
    46   22  145 1    
    47   23  146 1    
    48   23  147 1    
    49   23  148 1    
    50   24   25 am   BACKBONE|DICT|INTERRES
    51   24  149 1    
    52   25   26 2    
    53   25   27 1    
    54   27   28 1    
    55   27   29 1    
    56   27  150 1    
    57   28  151 1    
    58   28  152 1    
    59   28  153 1    
    60   29   30 am   BACKBONE|DICT|INTERRES
    61   29  154 1    
    62   30   31 2    
    63   30   32 1    
    64   32   33 1    
    65   32   34 1    
    66   32  155 1    
    67   33  156 1    
    68   33  157 1    
    69   33  158 1    
    70   34   35 am   BACKBONE|DICT|INTERRES
    71   34  159 1    
    72   35   36 2    
    73   35   37 1    
    74   37   38 1    
    75   37   39 1    
    76   37  160 1    
    77   38  161 1    
    78   38  162 1    
    79   38  163 1    
    80   39   40 am   BACKBONE|DICT|INTERRES
    81   39  164 1    
    82   40   41 2    
    83   40   42 1    
    84   42   43 1    
    85   42   44 1    
    86   42  165 1    
    87   43  166 1    
    88   43  167 1    
    89   43  168 1    
    90   44   45 am   BACKBONE|DICT|INTERRES
    91   44  169 1    
    92   45   46 2    
    93   45   47 1    
    94   47   48 1    
    95   47   49 1    
    96   47  170 1    
    97   48  171 1    
    98   48  172 1    
    99   48  173 1    
   100   49   50 am   BACKBONE|DICT|INTERRES
   101   49  174 1    
   102   50   51 2    
   103   50   52 1    
   104   52   53 1    
   105   52   54 1    
   106   52  175 1    
   107   53  176 1    
   108   53  177 1    
   109   53  178 1    
   110   54   55 am   BACKBONE|DICT|INTERRES
   111   54  179 1    
   112   55   56 2    
   113   55   57 1    
   114   57   58 1    
   115   57   59 1    
   116   57  180 1    
   117   58  181 1    
   118   58  182 1    
   119   58  183 1    
   120   59   60 am   BACKBONE|DICT|INTERRES
   121   59  184 1    
   122   60   61 2    
   123   60   62 1    
   124   62   63 1    
   125   62   64 1    
   126   62  185 1    
   127   63  186 1    
   128   63  187 1    
   129   63  188 1    
   130   64   65 am   BACKBONE|DICT|INTERRES
   131   64  189 1    
   132   65   66 2    
   133   67   68 2    
   134   67   69 am   BACKBONE|DICT|INTERRES
   135   69   70 1    
   136   69  190 1    
   137   70   71 1    
   138   70   72 1    
   139   70  191 1    
   140   71  192 1    
   141   71  193 1    
   142   71  194 1    
   143   72   73 2    
   144   72   74 am   BACKBONE|DICT|INTERRES
   145   74   75 1    
   146   74  195 1    
   147   75   76 1    
   148   75   77 1    
   149   75  196 1    
   150   76  197 1    
   151   76  198 1    
   152   76  199 1    
   153   77   78 2    
   154   77   79 am   BACKBONE|DICT|INTERRES
   155   79   80 1    
   156   79  200 1    
   157   80   81 1    
   158   80   82 1    
   159   80  201 1    
   160   81  202 1    
   161   81  203 1    
   162   81  204 1    
   163   82   83 2    
   164   82   84 am   BACKBONE|DICT|INTERRES
   165   84   85 1    
   166   84  205 1    
   167   85   86 1    
   168   85   87 1    
   169   85  206 1    
   170   86  207 1    
   171   86  208 1    
   172   86  209 1    
   173   87   88 2    
   174   87   89 am   BACKBONE|DICT|INTERRES
   175   89   90 1    
   176   89  210 1    
   177   90   91 1    
   178   90   92 1    
   179   90  211 1    
   180   91  212 1    
   181   91  213 1    
   182   91  214 1    
   183   92   93 2    
   184   92   94 am   BACKBONE|DICT|INTERRES
   185   94   95 1    
   186   94  215 1    
   187   95   96 1    
   188   95   97 1    
   189   95  216 1    
   190   96  217 1    
   191   96  218 1    
   192   96  219 1    
   193   97   98 2    
   194   97   99 am   BACKBONE|DICT|INTERRES
   195   99  100 1    
   196   99  220 1    
   197  100  101 1    
   198  100  102 1    
   199  100  221 1    
   200  101  222 1    
   201  101  223 1    
   202  101  224 1    
   203  102  103 2    
   204  102  104 am   BACKBONE|DICT|INTERRES
   205  104  105 1    
   206  104  225 1    
   207  105  106 1    
   208  105  107 1    
   209  105  226 1    
   210  106  227 1    
   211  106  228 1    
   212  106  229 1    
   213  107  108 2    
   214  107  109 am   BACKBONE|DICT|INTERRES
   215  109  110 1    
   216  109  230 1    
   217  110  111 1    
   218  110  112 1    
   219  110  231 1    
   220  111  232 1    
   221  111  233 1    
   222  111  234 1    
   223  112  113 2    
   224  112  114 am   BACKBONE|DICT|INTERRES
   225  114  115 1    
   226  114  235 1    
   227  115  116 1    
   228  115  117 1    
   229  115  236 1    
   230  116  237 1    
   231  116  238 1    
   232  116  239 1    
   233  117  118 2    
   234  117  119 am   BACKBONE|DICT|INTERRES
   235  119  120 1    
   236  119  240 1    
   237  120  121 1    
   238  120  124 1    
   239  120  241 1    
   240  121  122 am   BACKBONE|DICT|INTERRES
   241  121  123 2    
   242  122  242 1    
   243  122  243 1    
   244  124  125 1    
   245  124  244 1    
   246  124  245 1    
   247  125  126 1    
   248  126  246 1    
   249  126  247 1    
@<TRIPOS>SUBSTRUCTURE
     1 UNK         1 GROUP             0       ****    0 ROOT    
