@<TRIPOS>MOLECULE
3R540
247   249    1
SMALL
USER_CHARGES


@<TRIPOS>ATOM
      1 CA         -1.3108  -16.7890  -42.0808 C.3       0 UNK        -0.1800 
      2 C          -2.2979  -16.1040  -43.0094 C.2       0 UNK         0.5000 
      3 O          -3.4678  -15.9550  -42.6549 O.2       0 UNK        -0.5000 
      4 N          -1.8347  -15.6636  -44.1851 N.am      1 UNK        -0.5000 
      5 CA         -2.6048  -14.8523  -45.1280 C.3       1 UNK         0.1400 
      6 C6         -2.1700  -15.1243  -46.5883 C.3       23 UNK        -0.0398 
      7 S7         -3.3419  -14.4285  -47.7975 S.3       23 UNK        -0.2404 
      8 C8         -2.4935  -14.8022  -49.3648 C.3       23 UNK        -0.0205 
      9 C9         -2.6071  -16.2682  -49.7634 C.ar      23 UNK        -0.0193 
     10 C10        -3.8648  -16.8513  -49.9449 C.ar      23 UNK        -0.1150 
     11 C11        -3.9834  -18.1825  -50.3509 C.ar      23 UNK        -0.0193 
     12 C12        -2.8244  -18.9251  -50.6009 C.ar      23 UNK        -0.1150 
     13 C13        -1.5594  -18.3591  -50.4210 C.ar      23 UNK        -0.0193 
     14 C14        -1.4583  -17.0312  -49.9939 C.ar      23 UNK        -0.1150 
     15 C15        -0.3026  -19.1623  -50.7266 C.3       23 UNK        -0.0205 
     16 S16         0.2144  -20.2175  -49.3347 S.3       23 UNK        -0.2404 
     17 C17        -0.7325  -21.7462  -49.6395 C.3       23 UNK        -0.0398 
     18 CA         -1.6044  -22.2173  -48.4544 C.3       11 UNK         0.1400 
     19 N          -0.8435  -22.4792  -47.2295 N.am      11 UNK        -0.5000 
     20 C          -1.2767  -23.2752  -46.2414 C.2       10 UNK         0.5000 
     21 O          -2.3793  -23.8243  -46.2473 O.2       10 UNK        -0.5000 
     22 CA         -0.3402  -23.4582  -45.0353 C.3       10 UNK         0.1400 
     23 CB          0.9663  -24.1606  -45.4374 C.3       10 UNK        -0.1800 
     24 N          -0.0371  -22.1816  -44.3938 N.am      10 UNK        -0.5000 
     25 C          -0.9316  -21.4512  -43.7141 C.2       9 UNK         0.5000 
     26 O          -2.0862  -21.8161  -43.4915 O.2       9 UNK        -0.5000 
     27 CA         -0.4702  -20.0723  -43.2051 C.3       9 UNK         0.1400 
     28 CB          0.0452  -20.1844  -41.7620 C.3       9 UNK        -0.1800 
     29 N           0.5522  -19.4105  -44.0222 N.am      9 UNK        -0.5000 
     30 C           0.4622  -19.1305  -45.3304 C.2       8 UNK         0.5000 
     31 O          -0.4914  -19.4794  -46.0229 O.2       8 UNK        -0.5000 
     32 CA          1.6146  -18.3329  -45.9773 C.3       8 UNK         0.1400 
     33 CB          1.0876  -17.3106  -46.9992 C.3       8 UNK        -0.1800 
     34 N           2.4551  -17.6331  -45.0006 N.am      8 UNK        -0.5000 
     35 C           3.4920  -18.1738  -44.3433 C.2       7 UNK         0.5000 
     36 O           3.8235  -19.3530  -44.4646 O.2       7 UNK        -0.5000 
     37 CA          4.2905  -17.2657  -43.3839 C.3       7 UNK         0.1400 
     38 CB          5.6424  -16.8870  -44.0083 C.3       7 UNK        -0.1800 
     39 N           3.5853  -16.0372  -43.0160 N.am      7 UNK        -0.5000 
     40 C           2.5464  -15.9662  -42.1724 C.2       6 UNK         0.5000 
     41 O           2.1057  -16.9354  -41.5553 O.2       6 UNK        -0.5000 
     42 CA          1.8667  -14.5883  -42.0205 C.3       6 UNK         0.1400 
     43 CB          2.3674  -13.8710  -40.7586 C.3       6 UNK        -0.1800 
     44 N           2.0518  -13.7049  -43.1763 N.am      6 UNK        -0.5000 
     45 C           1.6000  -13.9547  -44.4124 C.2       5 UNK         0.5000 
     46 O           0.9690  -14.9704  -44.7107 O.2       5 UNK        -0.5000 
     47 CA          1.9337  -12.8910  -45.4673 C.3       5 UNK         0.1400 
     48 CB          1.4177  -13.2137  -46.8815 C.3       5 UNK        -0.1800 
     49 N           1.4117  -11.6032  -45.0264 N.am      5 UNK        -0.5000 
     50 C           2.0072  -10.4224  -45.2256 C.2       4 UNK         0.5000 
     51 O           3.0801  -10.2874  -45.8155 O.2       4 UNK        -0.5000 
     52 CA          1.2909   -9.1766  -44.6709 C.3       4 UNK         0.1400 
     53 CB          0.4054   -8.5436  -45.7555 C.3       4 UNK        -0.1800 
     54 N           0.4695   -9.4453  -43.4893 N.am      4 UNK        -0.5000 
     55 C           0.9367   -9.7827  -42.2781 C.2       3 UNK         0.5000 
     56 O           2.1318   -9.9294  -42.0213 O.2       3 UNK        -0.5000 
     57 CA         -0.1119   -9.9916  -41.1669 C.3       3 UNK         0.1400 
     58 CB         -0.2737   -8.7113  -40.3333 C.3       3 UNK        -0.1800 
     59 N          -1.4208  -10.3880  -41.6945 N.am      3 UNK        -0.5000 
     60 C          -1.6882  -11.6036  -42.1882 C.2       2 UNK         0.5000 
     61 O          -0.8786  -12.5327  -42.1511 O.2       2 UNK        -0.5000 
     62 CA         -3.0891  -11.8116  -42.8077 C.3       2 UNK         0.1400 
     63 CB         -3.5603  -10.6062  -43.6520 C.3       2 UNK        -0.1800 
     64 N          -3.1725  -13.0540  -43.5827 N.am      2 UNK        -0.5000 
     65 C          -2.4817  -13.3767  -44.6871 C.2       1 UNK         0.5000 
     66 O          -1.7348  -12.5999  -45.2858 O.2       1 UNK        -0.5000 
     67 C          -2.8501  -21.3442  -48.2205 C.2       11 UNK         0.5000 
     68 O          -3.8190  -21.5014  -48.9584 O.2       11 UNK        -0.5000 
     69 N          -2.8686  -20.5269  -47.1582 N.am      12 UNK        -0.5000 
     70 CA         -4.0535  -19.7955  -46.6977 C.3       12 UNK         0.1400 
     71 CB         -3.6872  -18.9453  -45.4715 C.3       12 UNK        -0.1800 
     72 C          -5.2632  -20.7068  -46.3858 C.2       12 UNK         0.5000 
     73 O          -6.4009  -20.2457  -46.4840 O.2       12 UNK        -0.5000 
     74 N          -4.9987  -21.9784  -46.0498 N.am      13 UNK        -0.5000 
     75 CA         -5.9995  -23.0294  -45.8965 C.3       13 UNK         0.1400 
     76 CB         -5.7144  -23.8057  -44.6003 C.3       13 UNK        -0.1800 
     77 C          -6.0116  -23.9818  -47.1080 C.2       13 UNK         0.5000 
     78 O          -7.0823  -24.2480  -47.6550 O.2       13 UNK        -0.5000 
     79 N          -4.8381  -24.5116  -47.4820 N.am      14 UNK        -0.5000 
     80 CA         -4.7013  -25.6425  -48.4065 C.3       14 UNK         0.1400 
     81 CB         -3.4910  -26.4749  -47.9599 C.3       14 UNK        -0.1800 
     82 C          -4.5608  -25.2601  -49.8930 C.2       14 UNK         0.5000 
     83 O          -4.6789  -26.1427  -50.7449 O.2       14 UNK        -0.5000 
     84 N          -4.2967  -23.9804  -50.1899 N.am      15 UNK        -0.5000 
     85 CA         -4.0841  -23.4042  -51.5213 C.3       15 UNK         0.1400 
     86 CB         -5.4382  -23.2836  -52.2569 C.3       15 UNK        -0.1800 
     87 C          -2.9867  -24.1444  -52.3183 C.2       15 UNK         0.5000 
     88 O          -1.8604  -24.2838  -51.8281 O.2       15 UNK        -0.5000 
     89 N          -3.3512  -24.6260  -53.5146 N.am      16 UNK        -0.5000 
     90 CA         -2.5015  -25.3141  -54.4865 C.3       16 UNK         0.1400 
     91 CB         -3.3436  -25.6192  -55.7348 C.3       16 UNK        -0.1800 
     92 C          -1.8377  -26.6060  -53.9702 C.2       16 UNK         0.5000 
     93 O          -0.8308  -27.0325  -54.5362 O.2       16 UNK        -0.5000 
     94 N          -2.4060  -27.2148  -52.9195 N.am      17 UNK        -0.5000 
     95 CA         -1.8601  -28.4090  -52.2760 C.3       17 UNK         0.1400 
     96 CB         -2.9642  -29.0918  -51.4553 C.3       17 UNK        -0.1800 
     97 C          -0.6279  -28.1133  -51.3980 C.2       17 UNK         0.5000 
     98 O           0.1507  -29.0334  -51.1438 O.2       17 UNK        -0.5000 
     99 N          -0.4684  -26.8587  -50.9513 N.am      18 UNK        -0.5000 
    100 CA         0.6571  -26.4175  -50.1281 C.3       18 UNK         0.1400 
    101 CB         0.1375  -25.6290  -48.9189 C.3       18 UNK        -0.1800 
    102 C          1.6588  -25.5762  -50.9304 C.2       18 UNK         0.5000 
    103 O          2.8610  -25.8243  -50.8273 O.2       18 UNK        -0.5000 
    104 N          1.1671  -24.5991  -51.7033 N.am      19 UNK        -0.5000 
    105 CA         1.9991  -23.6843  -52.4832 C.3       19 UNK         0.1400 
    106 CB         2.6342  -22.6068  -51.5732 C.3       19 UNK        -0.1800 
    107 C          1.1817  -23.1252  -53.6570 C.2       19 UNK         0.5000 
    108 O          0.6862  -23.9092  -54.4659 O.2       19 UNK        -0.5000 
    109 N          1.0786  -21.7945  -53.7591 N.am      20 UNK        -0.5000 
    110 CA         0.3278  -21.0949  -54.7987 C.3       20 UNK         0.1400 
    111 CB         0.7167  -19.6084  -54.7779 C.3       20 UNK        -0.1800 
    112 C         -1.1909  -21.2488  -54.6136 C.2       20 UNK         0.5000 
    113 O         -1.6756  -21.2938  -53.4808 O.2       20 UNK        -0.5000 
    114 N         -1.9238  -21.2453  -55.7328 N.am      21 UNK        -0.5000 
    115 CA        -3.3854  -21.3381  -55.8048 C.3       21 UNK         0.1400 
    116 CB        -3.7697  -21.8726  -57.1965 C.3       21 UNK        -0.1800 
    117 C         -4.0989  -20.0064  -55.4689 C.2       21 UNK         0.5000 
    118 O         -5.0783  -19.6491  -56.1255 O.2       21 UNK        -0.5000 
    119 N         -3.5881  -19.2947  -54.4575 N.am      22 UNK        -0.5000 
    120 CA        -4.1123  -18.0341  -53.9005 C.3       22 UNK         0.1400 
    121 C         -4.0207  -16.7987  -54.8478 C.2       22 UNK         0.5000 
    122 N         -3.2358  -16.8421  -55.9174 N.am      22 UNK        -0.7600 
    123 O         -4.6442  -15.7704  -54.5980 O.2       22 UNK        -0.5000 
    124 C124       -5.5211  -18.1881  -53.2571 C.3       23 UNK        -0.0398 
    125 S125       -5.6392  -19.6052  -52.1088 S.3       23 UNK        -0.2404 
    126 C126       -5.3653  -18.8116  -50.4932 C.3       23 UNK        -0.0205 
    127 H127       -0.3955  -17.0609  -42.6054 H         1 UNK         0.0600 
    128 H128       -1.7523  -17.6922  -41.6614 H         1 UNK         0.0600 
    129 H129       -1.0528  -16.1272  -41.2546 H         1 UNK         0.0600 
    130 H130       -0.8382  -15.7066  -44.3782 H         1 UNK         0.3000 
    131 H131       -3.6582  -15.1325  -45.0540 H         1 UNK         0.0600 
    132 H132       -2.1230  -16.1997  -46.7650 H         1 UNK         0.0800 
    133 H133       -1.1679  -14.7452  -46.7806 H         1 UNK         0.0800 
    134 H134       -2.9386  -14.1951  -50.1541 H         1 UNK         0.0800 
    135 H135       -1.4497  -14.4923  -49.2930 H         1 UNK         0.0800 
    136 H136       -4.7532  -16.2630  -49.7629 H         1 UNK         0.1150 
    137 H137       -2.9123  -19.9475  -50.9383 H         1 UNK         0.1150 
    138 H138       -0.4825  -16.5853  -49.8620 H         1 UNK         0.1150 
    139 H139       -0.4518  -19.7679  -51.6206 H         1 UNK         0.0800 
    140 H140        0.5179  -18.4833  -50.9627 H         1 UNK         0.0800 
    141 H141       -0.0142  -22.5311  -49.8745 H         1 UNK         0.0800 
    142 H142       -1.3403  -21.6446  -50.5397 H         1 UNK         0.0800 
    143 H143       -2.0091  -23.1814  -48.7659 H         1 UNK         0.0600 
    144 H144        0.0339  -21.9894  -47.1325 H         1 UNK         0.3000 
    145 H145       -0.8526  -24.0937  -44.3096 H         1 UNK         0.0600 
    146 H146        1.5959  -24.3450  -44.5668 H         1 UNK         0.0600 
    147 H147        0.7610  -25.1284  -45.8962 H         1 UNK         0.0600 
    148 H148        1.5467  -23.5732  -46.1498 H         1 UNK         0.0600 
    149 H149        0.8882  -21.8025  -44.5297 H         1 UNK         0.3000 
    150 H150       -1.3500  -19.4283  -43.2112 H         1 UNK         0.0600 
    151 H151       -0.7121  -20.6194  -41.1085 H         1 UNK         0.0600 
    152 H152        0.3034  -19.2078  -41.3525 H         1 UNK         0.0600 
    153 H153        0.9330  -20.8151  -41.7021 H         1 UNK         0.0600 
    154 H154        1.3777  -19.0951  -43.5343 H         1 UNK         0.3000 
    155 H155        2.2289  -19.0529  -46.5215 H         1 UNK         0.0600 
    156 H156        1.8991  -16.7295  -47.4364 H         1 UNK         0.0600 
    157 H157        0.3794  -16.6197  -46.5470 H         1 UNK         0.0600 
    158 H158        0.5670  -17.8027  -47.8189 H         1 UNK         0.0600 
    159 H159        2.1992  -16.6709  -44.8120 H         1 UNK         0.3000 
    160 H160        4.4828  -17.8393  -42.4747 H         1 UNK         0.0600 
    161 H161        5.5149  -16.3030  -44.9208 H         1 UNK         0.0600 
    162 H162        6.2179  -17.7771  -44.2662 H         1 UNK         0.0600 
    163 H163        6.2471  -16.3015  -43.3155 H         1 UNK         0.0600 
    164 H164        3.8872  -15.1887  -43.4710 H         1 UNK         0.3000 
    165 H165        0.7957  -14.7614  -41.9096 H         1 UNK         0.0600 
    166 H166        3.4316  -13.6405  -40.8216 H         1 UNK         0.0600 
    167 H167        1.8290  -12.9363  -40.5993 H         1 UNK         0.0600 
    168 H168        2.2151  -14.4876  -39.8718 H         1 UNK         0.0600 
    169 H169        2.5364  -12.8352  -43.0058 H         1 UNK         0.3000 
    170 H170        3.0241  -12.8532  -45.5121 H         1 UNK         0.0600 
    171 H171        1.6779  -14.2289  -47.1819 H         1 UNK         0.0600 
    172 H172        0.3363  -13.1085  -46.9461 H         1 UNK         0.0600 
    173 H173        1.8544  -12.5377  -47.6164 H         1 UNK         0.0600 
    174 H174        0.5267  -11.6347  -44.5356 H         1 UNK         0.3000 
    175 H175        2.0591   -8.4530  -44.3902 H         1 UNK         0.0600 
    176 H176       -0.0458   -7.6150  -45.4055 H         1 UNK         0.0600 
    177 H177        0.9885   -8.3045  -46.6459 H         1 UNK         0.0600 
    178 H178       -0.3985   -9.2154  -46.0602 H         1 UNK         0.0600 
    179 H179       -0.5283   -9.3534  -43.6051 H         1 UNK         0.3000 
    180 H180        0.2552  -10.7821  -40.5085 H         1 UNK         0.0600 
    181 H181       -0.9659   -8.8647  -39.5052 H         1 UNK         0.0600 
    182 H182        0.6804   -8.4018  -39.9043 H         1 UNK         0.0600 
    183 H183       -0.6472   -7.8819  -40.9353 H         1 UNK         0.0600 
    184 H184       -2.1351   -9.6748  -41.7223 H         1 UNK         0.3000 
    185 H185       -3.7813  -11.9299  -41.9731 H         1 UNK         0.0600 
    186 H186       -4.5068  -10.8215  -44.1479 H         1 UNK         0.0600 
    187 H187       -3.7224   -9.7240  -43.0322 H         1 UNK         0.0600 
    188 H188       -2.8362  -10.3383  -44.4222 H         1 UNK         0.0600 
    189 H189       -3.6762  -13.8081  -43.1310 H         1 UNK         0.3000 
    190 H190       -2.0043  -20.3684  -46.6445 H         1 UNK         0.3000 
    191 H191       -4.3501  -19.1193  -47.5014 H         1 UNK         0.0600 
    192 H192       -4.5389  -18.3518  -45.1369 H         1 UNK         0.0600 
    193 H193       -2.8795  -18.2500  -45.6978 H         1 UNK         0.0600 
    194 H194       -3.3713  -19.5674  -44.6344 H         1 UNK         0.0600 
    195 H195       -4.0307  -22.2685  -45.9978 H         1 UNK         0.3000 
    196 H196       -6.9971  -22.5944  -45.8083 H         1 UNK         0.0600 
    197 H197       -6.4344  -24.6131  -44.4611 H         1 UNK         0.0600 
    198 H198       -5.7851  -23.1530  -43.7301 H         1 UNK         0.0600 
    199 H199       -4.7177  -24.2490  -44.6022 H         1 UNK         0.0600 
    200 H200       -3.9926  -24.2457  -46.9815 H         1 UNK         0.3000 
    201 H201       -5.5857  -26.2781  -48.3254 H         1 UNK         0.0600 
    202 H202       -3.6056  -26.8190  -46.9319 H         1 UNK         0.0600 
    203 H203       -2.5742  -25.8915  -48.0158 H         1 UNK         0.0600 
    204 H204       -3.3598  -27.3584  -48.5841 H         1 UNK         0.0600 
    205 H205       -4.2426  -23.3058  -49.4336 H         1 UNK         0.3000 
    206 H206       -3.7047  -22.3926  -51.3767 H         1 UNK         0.0600 
    207 H207       -6.1495  -22.7142  -51.6582 H         1 UNK         0.0600 
    208 H208       -5.3312  -22.7534  -53.2040 H         1 UNK         0.0600 
    209 H209       -5.8879  -24.2565  -52.4586 H         1 UNK         0.0600 
    210 H210       -4.3138  -24.4987  -53.7895 H         1 UNK         0.3000 
    211 H211       -1.7117  -24.6208  -54.7725 H         1 UNK         0.0600 
    212 H212       -4.1452  -26.3255  -55.5147 H         1 UNK         0.0600 
    213 H213       -2.7291  -26.0552  -56.5235 H         1 UNK         0.0600 
    214 H214       -3.7976  -24.7159  -56.1399 H         1 UNK         0.0600 
    215 H215       -3.2284  -26.8024  -52.4965 H         1 UNK         0.3000 
    216 H216       -1.5453  -29.1073  -53.0545 H         1 UNK         0.0600 
    217 H217       -2.5999  -30.0142  -51.0012 H         1 UNK         0.0600 
    218 H218       -3.8175  -29.3529  -52.0813 H         1 UNK         0.0600 
    219 H219       -3.3227  -28.4512  -50.6511 H         1 UNK         0.0600 
    220 H220       -1.1273  -26.1465  -51.2451 H         1 UNK         0.3000 
    221 H221        1.2071  -27.2760  -49.7368 H         1 UNK         0.0600 
    222 H222       -0.3325  -26.2953  -48.1967 H         1 UNK         0.0600 
    223 H223        0.9475  -25.1138  -48.4011 H         1 UNK         0.0600 
    224 H224       -0.5930  -24.8809  -49.2188 H         1 UNK         0.0600 
    225 H225        0.1627  -24.4739  -51.7925 H         1 UNK         0.3000 
    226 H226        2.8096  -24.2573  -52.9384 H         1 UNK         0.0600 
    227 H227        1.8843  -21.9699  -51.1077 H         1 UNK         0.0600 
    228 H228        3.2231  -23.0572  -50.7744 H         1 UNK         0.0600 
    229 H229        3.3125  -21.9657  -52.1375 H         1 UNK         0.0600 
    230 H230        1.4974  -21.2214  -53.0426 H         1 UNK         0.3000 
    231 H231        0.6094  -21.5156  -55.7665 H         1 UNK         0.0600 
    232 H232        0.2012  -19.0572  -55.5654 H         1 UNK         0.0600 
    233 H233        1.7868  -19.4782  -54.9406 H         1 UNK         0.0600 
    234 H234        0.4621  -19.1357  -53.8288 H         1 UNK         0.0600 
    235 H235       -1.4487  -21.1549  -56.6194 H         1 UNK         0.3000 
    236 H236       -3.7180  -22.0690  -55.0655 H         1 UNK         0.0600 
    237 H237       -3.5347  -21.1525  -57.9813 H         1 UNK         0.0600 
    238 H238       -3.2425  -22.7980  -57.4276 H         1 UNK         0.0600 
    239 H239       -4.8378  -22.0860  -57.2540 H         1 UNK         0.0600 
    240 H240       -2.8099  -19.7071  -53.9556 H         1 UNK         0.3000 
    241 H241       -3.4229  -17.7837  -53.0955 H         1 UNK         0.0600 
    242 H242       -3.1734  -16.0371  -56.5208 H         1 UNK         0.3800 
    243 H243       -2.7185  -17.6773  -56.1380 H         1 UNK         0.3800 
    244 H244       -5.7993  -17.2791  -52.7216 H         1 UNK         0.0800 
    245 H245       -6.2759  -18.3221  -54.0331 H         1 UNK         0.0800 
    246 H246       -6.1501  -18.0720  -50.3281 H         1 UNK         0.0800 
    247 H247       -5.4886  -19.5638  -49.7138 H         1 UNK         0.0800 
@<TRIPOS>BOND
     1    1    2 1    
     2    1  127 1    
     3    1  128 1    
     4    1  129 1    
     5    2    3 2    
     6    2    4 am   BACKBONE|DICT|INTERRES
     7    4    5 1    
     8    4  130 1    
     9    5    6 1    
    10    5   65 1    
    11    5  131 1    
    12    6    7 1    
    13    6  132 1    
    14    6  133 1    
    15    7    8 1    
    16    8    9 1    
    17    8  134 1    
    18    8  135 1    
    19    9   10 ar   
    20    9   14 ar   
    21   10   11 ar   
    22   10  136 1    
    23   11   12 ar   
    24   11  126 1    
    25   12   13 ar   
    26   12  137 1    
    27   13   14 ar   
    28   13   15 1    
    29   14  138 1    
    30   15   16 1    
    31   15  139 1    
    32   15  140 1    
    33   16   17 1    
    34   17   18 1    
    35   17  141 1    
    36   17  142 1    
    37   18   19 1    
    38   18   67 1    
    39   18  143 1    
    40   19   20 am   BACKBONE|DICT|INTERRES
    41   19  144 1    
    42   20   21 2    
    43   20   22 1    
    44   22   23 1    
    45   22   24 1    
    46   22  145 1    
    47   23  146 1    
    48   23  147 1    
    49   23  148 1    
    50   24   25 am   BACKBONE|DICT|INTERRES
    51   24  149 1    
    52   25   26 2    
    53   25   27 1    
    54   27   28 1    
    55   27   29 1    
    56   27  150 1    
    57   28  151 1    
    58   28  152 1    
    59   28  153 1    
    60   29   30 am   BACKBONE|DICT|INTERRES
    61   29  154 1    
    62   30   31 2    
    63   30   32 1    
    64   32   33 1    
    65   32   34 1    
    66   32  155 1    
    67   33  156 1    
    68   33  157 1    
    69   33  158 1    
    70   34   35 am   BACKBONE|DICT|INTERRES
    71   34  159 1    
    72   35   36 2    
    73   35   37 1    
    74   37   38 1    
    75   37   39 1    
    76   37  160 1    
    77   38  161 1    
    78   38  162 1    
    79   38  163 1    
    80   39   40 am   BACKBONE|DICT|INTERRES
    81   39  164 1    
    82   40   41 2    
    83   40   42 1    
    84   42   43 1    
    85   42   44 1    
    86   42  165 1    
    87   43  166 1    
    88   43  167 1    
    89   43  168 1    
    90   44   45 am   BACKBONE|DICT|INTERRES
    91   44  169 1    
    92   45   46 2    
    93   45   47 1    
    94   47   48 1    
    95   47   49 1    
    96   47  170 1    
    97   48  171 1    
    98   48  172 1    
    99   48  173 1    
   100   49   50 am   BACKBONE|DICT|INTERRES
   101   49  174 1    
   102   50   51 2    
   103   50   52 1    
   104   52   53 1    
   105   52   54 1    
   106   52  175 1    
   107   53  176 1    
   108   53  177 1    
   109   53  178 1    
   110   54   55 am   BACKBONE|DICT|INTERRES
   111   54  179 1    
   112   55   56 2    
   113   55   57 1    
   114   57   58 1    
   115   57   59 1    
   116   57  180 1    
   117   58  181 1    
   118   58  182 1    
   119   58  183 1    
   120   59   60 am   BACKBONE|DICT|INTERRES
   121   59  184 1    
   122   60   61 2    
   123   60   62 1    
   124   62   63 1    
   125   62   64 1    
   126   62  185 1    
   127   63  186 1    
   128   63  187 1    
   129   63  188 1    
   130   64   65 am   BACKBONE|DICT|INTERRES
   131   64  189 1    
   132   65   66 2    
   133   67   68 2    
   134   67   69 am   BACKBONE|DICT|INTERRES
   135   69   70 1    
   136   69  190 1    
   137   70   71 1    
   138   70   72 1    
   139   70  191 1    
   140   71  192 1    
   141   71  193 1    
   142   71  194 1    
   143   72   73 2    
   144   72   74 am   BACKBONE|DICT|INTERRES
   145   74   75 1    
   146   74  195 1    
   147   75   76 1    
   148   75   77 1    
   149   75  196 1    
   150   76  197 1    
   151   76  198 1    
   152   76  199 1    
   153   77   78 2    
   154   77   79 am   BACKBONE|DICT|INTERRES
   155   79   80 1    
   156   79  200 1    
   157   80   81 1    
   158   80   82 1    
   159   80  201 1    
   160   81  202 1    
   161   81  203 1    
   162   81  204 1    
   163   82   83 2    
   164   82   84 am   BACKBONE|DICT|INTERRES
   165   84   85 1    
   166   84  205 1    
   167   85   86 1    
   168   85   87 1    
   169   85  206 1    
   170   86  207 1    
   171   86  208 1    
   172   86  209 1    
   173   87   88 2    
   174   87   89 am   BACKBONE|DICT|INTERRES
   175   89   90 1    
   176   89  210 1    
   177   90   91 1    
   178   90   92 1    
   179   90  211 1    
   180   91  212 1    
   181   91  213 1    
   182   91  214 1    
   183   92   93 2    
   184   92   94 am   BACKBONE|DICT|INTERRES
   185   94   95 1    
   186   94  215 1    
   187   95   96 1    
   188   95   97 1    
   189   95  216 1    
   190   96  217 1    
   191   96  218 1    
   192   96  219 1    
   193   97   98 2    
   194   97   99 am   BACKBONE|DICT|INTERRES
   195   99  100 1    
   196   99  220 1    
   197  100  101 1    
   198  100  102 1    
   199  100  221 1    
   200  101  222 1    
   201  101  223 1    
   202  101  224 1    
   203  102  103 2    
   204  102  104 am   BACKBONE|DICT|INTERRES
   205  104  105 1    
   206  104  225 1    
   207  105  106 1    
   208  105  107 1    
   209  105  226 1    
   210  106  227 1    
   211  106  228 1    
   212  106  229 1    
   213  107  108 2    
   214  107  109 am   BACKBONE|DICT|INTERRES
   215  109  110 1    
   216  109  230 1    
   217  110  111 1    
   218  110  112 1    
   219  110  231 1    
   220  111  232 1    
   221  111  233 1    
   222  111  234 1    
   223  112  113 2    
   224  112  114 am   BACKBONE|DICT|INTERRES
   225  114  115 1    
   226  114  235 1    
   227  115  116 1    
   228  115  117 1    
   229  115  236 1    
   230  116  237 1    
   231  116  238 1    
   232  116  239 1    
   233  117  118 2    
   234  117  119 am   BACKBONE|DICT|INTERRES
   235  119  120 1    
   236  119  240 1    
   237  120  121 1    
   238  120  124 1    
   239  120  241 1    
   240  121  122 am   BACKBONE|DICT|INTERRES
   241  121  123 2    
   242  122  242 1    
   243  122  243 1    
   244  124  125 1    
   245  124  244 1    
   246  124  245 1    
   247  125  126 1    
   248  126  246 1    
   249  126  247 1    
@<TRIPOS>SUBSTRUCTURE
     1 UNK         1 GROUP             0       ****    0 ROOT    
