@<TRIPOS>MOLECULE
3R540
247   249    1
SMALL
USER_CHARGES


@<TRIPOS>ATOM
      1 CA         -4.5657  -18.5201  -47.1854 C.3       0 UNK        -0.1800 
      2 C          -3.7559  -17.3869  -47.8003 C.2       0 UNK         0.5000 
      3 O          -3.9846  -17.0259  -48.9545 O.2       0 UNK        -0.5000 
      4 N          -2.8143  -16.8295  -47.0338 N.am      1 UNK        -0.5000 
      5 CA         -1.9410  -15.7246  -47.4302 C.3       1 UNK         0.1400 
      6 C6         -0.4334  -16.1033  -47.3786 C.3       23 UNK        -0.0398 
      7 S7         -0.0631  -17.6153  -48.3295 S.3       23 UNK        -0.2404 
      8 C8          1.4321  -17.1796  -49.2586 C.3       23 UNK        -0.0205 
      9 C9          1.8853  -18.3740  -50.0838 C.ar      23 UNK        -0.0193 
     10 C10         1.2902  -18.6358  -51.3207 C.ar      23 UNK        -0.1150 
     11 C11         1.6576  -19.7607  -52.0644 C.ar      23 UNK        -0.0193 
     12 C12         2.6440  -20.6187  -51.5672 C.ar      23 UNK        -0.1150 
     13 C13         3.2638  -20.3580  -50.3416 C.ar      23 UNK        -0.0193 
     14 C14         2.8780  -19.2333  -49.6036 C.ar      23 UNK        -0.1150 
     15 C15         4.3715  -21.2751  -49.8356 C.3       23 UNK        -0.0205 
     16 S16         3.7360  -22.8144  -49.0927 S.3       23 UNK        -0.2404 
     17 C17         3.0080  -22.1752  -47.5474 C.3       23 UNK        -0.0398 
     18 CA          1.8643  -23.0337  -46.9565 C.3       11 UNK         0.1400 
     19 N           1.4227  -22.5007  -45.6647 N.am      11 UNK        -0.5000 
     20 C           0.6405  -23.1496  -44.7893 C.2       10 UNK         0.5000 
     21 O           0.2316  -24.2958  -44.9653 O.2       10 UNK        -0.5000 
     22 CA          0.2121  -22.3879  -43.5173 C.3       10 UNK         0.1400 
     23 CB          1.2136  -22.6395  -42.3812 C.3       10 UNK        -0.1800 
     24 N           0.0697  -20.9461  -43.7192 N.am      10 UNK        -0.5000 
     25 C          -0.7914  -20.3742  -44.5744 C.2       9 UNK         0.5000 
     26 O          -1.6258  -21.0036  -45.2249 O.2       9 UNK        -0.5000 
     27 CA         -0.6586  -18.8551  -44.7982 C.3       9 UNK         0.1400 
     28 CB         -1.6766  -18.0922  -43.9451 C.3       9 UNK        -0.1800 
     29 N           0.6832  -18.3178  -44.5460 N.am      9 UNK        -0.5000 
     30 C           1.8057  -18.7594  -45.1332 C.2       8 UNK         0.5000 
     31 O           1.8100  -19.6092  -46.0213 O.2       8 UNK        -0.5000 
     32 CA          3.1577  -18.2410  -44.6107 C.3       8 UNK         0.1400 
     33 CB          3.7837  -17.2615  -45.6145 C.3       8 UNK        -0.1800 
     34 N           3.1296  -17.6354  -43.2750 N.am      8 UNK        -0.5000 
     35 C           2.7442  -18.2409  -42.1411 C.2       7 UNK         0.5000 
     36 O           2.2484  -19.3689  -42.1032 O.2       7 UNK        -0.5000 
     37 CA          2.9520  -17.4693  -40.8280 C.3       7 UNK         0.1400 
     38 CB          3.9431  -16.2914  -40.9323 C.3       7 UNK        -0.1800 
     39 N           1.6689  -16.9707  -40.3430 N.am      7 UNK        -0.5000 
     40 C           1.2575  -17.0292  -39.0691 C.2       6 UNK         0.5000 
     41 O           1.8997  -17.5879  -38.1779 O.2       6 UNK        -0.5000 
     42 CA         -0.0676  -16.3279  -38.7014 C.3       6 UNK         0.1400 
     43 CB          0.1342  -15.3562  -37.5253 C.3       6 UNK        -0.1800 
     44 N          -0.6374  -15.5753  -39.8198 N.am      6 UNK        -0.5000 
     45 C          -1.6584  -15.9802  -40.5836 C.2       5 UNK         0.5000 
     46 O          -2.2613  -17.0408  -40.4181 O.2       5 UNK        -0.5000 
     47 CA         -2.0733  -15.0445  -41.7369 C.3       5 UNK         0.1400 
     48 CB         -3.2367  -14.1403  -41.3033 C.3       5 UNK        -0.1800 
     49 N          -0.9980  -14.2026  -42.2715 N.am      5 UNK        -0.5000 
     50 C           0.1532  -14.6332  -42.8072 C.2       4 UNK         0.5000 
     51 O           0.5125  -15.8136  -42.8069 O.2       4 UNK        -0.5000 
     52 CA          1.0273  -13.5528  -43.4655 C.3       4 UNK         0.1400 
     53 CB          2.1537  -14.1371  -44.3339 C.3       4 UNK        -0.1800 
     54 N           0.1972  -12.6819  -44.2943 N.am      4 UNK        -0.5000 
     55 C           0.3750  -11.3647  -44.4577 C.2       3 UNK         0.5000 
     56 O           1.2267  -10.7174  -43.8469 O.2       3 UNK        -0.5000 
     57 CA         -0.5171  -10.6384  -45.4884 C.3       3 UNK         0.1400 
     58 CB          0.3227  -10.1741  -46.6896 C.3       3 UNK        -0.1800 
     59 N          -1.6257  -11.4529  -45.9896 N.am      3 UNK        -0.5000 
     60 C          -2.7646  -11.6897  -45.3268 C.2       2 UNK         0.5000 
     61 O          -3.0232  -11.2129  -44.2215 O.2       2 UNK        -0.5000 
     62 CA         -3.7728  -12.6451  -45.9993 C.3       2 UNK         0.1400 
     63 CB         -4.8028  -11.8482  -46.8141 C.3       2 UNK        -0.1800 
     64 N          -3.1792  -13.6798  -46.8596 N.am      2 UNK        -0.5000 
     65 C          -2.2739  -14.5834  -46.4605 C.2       1 UNK         0.5000 
     66 O          -1.7574  -14.5753  -45.3449 O.2       1 UNK        -0.5000 
     67 C           0.6701  -23.1703  -47.9219 C.2       11 UNK         0.5000 
     68 O           0.4671  -24.2432  -48.4916 O.2       11 UNK        -0.5000 
     69 N          -0.1314  -22.1018  -48.0413 N.am      12 UNK        -0.5000 
     70 CA         -1.3520  -22.0888  -48.8468 C.3       12 UNK         0.1400 
     71 CB         -1.8918  -20.6585  -48.9563 C.3       12 UNK        -0.1800 
     72 C          -2.4223  -23.0546  -48.3083 C.2       12 UNK         0.5000 
     73 O          -3.0607  -23.7454  -49.1011 O.2       12 UNK        -0.5000 
     74 N          -2.5588  -23.1347  -46.9764 N.am      13 UNK        -0.5000 
     75 CA         -3.4394  -24.0827  -46.2931 C.3       13 UNK         0.1400 
     76 CB         -3.4720  -23.7753  -44.7894 C.3       13 UNK        -0.1800 
     77 C          -3.0466  -25.5508  -46.5454 C.2       13 UNK         0.5000 
     78 O          -3.9226  -26.3629  -46.8424 O.2       13 UNK        -0.5000 
     79 N          -1.7426  -25.8593  -46.4743 N.am      14 UNK        -0.5000 
     80 CA         -1.1829  -27.1798  -46.7807 C.3       14 UNK         0.1400 
     81 CB          0.2951  -27.2261  -46.3653 C.3       14 UNK        -0.1800 
     82 C          -1.3431  -27.5728  -48.2617 C.2       14 UNK         0.5000 
     83 O          -1.5909  -28.7424  -48.5566 O.2       14 UNK        -0.5000 
     84 N          -1.2381  -26.5853  -49.1612 N.am      15 UNK        -0.5000 
     85 CA         -1.4969  -26.7254  -50.5961 C.3       15 UNK         0.1400 
     86 CB         -0.8686  -25.5299  -51.3318 C.3       15 UNK        -0.1800 
     87 C          -2.9966  -26.8446  -50.9457 C.2       15 UNK         0.5000 
     88 O          -3.3152  -27.1804  -52.0871 O.2       15 UNK        -0.5000 
     89 N          -3.8793  -26.5573  -49.9755 N.am      16 UNK        -0.5000 
     90 CA         -5.3395  -26.4754  -50.0810 C.3       16 UNK         0.1400 
     91 CB         -5.9517  -27.8615  -50.3712 C.3       16 UNK        -0.1800 
     92 C          -5.7868  -25.3838  -51.0759 C.2       16 UNK         0.5000 
     93 O          -6.6822  -25.6101  -51.8928 O.2       16 UNK        -0.5000 
     94 N          -5.1288  -24.2232  -50.9959 N.am      17 UNK        -0.5000 
     95 CA         -5.3041  -23.0760  -51.8771 C.3       17 UNK         0.1400 
     96 CB         -4.1543  -23.0775  -52.9066 C.3       17 UNK        -0.1800 
     97 C          -5.3443  -21.7756  -51.0538 C.2       17 UNK         0.5000 
     98 O          -5.4540  -21.8055  -49.8259 O.2       17 UNK        -0.5000 
     99 N          -5.2491  -20.6496  -51.7606 N.am      18 UNK        -0.5000 
    100 CA        -5.0446  -19.3093  -51.2312 C.3       18 UNK         0.1400 
    101 CB        -6.3784  -18.5464  -51.2336 C.3       18 UNK        -0.1800 
    102 C         -4.0207  -18.6288  -52.1466 C.2       18 UNK         0.5000 
    103 O         -3.8804  -19.0406  -53.3022 O.2       18 UNK        -0.5000 
    104 N         -3.3516  -17.5832  -51.6489 N.am      19 UNK        -0.5000 
    105 CA        -2.3119  -16.8379  -52.3689 C.3       19 UNK         0.1400 
    106 CB        -1.7306  -15.7562  -51.4489 C.3       19 UNK        -0.1800 
    107 C         -2.7845  -16.2195  -53.6980 C.2       19 UNK         0.5000 
    108 O         -2.0055  -16.1474  -54.6482 O.2       19 UNK        -0.5000 
    109 N         -4.0666  -15.8368  -53.7573 N.am      20 UNK        -0.5000 
    110 CA        -4.7378  -15.3506  -54.9630 C.3       20 UNK         0.1400 
    111 CB        -6.0947  -14.7506  -54.5634 C.3       20 UNK        -0.1800 
    112 C         -4.9270  -16.4343  -56.0458 C.2       20 UNK         0.5000 
    113 O         -5.0786  -16.0861  -57.2176 O.2       20 UNK        -0.5000 
    114 N         -4.9242  -17.7132  -55.6447 N.am      21 UNK        -0.5000 
    115 CA        -5.0578  -18.8641  -56.5321 C.3       21 UNK         0.1400 
    116 CB        -5.9515  -19.9269  -55.8702 C.3       21 UNK        -0.1800 
    117 C         -3.6825  -19.4469  -56.8927 C.2       21 UNK         0.5000 
    118 O         -3.4185  -19.6580  -58.0775 O.2       21 UNK        -0.5000 
    119 N         -2.8366  -19.7064  -55.8833 N.am      22 UNK        -0.5000 
    120 CA        -1.5079  -20.3130  -56.0776 C.3       22 UNK         0.1400 
    121 C         -0.3896  -19.3324  -56.5340 C.2       22 UNK         0.5000 
    122 N         -0.5538  -18.0207  -56.4181 N.am      22 UNK        -0.7600 
    123 O          0.6476  -19.7737  -57.0212 O.2       22 UNK        -0.5000 
    124 C124       -1.0716  -21.2176  -54.8934 C.3       23 UNK        -0.0398 
    125 S125       -0.7661  -20.3808  -53.2966 S.3       23 UNK        -0.2404 
    126 C126        1.0197  -20.0313  -53.4194 C.3       23 UNK        -0.0205 
    127 H127       -5.6180  -18.2416  -47.1318 H         1 UNK         0.0600 
    128 H128       -4.2244  -18.7638  -46.1791 H         1 UNK         0.0600 
    129 H129       -4.4828  -19.4198  -47.7946 H         1 UNK         0.0600 
    130 H130       -2.7098  -17.1284  -46.0760 H         1 UNK         0.3000 
    131 H131       -2.1702  -15.3887  -48.4429 H         1 UNK         0.0600 
    132 H132        0.1722  -15.2787  -47.7576 H         1 UNK         0.0800 
    133 H133       -0.1013  -16.2772  -46.3542 H         1 UNK         0.0800 
    134 H134        1.2300  -16.3273  -49.9089 H         1 UNK         0.0800 
    135 H135        2.2161  -16.8725  -48.5648 H         1 UNK         0.0800 
    136 H136        0.5276  -17.9708  -51.6969 H         1 UNK         0.1150 
    137 H137        2.9420  -21.4867  -52.1385 H         1 UNK         0.1150 
    138 H138        3.3423  -19.0308  -48.6489 H         1 UNK         0.1150 
    139 H139        5.0280  -21.5349  -50.6673 H         1 UNK         0.0800 
    140 H140        4.9981  -20.7552  -49.1092 H         1 UNK         0.0800 
    141 H141        2.6445  -21.1684  -47.7342 H         1 UNK         0.0800 
    142 H142        3.8119  -22.0754  -46.8171 H         1 UNK         0.0800 
    143 H143        2.2587  -24.0367  -46.7794 H         1 UNK         0.0600 
    144 H144        1.6508  -21.5281  -45.4881 H         1 UNK         0.3000 
    145 H145       -0.7590  -22.7763  -43.2064 H         1 UNK         0.0600 
    146 H146        0.8869  -22.1658  -41.4552 H         1 UNK         0.0600 
    147 H147        1.3194  -23.7066  -42.1816 H         1 UNK         0.0600 
    148 H148        2.2029  -22.2496  -42.6246 H         1 UNK         0.0600 
    149 H149        0.7296  -20.3533  -43.2266 H         1 UNK         0.3000 
    150 H150       -0.8953  -18.6800  -45.8463 H         1 UNK         0.0600 
    151 H151       -2.6883  -18.4701  -44.0975 H         1 UNK         0.0600 
    152 H152       -1.6765  -17.0351  -44.2046 H         1 UNK         0.0600 
    153 H153       -1.4483  -18.1790  -42.8824 H         1 UNK         0.0600 
    154 H154        0.7591  -17.5984  -43.8344 H         1 UNK         0.3000 
    155 H155        3.8159  -19.1095  -44.5433 H         1 UNK         0.0600 
    156 H156        4.7535  -16.9018  -45.2706 H         1 UNK         0.0600 
    157 H157        3.9429  -17.7458  -46.5786 H         1 UNK         0.0600 
    158 H158        3.1443  -16.3989  -45.7918 H         1 UNK         0.0600 
    159 H159        3.5009  -16.7005  -43.2051 H         1 UNK         0.3000 
    160 H160        3.3686  -18.1942  -40.1257 H         1 UNK         0.0600 
    161 H161        3.5542  -15.4817  -41.5499 H         1 UNK         0.0600 
    162 H162        4.8982  -16.6109  -41.3514 H         1 UNK         0.0600 
    163 H163        4.1516  -15.8759  -39.9463 H         1 UNK         0.0600 
    164 H164        1.0659  -16.5539  -41.0456 H         1 UNK         0.3000 
    165 H165       -0.7605  -17.1071  -38.3776 H         1 UNK         0.0600 
    166 H166       -0.8033  -14.8737  -37.2483 H         1 UNK         0.0600 
    167 H167        0.5003  -15.8776  -36.6399 H         1 UNK         0.0600 
    168 H168        0.8550  -14.5746  -37.7684 H         1 UNK         0.0600 
    169 H169       -0.2006  -14.6914  -40.0375 H         1 UNK         0.3000 
    170 H170       -2.4315  -15.6722  -42.5525 H         1 UNK         0.0600 
    171 H171       -4.0742  -14.7310  -40.9297 H         1 UNK         0.0600 
    172 H172       -2.9381  -13.4540  -40.5100 H         1 UNK         0.0600 
    173 H173       -3.6071  -13.5470  -42.1400 H         1 UNK         0.0600 
    174 H174       -1.2023  -13.2160  -42.3373 H         1 UNK         0.3000 
    175 H175        1.4762  -12.9817  -42.6506 H         1 UNK         0.0600 
    176 H176        2.8075  -14.7862  -43.7534 H         1 UNK         0.0600 
    177 H177        1.7437  -14.7192  -45.1592 H         1 UNK         0.0600 
    178 H178        2.7758  -13.3487  -44.7574 H         1 UNK         0.0600 
    179 H179       -0.5571  -13.1528  -44.7872 H         1 UNK         0.3000 
    180 H180       -0.9263   -9.7531  -44.9973 H         1 UNK         0.0600 
    181 H181        0.7644  -11.0177  -47.2215 H         1 UNK         0.0600 
    182 H182        1.1386   -9.5240  -46.3708 H         1 UNK         0.0600 
    183 H183       -0.2816   -9.6080  -47.3987 H         1 UNK         0.0600 
    184 H184       -1.4971  -11.8894  -46.8905 H         1 UNK         0.3000 
    185 H185       -4.3030  -13.1614  -45.1963 H         1 UNK         0.0600 
    186 H186       -5.2840  -11.0861  -46.1993 H         1 UNK         0.0600 
    187 H187       -4.3395  -11.3418  -47.6618 H         1 UNK         0.0600 
    188 H188       -5.5903  -12.4967  -47.1985 H         1 UNK         0.0600 
    189 H189       -3.5771  -13.7689  -47.7837 H         1 UNK         0.3000 
    190 H190        0.0881  -21.2615  -47.5253 H         1 UNK         0.3000 
    191 H191       -1.0912  -22.4204  -49.8540 H         1 UNK         0.0600 
    192 H192       -2.0419  -20.2047  -47.9763 H         1 UNK         0.0600 
    193 H193       -2.8463  -20.6441  -49.4802 H         1 UNK         0.0600 
    194 H194       -1.2067  -20.0290  -49.5239 H         1 UNK         0.0600 
    195 H195       -2.0391  -22.4883  -46.3893 H         1 UNK         0.3000 
    196 H196       -4.4466  -23.9360  -46.6888 H         1 UNK         0.0600 
    197 H197       -4.1728  -24.4322  -44.2729 H         1 UNK         0.0600 
    198 H198       -3.7887  -22.7491  -44.6020 H         1 UNK         0.0600 
    199 H199       -2.4942  -23.9147  -44.3301 H         1 UNK         0.0600 
    200 H200       -1.0806  -25.1485  -46.1777 H         1 UNK         0.3000 
    201 H201       -1.7243  -27.9174  -46.1848 H         1 UNK         0.0600 
    202 H202        0.4083  -27.0531  -45.2951 H         1 UNK         0.0600 
    203 H203        0.8848  -26.4739  -46.8902 H         1 UNK         0.0600 
    204 H204        0.7336  -28.2004  -46.5845 H         1 UNK         0.0600 
    205 H205       -0.9588  -25.6637  -48.8398 H         1 UNK         0.3000 
    206 H206       -1.0064  -27.6358  -50.9464 H         1 UNK         0.0600 
    207 H207        0.1987  -25.4531  -51.1235 H         1 UNK         0.0600 
    208 H208       -0.9828  -25.6297  -52.4118 H         1 UNK         0.0600 
    209 H209       -1.3349  -24.5889  -51.0406 H         1 UNK         0.0600 
    210 H210       -3.5027  -26.2740  -49.0801 H         1 UNK         0.3000 
    211 H211       -5.6972  -26.1574  -49.1008 H         1 UNK         0.0600 
    212 H212       -5.6835  -28.2264  -51.3629 H         1 UNK         0.0600 
    213 H213       -7.0404  -27.8244  -50.3208 H         1 UNK         0.0600 
    214 H214       -5.6184  -28.5987  -49.6406 H         1 UNK         0.0600 
    215 H215       -4.4346  -24.0951  -50.2598 H         1 UNK         0.3000 
    216 H216       -6.2566  -23.1483  -52.4057 H         1 UNK         0.0600 
    217 H217       -3.1900  -22.8976  -52.4285 H         1 UNK         0.0600 
    218 H218       -4.2930  -22.3126  -53.6711 H         1 UNK         0.0600 
    219 H219       -4.0921  -24.0350  -53.4245 H         1 UNK         0.0600 
    220 H220       -5.0892  -20.7090  -52.7577 H         1 UNK         0.3000 
    221 H221       -4.6422  -19.3527  -50.2191 H         1 UNK         0.0600 
    222 H222       -7.1195  -19.0520  -50.6145 H         1 UNK         0.0600 
    223 H223       -6.7887  -18.4535  -52.2401 H         1 UNK         0.0600 
    224 H224       -6.2526  -17.5401  -50.8321 H         1 UNK         0.0600 
    225 H225       -3.5373  -17.2991  -50.6874 H         1 UNK         0.3000 
    226 H226       -1.5180  -17.5439  -52.6139 H         1 UNK         0.0600 
    227 H227       -1.2888  -16.2011  -50.5598 H         1 UNK         0.0600 
    228 H228       -0.9451  -15.1914  -51.9525 H         1 UNK         0.0600 
    229 H229       -2.4951  -15.0484  -51.1267 H         1 UNK         0.0600 
    230 H230       -4.6336  -15.9377  -52.9284 H         1 UNK         0.3000 
    231 H231       -4.1256  -14.5569  -55.3963 H         1 UNK         0.0600 
    232 H232       -6.7456  -15.4974  -54.1068 H         1 UNK         0.0600 
    233 H233       -6.6160  -14.3485  -55.4332 H         1 UNK         0.0600 
    234 H234       -5.9713  -13.9322  -53.8538 H         1 UNK         0.0600 
    235 H235       -4.7191  -17.9244  -54.6747 H         1 UNK         0.3000 
    236 H236       -5.5465  -18.5618  -57.4608 H         1 UNK         0.0600 
    237 H237       -5.5246  -20.3040  -54.9417 H         1 UNK         0.0600 
    238 H238       -6.9385  -19.5236  -55.6437 H         1 UNK         0.0600 
    239 H239       -6.0939  -20.7810  -56.5334 H         1 UNK         0.0600 
    240 H240       -3.1094  -19.4953  -54.9264 H         1 UNK         0.3000 
    241 H241       -1.6080  -21.0020  -56.9189 H         1 UNK         0.0600 
    242 H242        0.1807  -17.4071  -56.7314 H         1 UNK         0.3800 
    243 H243       -1.3608  -17.6228  -55.9539 H         1 UNK         0.3800 
    244 H244       -0.1885  -21.7951  -55.1706 H         1 UNK         0.0800 
    245 H245       -1.8476  -21.9635  -54.7184 H         1 UNK         0.0800 
    246 H246        1.5232  -20.8662  -53.9086 H         1 UNK         0.0800 
    247 H247        1.1729  -19.1620  -54.0597 H         1 UNK         0.0800 
@<TRIPOS>BOND
     1    1    2 1    
     2    1  127 1    
     3    1  128 1    
     4    1  129 1    
     5    2    3 2    
     6    2    4 am   BACKBONE|DICT|INTERRES
     7    4    5 1    
     8    4  130 1    
     9    5    6 1    
    10    5   65 1    
    11    5  131 1    
    12    6    7 1    
    13    6  132 1    
    14    6  133 1    
    15    7    8 1    
    16    8    9 1    
    17    8  134 1    
    18    8  135 1    
    19    9   10 ar   
    20    9   14 ar   
    21   10   11 ar   
    22   10  136 1    
    23   11   12 ar   
    24   11  126 1    
    25   12   13 ar   
    26   12  137 1    
    27   13   14 ar   
    28   13   15 1    
    29   14  138 1    
    30   15   16 1    
    31   15  139 1    
    32   15  140 1    
    33   16   17 1    
    34   17   18 1    
    35   17  141 1    
    36   17  142 1    
    37   18   19 1    
    38   18   67 1    
    39   18  143 1    
    40   19   20 am   BACKBONE|DICT|INTERRES
    41   19  144 1    
    42   20   21 2    
    43   20   22 1    
    44   22   23 1    
    45   22   24 1    
    46   22  145 1    
    47   23  146 1    
    48   23  147 1    
    49   23  148 1    
    50   24   25 am   BACKBONE|DICT|INTERRES
    51   24  149 1    
    52   25   26 2    
    53   25   27 1    
    54   27   28 1    
    55   27   29 1    
    56   27  150 1    
    57   28  151 1    
    58   28  152 1    
    59   28  153 1    
    60   29   30 am   BACKBONE|DICT|INTERRES
    61   29  154 1    
    62   30   31 2    
    63   30   32 1    
    64   32   33 1    
    65   32   34 1    
    66   32  155 1    
    67   33  156 1    
    68   33  157 1    
    69   33  158 1    
    70   34   35 am   BACKBONE|DICT|INTERRES
    71   34  159 1    
    72   35   36 2    
    73   35   37 1    
    74   37   38 1    
    75   37   39 1    
    76   37  160 1    
    77   38  161 1    
    78   38  162 1    
    79   38  163 1    
    80   39   40 am   BACKBONE|DICT|INTERRES
    81   39  164 1    
    82   40   41 2    
    83   40   42 1    
    84   42   43 1    
    85   42   44 1    
    86   42  165 1    
    87   43  166 1    
    88   43  167 1    
    89   43  168 1    
    90   44   45 am   BACKBONE|DICT|INTERRES
    91   44  169 1    
    92   45   46 2    
    93   45   47 1    
    94   47   48 1    
    95   47   49 1    
    96   47  170 1    
    97   48  171 1    
    98   48  172 1    
    99   48  173 1    
   100   49   50 am   BACKBONE|DICT|INTERRES
   101   49  174 1    
   102   50   51 2    
   103   50   52 1    
   104   52   53 1    
   105   52   54 1    
   106   52  175 1    
   107   53  176 1    
   108   53  177 1    
   109   53  178 1    
   110   54   55 am   BACKBONE|DICT|INTERRES
   111   54  179 1    
   112   55   56 2    
   113   55   57 1    
   114   57   58 1    
   115   57   59 1    
   116   57  180 1    
   117   58  181 1    
   118   58  182 1    
   119   58  183 1    
   120   59   60 am   BACKBONE|DICT|INTERRES
   121   59  184 1    
   122   60   61 2    
   123   60   62 1    
   124   62   63 1    
   125   62   64 1    
   126   62  185 1    
   127   63  186 1    
   128   63  187 1    
   129   63  188 1    
   130   64   65 am   BACKBONE|DICT|INTERRES
   131   64  189 1    
   132   65   66 2    
   133   67   68 2    
   134   67   69 am   BACKBONE|DICT|INTERRES
   135   69   70 1    
   136   69  190 1    
   137   70   71 1    
   138   70   72 1    
   139   70  191 1    
   140   71  192 1    
   141   71  193 1    
   142   71  194 1    
   143   72   73 2    
   144   72   74 am   BACKBONE|DICT|INTERRES
   145   74   75 1    
   146   74  195 1    
   147   75   76 1    
   148   75   77 1    
   149   75  196 1    
   150   76  197 1    
   151   76  198 1    
   152   76  199 1    
   153   77   78 2    
   154   77   79 am   BACKBONE|DICT|INTERRES
   155   79   80 1    
   156   79  200 1    
   157   80   81 1    
   158   80   82 1    
   159   80  201 1    
   160   81  202 1    
   161   81  203 1    
   162   81  204 1    
   163   82   83 2    
   164   82   84 am   BACKBONE|DICT|INTERRES
   165   84   85 1    
   166   84  205 1    
   167   85   86 1    
   168   85   87 1    
   169   85  206 1    
   170   86  207 1    
   171   86  208 1    
   172   86  209 1    
   173   87   88 2    
   174   87   89 am   BACKBONE|DICT|INTERRES
   175   89   90 1    
   176   89  210 1    
   177   90   91 1    
   178   90   92 1    
   179   90  211 1    
   180   91  212 1    
   181   91  213 1    
   182   91  214 1    
   183   92   93 2    
   184   92   94 am   BACKBONE|DICT|INTERRES
   185   94   95 1    
   186   94  215 1    
   187   95   96 1    
   188   95   97 1    
   189   95  216 1    
   190   96  217 1    
   191   96  218 1    
   192   96  219 1    
   193   97   98 2    
   194   97   99 am   BACKBONE|DICT|INTERRES
   195   99  100 1    
   196   99  220 1    
   197  100  101 1    
   198  100  102 1    
   199  100  221 1    
   200  101  222 1    
   201  101  223 1    
   202  101  224 1    
   203  102  103 2    
   204  102  104 am   BACKBONE|DICT|INTERRES
   205  104  105 1    
   206  104  225 1    
   207  105  106 1    
   208  105  107 1    
   209  105  226 1    
   210  106  227 1    
   211  106  228 1    
   212  106  229 1    
   213  107  108 2    
   214  107  109 am   BACKBONE|DICT|INTERRES
   215  109  110 1    
   216  109  230 1    
   217  110  111 1    
   218  110  112 1    
   219  110  231 1    
   220  111  232 1    
   221  111  233 1    
   222  111  234 1    
   223  112  113 2    
   224  112  114 am   BACKBONE|DICT|INTERRES
   225  114  115 1    
   226  114  235 1    
   227  115  116 1    
   228  115  117 1    
   229  115  236 1    
   230  116  237 1    
   231  116  238 1    
   232  116  239 1    
   233  117  118 2    
   234  117  119 am   BACKBONE|DICT|INTERRES
   235  119  120 1    
   236  119  240 1    
   237  120  121 1    
   238  120  124 1    
   239  120  241 1    
   240  121  122 am   BACKBONE|DICT|INTERRES
   241  121  123 2    
   242  122  242 1    
   243  122  243 1    
   244  124  125 1    
   245  124  244 1    
   246  124  245 1    
   247  125  126 1    
   248  126  246 1    
   249  126  247 1    
@<TRIPOS>SUBSTRUCTURE
     1 UNK         1 GROUP             0       ****    0 ROOT    
