@<TRIPOS>MOLECULE
3R540
247   249    1
SMALL
USER_CHARGES


@<TRIPOS>ATOM
      1 CA         -0.1294  -10.0429  -48.7803 C.3       0 UNK        -0.1800 
      2 C           0.9020  -10.8191  -49.5868 C.2       0 UNK         0.5000 
      3 O           0.6720  -11.1082  -50.7610 O.2       0 UNK        -0.5000 
      4 N           2.0305  -11.1591  -48.9595 N.am      1 UNK        -0.5000 
      5 CA          3.1474  -11.8966  -49.5475 C.3       1 UNK         0.1400 
      6 C6          2.8206  -13.3919  -49.8415 C.3       23 UNK        -0.0398 
      7 S7          2.4596  -14.4057  -48.3618 S.3       23 UNK        -0.2404 
      8 C8          0.6429  -14.5090  -48.3844 C.3       23 UNK        -0.0205 
      9 C9          0.1535  -15.4542  -49.4679 C.ar      23 UNK        -0.0193 
     10 C10        -0.3837  -14.9560  -50.6566 C.ar      23 UNK        -0.1150 
     11 C11        -0.8022  -15.8290  -51.6631 C.ar      23 UNK        -0.0193 
     12 C12        -0.6812  -17.2091  -51.4700 C.ar      23 UNK        -0.1150 
     13 C13        -0.1566  -17.7267  -50.2803 C.ar      23 UNK        -0.0193 
     14 C14         0.2517  -16.8346  -49.2802 C.ar      23 UNK        -0.1150 
     15 C15        -0.0540  -19.2460  -50.1244 C.3       23 UNK        -0.0205 
     16 S16         1.1703  -19.8323  -48.9003 S.3       23 UNK        -0.2404 
     17 C17         0.2083  -19.7780  -47.3485 C.3       23 UNK        -0.0398 
     18 CA         -0.2294  -21.1923  -46.8968 C.3       11 UNK         0.1400 
     19 N          -0.3902  -21.2931  -45.4461 N.am      11 UNK        -0.5000 
     20 C          -0.4312  -22.4531  -44.7750 C.2       10 UNK         0.5000 
     21 O          -0.2993  -23.5558  -45.3060 O.2       10 UNK        -0.5000 
     22 CA         -0.7132  -22.3639  -43.2642 C.3       10 UNK         0.1400 
     23 CB          0.5803  -22.0662  -42.4915 C.3       10 UNK        -0.1800 
     24 N          -1.7169  -21.3480  -42.9423 N.am      10 UNK        -0.5000 
     25 C          -2.9991  -21.4000  -43.3308 C.2       9 UNK         0.5000 
     26 O          -3.4826  -22.3367  -43.9633 O.2       9 UNK        -0.5000 
     27 CA         -3.8758  -20.1793  -43.0036 C.3       9 UNK         0.1400 
     28 CB         -4.5333  -20.3422  -41.6259 C.3       9 UNK        -0.1800 
     29 N          -3.1422  -18.9145  -43.0394 N.am      9 UNK        -0.5000 
     30 C          -2.5249  -18.3875  -44.1034 C.2       8 UNK         0.5000 
     31 O          -2.4738  -18.9386  -45.2046 O.2       8 UNK        -0.5000 
     32 CA         -1.8096  -17.0400  -43.8875 C.3       8 UNK         0.1400 
     33 CB         -2.8117  -15.8950  -43.6527 C.3       8 UNK        -0.1800 
     34 N          -0.7780  -17.0724  -42.8430 N.am      8 UNK        -0.5000 
     35 C          -0.8979  -17.2983  -41.5248 C.2       7 UNK         0.5000 
     36 O          -1.9668  -17.5006  -40.9477 O.2       7 UNK        -0.5000 
     37 CA          0.4081  -17.2981  -40.7160 C.3       7 UNK         0.1400 
     38 CB          1.2687  -18.5252  -41.0581 C.3       7 UNK        -0.1800 
     39 N           1.1691  -16.0796  -40.9755 N.am      7 UNK        -0.5000 
     40 C           1.0540  -14.9483  -40.2662 C.2       6 UNK         0.5000 
     41 O           0.3560  -14.8380  -39.2574 O.2       6 UNK        -0.5000 
     42 CA          1.8439  -13.7267  -40.7742 C.3       6 UNK         0.1400 
     43 CB          3.2133  -13.6431  -40.0836 C.3       6 UNK        -0.1800 
     44 N           2.0301  -13.7468  -42.2261 N.am      6 UNK        -0.5000 
     45 C           1.0432  -13.5340  -43.1105 C.2       5 UNK         0.5000 
     46 O          -0.1022  -13.2191  -42.7869 O.2       5 UNK        -0.5000 
     47 CA          1.3743  -13.7137  -44.6043 C.3       5 UNK         0.1400 
     48 CB          1.5982  -12.3424  -45.2608 C.3       5 UNK        -0.1800 
     49 N           2.5361  -14.5720  -44.8536 N.am      5 UNK        -0.5000 
     50 C           2.5970  -15.8833  -44.5708 C.2       4 UNK         0.5000 
     51 O           1.6601  -16.5143  -44.0815 O.2       4 UNK        -0.5000 
     52 CA          3.9334  -16.6131  -44.8162 C.3       4 UNK         0.1400 
     53 CB          3.8925  -17.3783  -46.1474 C.3       4 UNK        -0.1800 
     54 N           5.1054  -15.7354  -44.7990 N.am      4 UNK        -0.5000 
     55 C           5.4973  -14.9828  -43.7603 C.2       3 UNK         0.5000 
     56 O           4.9374  -14.9953  -42.6638 O.2       3 UNK        -0.5000 
     57 CA          6.6751  -14.0142  -43.9973 C.3       3 UNK         0.1400 
     58 CB          7.9797  -14.6176  -43.4556 C.3       3 UNK        -0.1800 
     59 N           6.8776  -13.6179  -45.3977 N.am      3 UNK        -0.5000 
     60 C           5.9691  -13.0190  -46.1820 C.2       2 UNK         0.5000 
     61 O           4.8215  -12.7744  -45.8035 O.2       2 UNK        -0.5000 
     62 CA          6.4103  -12.6609  -47.6215 C.3       2 UNK         0.1400 
     63 CB          7.4698  -13.6285  -48.1855 C.3       2 UNK        -0.1800 
     64 N           5.2683  -12.6484  -48.5353 N.am      2 UNK        -0.5000 
     65 C           4.3985  -11.6404  -48.6780 C.2       1 UNK         0.5000 
     66 O           4.5500  -10.5339  -48.1517 O.2       1 UNK        -0.5000 
     67 C          -1.5033  -21.6607  -47.6246 C.2       11 UNK         0.5000 
     68 O          -1.4013  -22.3958  -48.6050 O.2       11 UNK        -0.5000 
     69 N          -2.6792  -21.2725  -47.1071 N.am      12 UNK        -0.5000 
     70 CA         -3.9838  -21.7024  -47.6162 C.3       12 UNK         0.1400 
     71 CB         -5.1039  -20.9506  -46.8842 C.3       12 UNK        -0.1800 
     72 C          -4.1940  -23.2258  -47.5258 C.2       12 UNK         0.5000 
     73 O          -4.7182  -23.8217  -48.4687 O.2       12 UNK        -0.5000 
     74 N          -3.7462  -23.8192  -46.4092 N.am      13 UNK        -0.5000 
     75 CA         -3.7157  -25.2597  -46.1666 C.3       13 UNK         0.1400 
     76 CB         -3.3258  -25.5348  -44.7064 C.3       13 UNK        -0.1800 
     77 C          -2.7737  -25.9986  -47.1331 C.2       13 UNK         0.5000 
     78 O          -3.1685  -27.0168  -47.7014 O.2       13 UNK        -0.5000 
     79 N          -1.5576  -25.4644  -47.3178 N.am      14 UNK        -0.5000 
     80 CA         -0.5439  -26.0064  -48.2251 C.3       14 UNK         0.1400 
     81 CB          0.7864  -25.2697  -48.0079 C.3       14 UNK        -0.1800 
     82 C          -0.9648  -25.9431  -49.7049 C.2       14 UNK         0.5000 
     83 O          -0.7417  -26.9024  -50.4455 O.2       14 UNK        -0.5000 
     84 N          -1.5900  -24.8292  -50.1053 N.am      15 UNK        -0.5000 
     85 CA         -2.1023  -24.5741  -51.4493 C.3       15 UNK         0.1400 
     86 CB         -2.2079  -23.0569  -51.6535 C.3       15 UNK        -0.1800 
     87 C          -3.4337  -25.3089  -51.7089 C.2       15 UNK         0.5000 
     88 O          -4.4849  -24.6767  -51.8559 O.2       15 UNK        -0.5000 
     89 N          -3.3485  -26.6460  -51.7455 N.am      16 UNK        -0.5000 
     90 CA         -4.4022  -27.6174  -52.0676 C.3       16 UNK         0.1400 
     91 CB         -4.8498  -27.4485  -53.5343 C.3       16 UNK        -0.1800 
     92 C          -5.6006  -27.6113  -51.0945 C.2       16 UNK         0.5000 
     93 O          -6.6750  -28.0958  -51.4531 O.2       16 UNK        -0.5000 
     94 N          -5.4026  -27.0523  -49.8913 N.am      17 UNK        -0.5000 
     95 CA         -6.4011  -26.8151  -48.8432 C.3       17 UNK         0.1400 
     96 CB         -6.8888  -28.1470  -48.2372 C.3       17 UNK        -0.1800 
     97 C          -7.5570  -25.8905  -49.2832 C.2       17 UNK         0.5000 
     98 O          -8.6480  -25.9620  -48.7142 O.2       17 UNK        -0.5000 
     99 N          -7.3021  -25.0468  -50.2909 N.am      18 UNK        -0.5000 
    100 CA        -8.2981  -24.1957  -50.9393 C.3       18 UNK         0.1400 
    101 CB        -8.7841  -24.9049  -52.2167 C.3       18 UNK        -0.1800 
    102 C         -7.7576  -22.7914  -51.2564 C.2       18 UNK         0.5000 
    103 O         -8.4753  -22.0110  -51.8834 O.2       18 UNK        -0.5000 
    104 N         -6.5108  -22.4952  -50.8522 N.am      19 UNK        -0.5000 
    105 CA        -5.7490  -21.2905  -51.2024 C.3       19 UNK         0.1400 
    106 CB        -6.3538  -20.0311  -50.5481 C.3       19 UNK        -0.1800 
    107 C         -5.5486  -21.1446  -52.7251 C.2       19 UNK         0.5000 
    108 O         -5.6284  -20.0375  -53.2604 O.2       19 UNK        -0.5000 
    109 N         -5.2785  -22.2711  -53.4013 N.am      20 UNK        -0.5000 
    110 CA        -5.1696  -22.3875  -54.8612 C.3       20 UNK         0.1400 
    111 CB        -4.9835  -23.8685  -55.2228 C.3       20 UNK        -0.1800 
    112 C         -4.0572  -21.5289  -55.4996 C.2       20 UNK         0.5000 
    113 O         -4.1314  -21.2200  -56.6890 O.2       20 UNK        -0.5000 
    114 N         -3.0610  -21.1454  -54.6927 N.am      21 UNK        -0.5000 
    115 CA        -1.9671  -20.2487  -55.0564 C.3       21 UNK         0.1400 
    116 CB        -0.8218  -20.4574  -54.0525 C.3       21 UNK        -0.1800 
    117 C         -2.3772  -18.7619  -55.0991 C.2       21 UNK         0.5000 
    118 O         -1.6263  -17.9619  -55.6585 O.2       21 UNK        -0.5000 
    119 N         -3.5247  -18.4103  -54.5013 N.am      22 UNK        -0.5000 
    120 CA        -4.0305  -17.0324  -54.3897 C.3       22 UNK         0.1400 
    121 C         -5.4776  -16.8572  -54.9280 C.2       22 UNK         0.5000 
    122 N         -6.3320  -17.8710  -54.8782 N.am      22 UNK        -0.7600 
    123 O         -5.8282  -15.7871  -55.4175 O.2       22 UNK        -0.5000 
    124 C124       -3.8894  -16.5031  -52.9331 C.3       23 UNK        -0.0398 
    125 S125       -3.1211  -14.8512  -52.8570 S.3       23 UNK        -0.2404 
    126 C126       -1.3518  -15.2734  -52.9689 C.3       23 UNK        -0.0205 
    127 H127       -0.3090   -9.0699  -49.2374 H         1 UNK         0.0600 
    128 H128       -1.0725  -10.5888  -48.7548 H         1 UNK         0.0600 
    129 H129        0.1972   -9.8821  -47.7525 H         1 UNK         0.0600 
    130 H130        2.2015  -10.8441  -48.0138 H         1 UNK         0.3000 
    131 H131        3.3721  -11.4235  -50.5055 H         1 UNK         0.0600 
    132 H132        1.9810  -13.4530  -50.5324 H         1 UNK         0.0800 
    133 H133        3.6466  -13.8592  -50.3788 H         1 UNK         0.0800 
    134 H134        0.3009  -14.8708  -47.4143 H         1 UNK         0.0800 
    135 H135        0.2143  -13.5141  -48.5074 H         1 UNK         0.0800 
    136 H136       -0.4647  -13.8880  -50.8058 H         1 UNK         0.1150 
    137 H137       -0.9938  -17.8836  -52.2542 H         1 UNK         0.1150 
    138 H138        0.6691  -17.1972  -48.3530 H         1 UNK         0.1150 
    139 H139       -1.0387  -19.6510  -49.8881 H         1 UNK         0.0800 
    140 H140        0.2296  -19.6779  -51.0849 H         1 UNK         0.0800 
    141 H141       -0.6406  -19.0970  -47.4369 H         1 UNK         0.0800 
    142 H142        0.8626  -19.3352  -46.5963 H         1 UNK         0.0800 
    143 H143        0.5676  -21.8900  -47.1652 H         1 UNK         0.0600 
    144 H144       -0.5744  -20.4346  -44.9482 H         1 UNK         0.3000 
    145 H145       -1.0949  -23.3333  -42.9366 H         1 UNK         0.0600 
    146 H146        0.4033  -22.0490  -41.4159 H         1 UNK         0.0600 
    147 H147        1.3326  -22.8325  -42.6834 H         1 UNK         0.0600 
    148 H148        1.0110  -21.1063  -42.7785 H         1 UNK         0.0600 
    149 H149       -1.4068  -20.5418  -42.4216 H         1 UNK         0.3000 
    150 H150       -4.6651  -20.1244  -43.7548 H         1 UNK         0.0600 
    151 H151       -5.1040  -21.2704  -41.5719 H         1 UNK         0.0600 
    152 H152       -5.2240  -19.5243  -41.4200 H         1 UNK         0.0600 
    153 H153       -3.7918  -20.3638  -40.8261 H         1 UNK         0.0600 
    154 H154       -3.0521  -18.4101  -42.1607 H         1 UNK         0.3000 
    155 H155       -1.2784  -16.8189  -44.8149 H         1 UNK         0.0600 
    156 H156       -3.5286  -15.8315  -44.4722 H         1 UNK         0.0600 
    157 H157       -2.2999  -14.9343  -43.5935 H         1 UNK         0.0600 
    158 H158       -3.3800  -16.0267  -42.7318 H         1 UNK         0.0600 
    159 H159        0.1630  -16.9243  -43.2053 H         1 UNK         0.3000 
    160 H160        0.1512  -17.3576  -39.6561 H         1 UNK         0.0600 
    161 H161        2.1771  -18.5459  -40.4558 H         1 UNK         0.0600 
    162 H162        1.5658  -18.5404  -42.1074 H         1 UNK         0.0600 
    163 H163        0.7250  -19.4480  -40.8541 H         1 UNK         0.0600 
    164 H164        1.7316  -16.0654  -41.8150 H         1 UNK         0.3000 
    165 H165        1.2776  -12.8301  -40.5131 H         1 UNK         0.0600 
    166 H166        3.7811  -12.7801  -40.4318 H         1 UNK         0.0600 
    167 H167        3.0982  -13.5432  -39.0036 H         1 UNK         0.0600 
    168 H168        3.8122  -14.5358  -40.2662 H         1 UNK         0.0600 
    169 H169        2.9477  -14.0115  -42.5639 H         1 UNK         0.3000 
    170 H170        0.5073  -14.1818  -45.0741 H         1 UNK         0.0600 
    171 H171        0.7213  -11.7045  -45.1442 H         1 UNK         0.0600 
    172 H172        2.4461  -11.8195  -44.8169 H         1 UNK         0.0600 
    173 H173        1.7879  -12.4372  -46.3281 H         1 UNK         0.0600 
    174 H174        3.3543  -14.1131  -45.2417 H         1 UNK         0.3000 
    175 H175        4.0539  -17.3392  -44.0096 H         1 UNK         0.0600 
    176 H176        4.7822  -17.9949  -46.2754 H         1 UNK         0.0600 
    177 H177        3.0292  -18.0435  -46.1921 H         1 UNK         0.0600 
    178 H178        3.8285  -16.7018  -46.9996 H         1 UNK         0.0600 
    179 H179        5.6182  -15.6504  -45.6636 H         1 UNK         0.3000 
    180 H180        6.4586  -13.1061  -43.4311 H         1 UNK         0.0600 
    181 H181        8.2683  -15.5125  -44.0084 H         1 UNK         0.0600 
    182 H182        7.8750  -14.8990  -42.4068 H         1 UNK         0.0600 
    183 H183        8.8012  -13.9037  -43.5174 H         1 UNK         0.0600 
    184 H184        7.7939  -13.7990  -45.7810 H         1 UNK         0.3000 
    185 H185        6.8491  -11.6619  -47.5857 H         1 UNK         0.0600 
    186 H186        7.7078  -13.3862  -49.2216 H         1 UNK         0.0600 
    187 H187        8.4055  -13.5693  -47.6286 H         1 UNK         0.0600 
    188 H188        7.1275  -14.6639  -48.1580 H         1 UNK         0.0600 
    189 H189        5.0365  -13.5360  -48.9557 H         1 UNK         0.3000 
    190 H190       -2.6796  -20.6348  -46.3178 H         1 UNK         0.3000 
    191 H191       -4.0227  -21.4248  -48.6687 H         1 UNK         0.0600 
    192 H192       -5.1224  -21.1912  -45.8222 H         1 UNK         0.0600 
    193 H193       -6.0802  -21.2144  -47.2924 H         1 UNK         0.0600 
    194 H194       -4.9876  -19.8712  -46.9836 H         1 UNK         0.0600 
    195 H195       -3.4075  -23.2315  -45.6526 H         1 UNK         0.3000 
    196 H196       -4.7253  -25.6431  -46.3086 H         1 UNK         0.0600 
    197 H197       -2.3399  -25.1367  -44.4672 H         1 UNK         0.0600 
    198 H198       -3.3060  -26.6061  -44.5027 H         1 UNK         0.0600 
    199 H199       -4.0421  -25.0871  -44.0173 H         1 UNK         0.0600 
    200 H200       -1.2952  -24.6437  -46.7828 H         1 UNK         0.3000 
    201 H201       -0.3949  -27.0572  -47.9686 H         1 UNK         0.0600 
    202 H202        0.6969  -24.2044  -48.2222 H         1 UNK         0.0600 
    203 H203        1.5661  -25.6711  -48.6564 H         1 UNK         0.0600 
    204 H204        1.1322  -25.3758  -46.9795 H         1 UNK         0.0600 
    205 H205       -1.6963  -24.0688  -49.4380 H         1 UNK         0.3000 
    206 H206       -1.3801  -24.9493  -52.1774 H         1 UNK         0.0600 
    207 H207       -1.2329  -22.5783  -51.5591 H         1 UNK         0.0600 
    208 H208       -2.5888  -22.8294  -52.6462 H         1 UNK         0.0600 
    209 H209       -2.8709  -22.6042  -50.9187 H         1 UNK         0.0600 
    210 H210       -2.4403  -27.0450  -51.5271 H         1 UNK         0.3000 
    211 H211       -3.9429  -28.6022  -51.9725 H         1 UNK         0.0600 
    212 H212       -5.4109  -26.5252  -53.6778 H         1 UNK         0.0600 
    213 H213       -5.4933  -28.2719  -53.8462 H         1 UNK         0.0600 
    214 H214       -3.9958  -27.4324  -54.2112 H         1 UNK         0.0600 
    215 H215       -4.4758  -26.7045  -49.6824 H         1 UNK         0.3000 
    216 H216       -5.8844  -26.2705  -48.0580 H         1 UNK         0.0600 
    217 H217       -6.0482  -28.7634  -47.9182 H         1 UNK         0.0600 
    218 H218       -7.5125  -27.9739  -47.3596 H         1 UNK         0.0600 
    219 H219       -7.4792  -28.7245  -48.9490 H         1 UNK         0.0600 
    220 H220       -6.3780  -25.0604  -50.7075 H         1 UNK         0.3000 
    221 H221       -9.1535  -24.0460  -50.2777 H         1 UNK         0.0600 
    222 H222       -7.9680  -25.0521  -52.9255 H         1 UNK         0.0600 
    223 H223       -9.2066  -25.8835  -51.9875 H         1 UNK         0.0600 
    224 H224       -9.5604  -24.3282  -52.7208 H         1 UNK         0.0600 
    225 H225       -6.0030  -23.1912  -50.3194 H         1 UNK         0.3000 
    226 H226       -4.7537  -21.4235  -50.7870 H         1 UNK         0.0600 
    227 H227       -6.4890  -20.1675  -49.4761 H         1 UNK         0.0600 
    228 H228       -5.6999  -19.1690  -50.6853 H         1 UNK         0.0600 
    229 H229       -7.3227  -19.7747  -50.9772 H         1 UNK         0.0600 
    230 H230       -5.1902  -23.1360  -52.8749 H         1 UNK         0.3000 
    231 H231       -6.1166  -22.0490  -55.2863 H         1 UNK         0.0600 
    232 H232       -5.8290  -24.4635  -54.8780 H         1 UNK         0.0600 
    233 H233       -4.0775  -24.2808  -54.7768 H         1 UNK         0.0600 
    234 H234       -4.9112  -24.0047  -56.3026 H         1 UNK         0.0600 
    235 H235       -3.0954  -21.4472  -53.7318 H         1 UNK         0.3000 
    236 H236       -1.6067  -20.5192  -56.0511 H         1 UNK         0.0600 
    237 H237        0.0236  -19.8052  -54.2760 H         1 UNK         0.0600 
    238 H238       -1.1414  -20.2447  -53.0322 H         1 UNK         0.0600 
    239 H239       -0.4548  -21.4835  -54.0810 H         1 UNK         0.0600 
    240 H240       -4.1149  -19.1289  -54.0968 H         1 UNK         0.3000 
    241 H241       -3.4277  -16.4013  -55.0452 H         1 UNK         0.0600 
    242 H242       -6.0978  -18.7310  -54.3868 H         1 UNK         0.3800 
    243 H243       -7.2633  -17.7471  -55.2416 H         1 UNK         0.3800 
    244 H244       -4.8544  -16.4536  -52.4249 H         1 UNK         0.0800 
    245 H245       -3.2990  -17.1846  -52.3219 H         1 UNK         0.0800 
    246 H246       -0.7965  -14.3741  -53.2395 H         1 UNK         0.0800 
    247 H247       -1.1911  -15.9803  -53.7839 H         1 UNK         0.0800 
@<TRIPOS>BOND
     1    1    2 1    
     2    1  127 1    
     3    1  128 1    
     4    1  129 1    
     5    2    3 2    
     6    2    4 am   BACKBONE|DICT|INTERRES
     7    4    5 1    
     8    4  130 1    
     9    5    6 1    
    10    5   65 1    
    11    5  131 1    
    12    6    7 1    
    13    6  132 1    
    14    6  133 1    
    15    7    8 1    
    16    8    9 1    
    17    8  134 1    
    18    8  135 1    
    19    9   10 ar   
    20    9   14 ar   
    21   10   11 ar   
    22   10  136 1    
    23   11   12 ar   
    24   11  126 1    
    25   12   13 ar   
    26   12  137 1    
    27   13   14 ar   
    28   13   15 1    
    29   14  138 1    
    30   15   16 1    
    31   15  139 1    
    32   15  140 1    
    33   16   17 1    
    34   17   18 1    
    35   17  141 1    
    36   17  142 1    
    37   18   19 1    
    38   18   67 1    
    39   18  143 1    
    40   19   20 am   BACKBONE|DICT|INTERRES
    41   19  144 1    
    42   20   21 2    
    43   20   22 1    
    44   22   23 1    
    45   22   24 1    
    46   22  145 1    
    47   23  146 1    
    48   23  147 1    
    49   23  148 1    
    50   24   25 am   BACKBONE|DICT|INTERRES
    51   24  149 1    
    52   25   26 2    
    53   25   27 1    
    54   27   28 1    
    55   27   29 1    
    56   27  150 1    
    57   28  151 1    
    58   28  152 1    
    59   28  153 1    
    60   29   30 am   BACKBONE|DICT|INTERRES
    61   29  154 1    
    62   30   31 2    
    63   30   32 1    
    64   32   33 1    
    65   32   34 1    
    66   32  155 1    
    67   33  156 1    
    68   33  157 1    
    69   33  158 1    
    70   34   35 am   BACKBONE|DICT|INTERRES
    71   34  159 1    
    72   35   36 2    
    73   35   37 1    
    74   37   38 1    
    75   37   39 1    
    76   37  160 1    
    77   38  161 1    
    78   38  162 1    
    79   38  163 1    
    80   39   40 am   BACKBONE|DICT|INTERRES
    81   39  164 1    
    82   40   41 2    
    83   40   42 1    
    84   42   43 1    
    85   42   44 1    
    86   42  165 1    
    87   43  166 1    
    88   43  167 1    
    89   43  168 1    
    90   44   45 am   BACKBONE|DICT|INTERRES
    91   44  169 1    
    92   45   46 2    
    93   45   47 1    
    94   47   48 1    
    95   47   49 1    
    96   47  170 1    
    97   48  171 1    
    98   48  172 1    
    99   48  173 1    
   100   49   50 am   BACKBONE|DICT|INTERRES
   101   49  174 1    
   102   50   51 2    
   103   50   52 1    
   104   52   53 1    
   105   52   54 1    
   106   52  175 1    
   107   53  176 1    
   108   53  177 1    
   109   53  178 1    
   110   54   55 am   BACKBONE|DICT|INTERRES
   111   54  179 1    
   112   55   56 2    
   113   55   57 1    
   114   57   58 1    
   115   57   59 1    
   116   57  180 1    
   117   58  181 1    
   118   58  182 1    
   119   58  183 1    
   120   59   60 am   BACKBONE|DICT|INTERRES
   121   59  184 1    
   122   60   61 2    
   123   60   62 1    
   124   62   63 1    
   125   62   64 1    
   126   62  185 1    
   127   63  186 1    
   128   63  187 1    
   129   63  188 1    
   130   64   65 am   BACKBONE|DICT|INTERRES
   131   64  189 1    
   132   65   66 2    
   133   67   68 2    
   134   67   69 am   BACKBONE|DICT|INTERRES
   135   69   70 1    
   136   69  190 1    
   137   70   71 1    
   138   70   72 1    
   139   70  191 1    
   140   71  192 1    
   141   71  193 1    
   142   71  194 1    
   143   72   73 2    
   144   72   74 am   BACKBONE|DICT|INTERRES
   145   74   75 1    
   146   74  195 1    
   147   75   76 1    
   148   75   77 1    
   149   75  196 1    
   150   76  197 1    
   151   76  198 1    
   152   76  199 1    
   153   77   78 2    
   154   77   79 am   BACKBONE|DICT|INTERRES
   155   79   80 1    
   156   79  200 1    
   157   80   81 1    
   158   80   82 1    
   159   80  201 1    
   160   81  202 1    
   161   81  203 1    
   162   81  204 1    
   163   82   83 2    
   164   82   84 am   BACKBONE|DICT|INTERRES
   165   84   85 1    
   166   84  205 1    
   167   85   86 1    
   168   85   87 1    
   169   85  206 1    
   170   86  207 1    
   171   86  208 1    
   172   86  209 1    
   173   87   88 2    
   174   87   89 am   BACKBONE|DICT|INTERRES
   175   89   90 1    
   176   89  210 1    
   177   90   91 1    
   178   90   92 1    
   179   90  211 1    
   180   91  212 1    
   181   91  213 1    
   182   91  214 1    
   183   92   93 2    
   184   92   94 am   BACKBONE|DICT|INTERRES
   185   94   95 1    
   186   94  215 1    
   187   95   96 1    
   188   95   97 1    
   189   95  216 1    
   190   96  217 1    
   191   96  218 1    
   192   96  219 1    
   193   97   98 2    
   194   97   99 am   BACKBONE|DICT|INTERRES
   195   99  100 1    
   196   99  220 1    
   197  100  101 1    
   198  100  102 1    
   199  100  221 1    
   200  101  222 1    
   201  101  223 1    
   202  101  224 1    
   203  102  103 2    
   204  102  104 am   BACKBONE|DICT|INTERRES
   205  104  105 1    
   206  104  225 1    
   207  105  106 1    
   208  105  107 1    
   209  105  226 1    
   210  106  227 1    
   211  106  228 1    
   212  106  229 1    
   213  107  108 2    
   214  107  109 am   BACKBONE|DICT|INTERRES
   215  109  110 1    
   216  109  230 1    
   217  110  111 1    
   218  110  112 1    
   219  110  231 1    
   220  111  232 1    
   221  111  233 1    
   222  111  234 1    
   223  112  113 2    
   224  112  114 am   BACKBONE|DICT|INTERRES
   225  114  115 1    
   226  114  235 1    
   227  115  116 1    
   228  115  117 1    
   229  115  236 1    
   230  116  237 1    
   231  116  238 1    
   232  116  239 1    
   233  117  118 2    
   234  117  119 am   BACKBONE|DICT|INTERRES
   235  119  120 1    
   236  119  240 1    
   237  120  121 1    
   238  120  124 1    
   239  120  241 1    
   240  121  122 am   BACKBONE|DICT|INTERRES
   241  121  123 2    
   242  122  242 1    
   243  122  243 1    
   244  124  125 1    
   245  124  244 1    
   246  124  245 1    
   247  125  126 1    
   248  126  246 1    
   249  126  247 1    
@<TRIPOS>SUBSTRUCTURE
     1 UNK         1 GROUP             0       ****    0 ROOT    
