@<TRIPOS>MOLECULE
3R540
247   249    1
SMALL
USER_CHARGES


@<TRIPOS>ATOM
      1 CA         -5.0564  -16.4117  -47.5358 C.3       0 UNK        -0.1800 
      2 C          -3.9235  -15.3959  -47.5064 C.2       0 UNK         0.5000 
      3 O          -2.7890  -15.7520  -47.1901 O.2       0 UNK        -0.5000 
      4 N          -4.2378  -14.1261  -47.7985 N.am      1 UNK        -0.5000 
      5 CA         -3.3565  -12.9459  -47.8516 C.3       1 UNK         0.1400 
      6 C6         -2.2460  -13.0315  -48.9333 C.3       23 UNK        -0.0398 
      7 S7         -2.9443  -12.9938  -50.6212 S.3       23 UNK        -0.2404 
      8 C8         -1.9966  -14.2894  -51.4835 C.3       23 UNK        -0.0205 
      9 C9         -2.3976  -15.6880  -51.0422 C.ar      23 UNK        -0.0193 
     10 C10        -3.6532  -16.1967  -51.3825 C.ar      23 UNK        -0.1150 
     11 C11        -4.0401  -17.4781  -50.9780 C.ar      23 UNK        -0.0193 
     12 C12        -3.1534  -18.2511  -50.2209 C.ar      23 UNK        -0.1150 
     13 C13        -1.9048  -17.7402  -49.8514 C.ar      23 UNK        -0.0193 
     14 C14        -1.5242  -16.4669  -50.2810 C.ar      23 UNK        -0.1150 
     15 C15        -1.0120  -18.5149  -48.9001 C.3       23 UNK        -0.0205 
     16 S16        -0.0784  -19.8490  -49.7100 S.3       23 UNK        -0.2404 
     17 C17         0.7136  -20.6147  -48.2396 C.3       23 UNK        -0.0398 
     18 CA          0.0583  -21.8845  -47.6080 C.3       11 UNK         0.1400 
     19 N           0.3390  -21.9776  -46.1681 N.am      11 UNK        -0.5000 
     20 C           0.0162  -23.0135  -45.3784 C.2       10 UNK         0.5000 
     21 O          -0.5053  -24.0494  -45.7877 O.2       10 UNK        -0.5000 
     22 CA          0.2719  -22.8533  -43.8688 C.3       10 UNK         0.1400 
     23 CB          1.7509  -23.0932  -43.5347 C.3       10 UNK        -0.1800 
     24 N          -0.1520  -21.5493  -43.3583 N.am      10 UNK        -0.5000 
     25 C          -1.4215  -21.1157  -43.3433 C.2       9 UNK         0.5000 
     26 O          -2.3812  -21.7958  -43.7071 O.2       9 UNK        -0.5000 
     27 CA         -1.6542  -19.6564  -42.9062 C.3       9 UNK         0.1400 
     28 CB         -1.6613  -19.5327  -41.3759 C.3       9 UNK        -0.1800 
     29 N          -0.6688  -18.7343  -43.4741 N.am      9 UNK        -0.5000 
     30 C          -0.4872  -18.5423  -44.7883 C.2       8 UNK         0.5000 
     31 O          -1.1666  -19.0880  -45.6545 O.2       8 UNK        -0.5000 
     32 CA          0.7001  -17.6600  -45.2064 C.3       8 UNK         0.1400 
     33 CB          0.3511  -16.1683  -45.1249 C.3       8 UNK        -0.1800 
     34 N           1.8915  -17.9557  -44.4107 N.am      8 UNK        -0.5000 
     35 C           2.5986  -19.0902  -44.5218 C.2       7 UNK         0.5000 
     36 O           2.3610  -19.9611  -45.3585 O.2       7 UNK        -0.5000 
     37 CA          3.7220  -19.3175  -43.4950 C.3       7 UNK         0.1400 
     38 CB          5.0539  -18.7417  -43.9931 C.3       7 UNK        -0.1800 
     39 N           3.3942  -18.7533  -42.1849 N.am      7 UNK        -0.5000 
     40 C           2.4893  -19.2938  -41.3560 C.2       6 UNK         0.5000 
     41 O           1.8732  -20.3289  -41.6080 O.2       6 UNK        -0.5000 
     42 CA          2.1860  -18.5377  -40.0488 C.3       6 UNK         0.1400 
     43 CB          3.1352  -18.9939  -38.9313 C.3       6 UNK        -0.1800 
     44 N           2.2601  -17.0817  -40.1800 N.am      6 UNK        -0.5000 
     45 C           1.4958  -16.3405  -40.9932 C.2       5 UNK         0.5000 
     46 O           0.6372  -16.8174  -41.7363 O.2       5 UNK        -0.5000 
     47 CA          1.7423  -14.8179  -41.0106 C.3       5 UNK         0.1400 
     48 CB          2.6472  -14.3118  -39.8651 C.3       5 UNK        -0.1800 
     49 N           2.2603  -14.3554  -42.3018 N.am      5 UNK        -0.5000 
     50 C           3.3622  -14.7835  -42.9400 C.2       4 UNK         0.5000 
     51 O           4.0679  -15.7059  -42.5285 O.2       4 UNK        -0.5000 
     52 CA          3.7412  -14.0768  -44.2596 C.3       4 UNK         0.1400 
     53 CB          4.1857  -15.0738  -45.3436 C.3       4 UNK        -0.1800 
     54 N           2.6470  -13.2587  -44.7877 N.am      4 UNK        -0.5000 
     55 C           2.5426  -11.9313  -44.6488 C.2       3 UNK         0.5000 
     56 O           3.3790  -11.2309  -44.0780 O.2       3 UNK        -0.5000 
     57 CA          1.2748  -11.2769  -45.2295 C.3       3 UNK         0.1400 
     58 CB          1.5225  -10.8143  -46.6734 C.3       3 UNK        -0.1800 
     59 N           0.0845  -12.1333  -45.2051 N.am      3 UNK        -0.5000 
     60 C          -0.5160  -12.6062  -44.1043 C.2       2 UNK         0.5000 
     61 O          -0.0388  -12.4834  -42.9756 O.2       2 UNK        -0.5000 
     62 CA         -1.8504  -13.3666  -44.2766 C.3       2 UNK         0.1400 
     63 CB         -2.9460  -12.7990  -43.3523 C.3       2 UNK        -0.1800 
     64 N          -2.3439  -13.4800  -45.6579 N.am      2 UNK        -0.5000 
     65 C          -2.7816  -12.5163  -46.4805 C.2       1 UNK         0.5000 
     66 O          -2.7526  -11.3186  -46.1977 O.2       1 UNK        -0.5000 
     67 C          -1.4524  -22.0263  -47.8971 C.2       11 UNK         0.5000 
     68 O          -1.8318  -22.7578  -48.8123 O.2       11 UNK        -0.5000 
     69 N          -2.2744  -21.3174  -47.1150 N.am      12 UNK        -0.5000 
     70 CA         -3.7211  -21.2740  -47.2605 C.3       12 UNK         0.1400 
     71 CB         -4.2752  -20.0672  -46.4860 C.3       12 UNK        -0.1800 
     72 C          -4.3887  -22.5858  -46.8221 C.2       12 UNK         0.5000 
     73 O          -5.0329  -23.2360  -47.6448 O.2       12 UNK        -0.5000 
     74 N          -4.2423  -22.9381  -45.5394 N.am      13 UNK        -0.5000 
     75 CA         -4.9858  -24.0229  -44.9064 C.3       13 UNK         0.1400 
     76 CB         -5.1751  -23.7126  -43.4117 C.3       13 UNK        -0.1800 
     77 C          -4.3206  -25.3904  -45.1125 C.2       13 UNK         0.5000 
     78 O          -4.9359  -26.2794  -45.7014 O.2       13 UNK        -0.5000 
     79 N          -3.0922  -25.5456  -44.6003 N.am      14 UNK        -0.5000 
     80 CA         -2.3942  -26.8321  -44.5153 C.3       14 UNK         0.1400 
     81 CB         -1.1753  -26.7024  -43.5880 C.3       14 UNK        -0.1800 
     82 C          -1.9873  -27.3939  -45.8876 C.2       14 UNK         0.5000 
     83 O          -2.1891  -28.5809  -46.1467 O.2       14 UNK        -0.5000 
     84 N          -1.4423  -26.5239  -46.7444 N.am      15 UNK        -0.5000 
     85 CA         -1.0192  -26.8495  -48.1058 C.3       15 UNK         0.1400 
     86 CB          0.1597  -25.9433  -48.4794 C.3       15 UNK        -0.1800 
     87 C          -2.1594  -26.7361  -49.1390 C.2       15 UNK         0.5000 
     88 O          -1.9479  -27.1050  -50.2946 O.2       15 UNK        -0.5000 
     89 N          -3.3364  -26.2559  -48.7068 N.am      16 UNK        -0.5000 
     90 CA         -4.5825  -26.1173  -49.4664 C.3       16 UNK         0.1400 
     91 CB         -5.1518  -27.5060  -49.8260 C.3       16 UNK        -0.1800 
     92 C          -4.4329  -25.1890  -50.6896 C.2       16 UNK         0.5000 
     93 O          -4.5439  -25.6425  -51.8304 O.2       16 UNK        -0.5000 
     94 N          -4.1872  -23.9021  -50.4076 N.am      17 UNK        -0.5000 
     95 CA         -3.9989  -22.7949  -51.3509 C.3       17 UNK         0.1400 
     96 CB         -5.3003  -22.5093  -52.1282 C.3       17 UNK        -0.1800 
     97 C          -2.7801  -23.0104  -52.2699 C.2       17 UNK         0.5000 
     98 O          -2.9307  -23.1990  -53.4784 O.2       17 UNK        -0.5000 
     99 N          -1.5870  -23.0007  -51.6617 N.am      18 UNK        -0.5000 
    100 CA        -0.3021  -23.1961  -52.3401 C.3       18 UNK         0.1400 
    101 CB         0.8035  -23.3855  -51.2928 C.3       18 UNK        -0.1800 
    102 C          0.0817  -22.0677  -53.3184 C.2       18 UNK         0.5000 
    103 O          0.8103  -22.3294  -54.2770 O.2       18 UNK        -0.5000 
    104 N         -0.3965  -20.8414  -53.0650 N.am      19 UNK        -0.5000 
    105 CA        -0.2107  -19.6792  -53.9342 C.3       19 UNK         0.1400 
    106 CB        -0.7092  -18.4197  -53.2110 C.3       19 UNK        -0.1800 
    107 C         -0.9463  -19.8613  -55.2734 C.2       19 UNK         0.5000 
    108 O         -2.1157  -20.2514  -55.2679 O.2       19 UNK        -0.5000 
    109 N         -0.2525  -19.5675  -56.3827 N.am      20 UNK        -0.5000 
    110 CA        -0.7108  -19.7273  -57.7666 C.3       20 UNK         0.1400 
    111 CB         0.4039  -19.2625  -58.7182 C.3       20 UNK        -0.1800 
    112 C         -2.0306  -18.9828  -58.0423 C.2       20 UNK         0.5000 
    113 O         -2.0266  -17.7573  -58.1830 O.2       20 UNK        -0.5000 
    114 N         -3.1384  -19.7396  -58.0293 N.am      21 UNK        -0.5000 
    115 CA        -4.5329  -19.2869  -58.1226 C.3       21 UNK         0.1400 
    116 CB        -4.8332  -18.7852  -59.5504 C.3       21 UNK        -0.1800 
    117 C         -4.9293  -18.2558  -57.0390 C.2       21 UNK         0.5000 
    118 O         -5.8569  -17.4736  -57.2552 O.2       21 UNK        -0.5000 
    119 N         -4.2038  -18.2520  -55.9097 N.am      22 UNK        -0.5000 
    120 CA        -4.2559  -17.2304  -54.8496 C.3       22 UNK         0.1400 
    121 C         -3.8709  -15.7913  -55.3212 C.2       22 UNK         0.5000 
    122 N         -3.1241  -15.6296  -56.4087 N.am      22 UNK        -0.7600 
    123 O         -4.2206  -14.8033  -54.6819 O.2       22 UNK        -0.5000 
    124 C124       -5.5748  -17.2974  -54.0289 C.3       23 UNK        -0.0398 
    125 S125       -5.5878  -18.7549  -52.9294 S.3       23 UNK        -0.2404 
    126 C126       -5.4427  -17.9918  -51.2811 C.3       23 UNK        -0.0205 
    127 H127       -5.2547  -16.7794  -46.5293 H         1 UNK         0.0600 
    128 H128       -4.7849  -17.2616  -48.1589 H         1 UNK         0.0600 
    129 H129       -5.9766  -15.9828  -47.9325 H         1 UNK         0.0600 
    130 H130       -5.2019  -13.9227  -48.0205 H         1 UNK         0.3000 
    131 H131       -4.0177  -12.1271  -48.1412 H         1 UNK         0.0600 
    132 H132       -1.6356  -13.9242  -48.7939 H         1 UNK         0.0800 
    133 H133       -1.5635  -12.1831  -48.8560 H         1 UNK         0.0800 
    134 H134       -0.9291  -14.1207  -51.3336 H         1 UNK         0.0800 
    135 H135       -2.1730  -14.1963  -52.5562 H         1 UNK         0.0800 
    136 H136       -4.3342  -15.5725  -51.9410 H         1 UNK         0.1150 
    137 H137       -3.4522  -19.2300  -49.8748 H         1 UNK         0.1150 
    138 H138       -0.5631  -16.0679  -49.9893 H         1 UNK         0.1150 
    139 H139       -0.3183  -17.8384  -48.3994 H         1 UNK         0.0800 
    140 H140       -1.6433  -18.9315  -48.1194 H         1 UNK         0.0800 
    141 H141        0.7933  -19.8343  -47.4855 H         1 UNK         0.0800 
    142 H142        1.7462  -20.8456  -48.5038 H         1 UNK         0.0800 
    143 H143        0.5358  -22.7484  -48.0722 H         1 UNK         0.0600 
    144 H144        0.8108  -21.1820  -45.7509 H         1 UNK         0.3000 
    145 H145       -0.3160  -23.6137  -43.3513 H         1 UNK         0.0600 
    146 H146        1.9233  -23.0528  -42.4591 H         1 UNK         0.0600 
    147 H147        2.3972  -22.3524  -44.0050 H         1 UNK         0.0600 
    148 H148        2.0734  -24.0766  -43.8791 H         1 UNK         0.0600 
    149 H149        0.5736  -20.9513  -42.9757 H         1 UNK         0.3000 
    150 H150       -2.6364  -19.3537  -43.2749 H         1 UNK         0.0600 
    151 H151       -2.4394  -20.1598  -40.9393 H         1 UNK         0.0600 
    152 H152       -1.8552  -18.5064  -41.0635 H         1 UNK         0.0600 
    153 H153       -0.7111  -19.8411  -40.9412 H         1 UNK         0.0600 
    154 H154       -0.0978  -18.2063  -42.8198 H         1 UNK         0.3000 
    155 H155        0.9246  -17.8811  -46.2507 H         1 UNK         0.0600 
    156 H156        0.2420  -15.8296  -44.0960 H         1 UNK         0.0600 
    157 H157       -0.5863  -15.9645  -45.6425 H         1 UNK         0.0600 
    158 H158        1.1152  -15.5604  -45.6046 H         1 UNK         0.0600 
    159 H159        2.1052  -17.3279  -43.6493 H         1 UNK         0.3000 
    160 H160        3.8506  -20.3961  -43.3826 H         1 UNK         0.0600 
    161 H161        5.0106  -17.6595  -44.0978 H         1 UNK         0.0600 
    162 H162        5.3197  -19.1562  -44.9663 H         1 UNK         0.0600 
    163 H163        5.8661  -18.9782  -43.3056 H         1 UNK         0.0600 
    164 H164        3.8247  -17.8685  -41.9430 H         1 UNK         0.3000 
    165 H165        1.1662  -18.7900  -39.7525 H         1 UNK         0.0600 
    166 H166        2.8730  -18.5343  -37.9782 H         1 UNK         0.0600 
    167 H167        3.0853  -20.0749  -38.7938 H         1 UNK         0.0600 
    168 H168        4.1720  -18.7387  -39.1544 H         1 UNK         0.0600 
    169 H169        2.9612  -16.6132  -39.6249 H         1 UNK         0.3000 
    170 H170        0.7630  -14.3533  -40.8869 H         1 UNK         0.0600 
    171 H171        2.2492  -14.5980  -38.8906 H         1 UNK         0.0600 
    172 H172        3.6648  -14.6970  -39.9394 H         1 UNK         0.0600 
    173 H173        2.7090  -13.2235  -39.8754 H         1 UNK         0.0600 
    174 H174        1.7201  -13.6112  -42.7281 H         1 UNK         0.3000 
    175 H175        4.5999  -13.4416  -44.0338 H         1 UNK         0.0600 
    176 H176        3.4441  -15.8520  -45.5185 H         1 UNK         0.0600 
    177 H177        4.3711  -14.5689  -46.2918 H         1 UNK         0.0600 
    178 H178        5.1174  -15.5627  -45.0593 H         1 UNK         0.0600 
    179 H179        1.9047  -13.7448  -45.2678 H         1 UNK         0.3000 
    180 H180        1.0571  -10.3960  -44.6222 H         1 UNK         0.0600 
    181 H181        0.6660  -10.2641  -47.0639 H         1 UNK         0.0600 
    182 H182        1.7129  -11.6571  -47.3391 H         1 UNK         0.0600 
    183 H183        2.3861  -10.1501  -46.7289 H         1 UNK         0.0600 
    184 H184       -0.3867  -12.2726  -46.0857 H         1 UNK         0.3000 
    185 H185       -1.6575  -14.3876  -43.9476 H         1 UNK         0.0600 
    186 H186       -3.1627  -11.7534  -43.5724 H         1 UNK         0.0600 
    187 H187       -3.8741  -13.3624  -43.4490 H         1 UNK         0.0600 
    188 H188       -2.6433  -12.8540  -42.3059 H         1 UNK         0.0600 
    189 H189       -2.3978  -14.4280  -46.0288 H         1 UNK         0.3000 
    190 H190       -1.8694  -20.7031  -46.4135 H         1 UNK         0.3000 
    191 H191       -3.9514  -21.1215  -48.3167 H         1 UNK         0.0600 
    192 H192       -3.8493  -19.1357  -46.8587 H         1 UNK         0.0600 
    193 H193       -4.0485  -20.1272  -45.4210 H         1 UNK         0.0600 
    194 H194       -5.3583  -19.9966  -46.5912 H         1 UNK         0.0600 
    195 H195       -3.6252  -22.3966  -44.9374 H         1 UNK         0.3000 
    196 H196       -5.9822  -24.0728  -45.3517 H         1 UNK         0.0600 
    197 H197       -5.7249  -22.7818  -43.2719 H         1 UNK         0.0600 
    198 H198       -4.2238  -23.6171  -42.8875 H         1 UNK         0.0600 
    199 H199       -5.7432  -24.5023  -42.9184 H         1 UNK         0.0600 
    200 H200       -2.6335  -24.7466  -44.1875 H         1 UNK         0.3000 
    201 H201       -3.0810  -27.5487  -44.0596 H         1 UNK         0.0600 
    202 H202       -1.4646  -26.3402  -42.6015 H         1 UNK         0.0600 
    203 H203       -0.4267  -26.0209  -43.9910 H         1 UNK         0.0600 
    204 H204       -0.6908  -27.6696  -43.4490 H         1 UNK         0.0600 
    205 H205       -1.2612  -25.5724  -46.4265 H         1 UNK         0.3000 
    206 H206       -0.6633  -27.8816  -48.1304 H         1 UNK         0.0600 
    207 H207       -0.1539  -24.9032  -48.5475 H         1 UNK         0.0600 
    208 H208        0.9596  -26.0056  -47.7414 H         1 UNK         0.0600 
    209 H209        0.5819  -26.2332  -49.4419 H         1 UNK         0.0600 
    210 H210       -3.3911  -25.9834  -47.7355 H         1 UNK         0.3000 
    211 H211       -5.3010  -25.6430  -48.7967 H         1 UNK         0.0600 
    212 H212       -4.4945  -28.0567  -50.4995 H         1 UNK         0.0600 
    213 H213       -6.1201  -27.4127  -50.3189 H         1 UNK         0.0600 
    214 H214       -5.2994  -28.1125  -48.9323 H         1 UNK         0.0600 
    215 H215       -4.1096  -23.6502  -49.4275 H         1 UNK         0.3000 
    216 H216       -3.7816  -21.9095  -50.7515 H         1 UNK         0.0600 
    217 H217       -5.1643  -21.6737  -52.8144 H         1 UNK         0.0600 
    218 H218       -6.1135  -22.2469  -51.4516 H         1 UNK         0.0600 
    219 H219       -5.6203  -23.3639  -52.7243 H         1 UNK         0.0600 
    220 H220       -1.5661  -22.8879  -50.6502 H         1 UNK         0.3000 
    221 H221       -0.3744  -24.1169  -52.9226 H         1 UNK         0.0600 
    222 H222        0.8932  -22.5202  -50.6374 H         1 UNK         0.0600 
    223 H223        0.6066  -24.2583  -50.6763 H         1 UNK         0.0600 
    224 H224        1.7731  -23.5395  -51.7680 H         1 UNK         0.0600 
    225 H225       -0.9864  -20.7135  -52.2564 H         1 UNK         0.3000 
    226 H226        0.8581  -19.5652  -54.1270 H         1 UNK         0.0600 
    227 H227       -0.1034  -18.2081  -52.3302 H         1 UNK         0.0600 
    228 H228       -0.6566  -17.5429  -53.8576 H         1 UNK         0.0600 
    229 H229       -1.7440  -18.5281  -52.8851 H         1 UNK         0.0600 
    230 H230        0.6927  -19.2292  -56.2772 H         1 UNK         0.3000 
    231 H231       -0.8717  -20.7934  -57.9390 H         1 UNK         0.0600 
    232 H232        0.0949  -19.3631  -59.7595 H         1 UNK         0.0600 
    233 H233        1.3074  -19.8588  -58.5898 H         1 UNK         0.0600 
    234 H234        0.6660  -18.2164  -58.5536 H         1 UNK         0.0600 
    235 H235       -3.0259  -20.7247  -57.8321 H         1 UNK         0.3000 
    236 H236       -5.1530  -20.1659  -57.9417 H         1 UNK         0.0600 
    237 H237       -4.2918  -17.8662  -59.7770 H         1 UNK         0.0600 
    238 H238       -4.5567  -19.5301  -60.2965 H         1 UNK         0.0600 
    239 H239       -5.8964  -18.5794  -59.6800 H         1 UNK         0.0600 
    240 H240       -3.4847  -18.9611  -55.7979 H         1 UNK         0.3000 
    241 H241       -3.4433  -17.4844  -54.1698 H         1 UNK         0.0600 
    242 H242       -2.8745  -14.6975  -56.6977 H         1 UNK         0.3800 
    243 H243       -2.8130  -16.4228  -56.9615 H         1 UNK         0.3800 
    244 H244       -6.4423  -17.3486  -54.6868 H         1 UNK         0.0800 
    245 H245       -5.7325  -16.4034  -53.4281 H         1 UNK         0.0800 
    246 H246       -5.7294  -18.7344  -50.5350 H         1 UNK         0.0800 
    247 H247       -6.1668  -17.1816  -51.1843 H         1 UNK         0.0800 
@<TRIPOS>BOND
     1    1    2 1    
     2    1  127 1    
     3    1  128 1    
     4    1  129 1    
     5    2    3 2    
     6    2    4 am   BACKBONE|DICT|INTERRES
     7    4    5 1    
     8    4  130 1    
     9    5    6 1    
    10    5   65 1    
    11    5  131 1    
    12    6    7 1    
    13    6  132 1    
    14    6  133 1    
    15    7    8 1    
    16    8    9 1    
    17    8  134 1    
    18    8  135 1    
    19    9   10 ar   
    20    9   14 ar   
    21   10   11 ar   
    22   10  136 1    
    23   11   12 ar   
    24   11  126 1    
    25   12   13 ar   
    26   12  137 1    
    27   13   14 ar   
    28   13   15 1    
    29   14  138 1    
    30   15   16 1    
    31   15  139 1    
    32   15  140 1    
    33   16   17 1    
    34   17   18 1    
    35   17  141 1    
    36   17  142 1    
    37   18   19 1    
    38   18   67 1    
    39   18  143 1    
    40   19   20 am   BACKBONE|DICT|INTERRES
    41   19  144 1    
    42   20   21 2    
    43   20   22 1    
    44   22   23 1    
    45   22   24 1    
    46   22  145 1    
    47   23  146 1    
    48   23  147 1    
    49   23  148 1    
    50   24   25 am   BACKBONE|DICT|INTERRES
    51   24  149 1    
    52   25   26 2    
    53   25   27 1    
    54   27   28 1    
    55   27   29 1    
    56   27  150 1    
    57   28  151 1    
    58   28  152 1    
    59   28  153 1    
    60   29   30 am   BACKBONE|DICT|INTERRES
    61   29  154 1    
    62   30   31 2    
    63   30   32 1    
    64   32   33 1    
    65   32   34 1    
    66   32  155 1    
    67   33  156 1    
    68   33  157 1    
    69   33  158 1    
    70   34   35 am   BACKBONE|DICT|INTERRES
    71   34  159 1    
    72   35   36 2    
    73   35   37 1    
    74   37   38 1    
    75   37   39 1    
    76   37  160 1    
    77   38  161 1    
    78   38  162 1    
    79   38  163 1    
    80   39   40 am   BACKBONE|DICT|INTERRES
    81   39  164 1    
    82   40   41 2    
    83   40   42 1    
    84   42   43 1    
    85   42   44 1    
    86   42  165 1    
    87   43  166 1    
    88   43  167 1    
    89   43  168 1    
    90   44   45 am   BACKBONE|DICT|INTERRES
    91   44  169 1    
    92   45   46 2    
    93   45   47 1    
    94   47   48 1    
    95   47   49 1    
    96   47  170 1    
    97   48  171 1    
    98   48  172 1    
    99   48  173 1    
   100   49   50 am   BACKBONE|DICT|INTERRES
   101   49  174 1    
   102   50   51 2    
   103   50   52 1    
   104   52   53 1    
   105   52   54 1    
   106   52  175 1    
   107   53  176 1    
   108   53  177 1    
   109   53  178 1    
   110   54   55 am   BACKBONE|DICT|INTERRES
   111   54  179 1    
   112   55   56 2    
   113   55   57 1    
   114   57   58 1    
   115   57   59 1    
   116   57  180 1    
   117   58  181 1    
   118   58  182 1    
   119   58  183 1    
   120   59   60 am   BACKBONE|DICT|INTERRES
   121   59  184 1    
   122   60   61 2    
   123   60   62 1    
   124   62   63 1    
   125   62   64 1    
   126   62  185 1    
   127   63  186 1    
   128   63  187 1    
   129   63  188 1    
   130   64   65 am   BACKBONE|DICT|INTERRES
   131   64  189 1    
   132   65   66 2    
   133   67   68 2    
   134   67   69 am   BACKBONE|DICT|INTERRES
   135   69   70 1    
   136   69  190 1    
   137   70   71 1    
   138   70   72 1    
   139   70  191 1    
   140   71  192 1    
   141   71  193 1    
   142   71  194 1    
   143   72   73 2    
   144   72   74 am   BACKBONE|DICT|INTERRES
   145   74   75 1    
   146   74  195 1    
   147   75   76 1    
   148   75   77 1    
   149   75  196 1    
   150   76  197 1    
   151   76  198 1    
   152   76  199 1    
   153   77   78 2    
   154   77   79 am   BACKBONE|DICT|INTERRES
   155   79   80 1    
   156   79  200 1    
   157   80   81 1    
   158   80   82 1    
   159   80  201 1    
   160   81  202 1    
   161   81  203 1    
   162   81  204 1    
   163   82   83 2    
   164   82   84 am   BACKBONE|DICT|INTERRES
   165   84   85 1    
   166   84  205 1    
   167   85   86 1    
   168   85   87 1    
   169   85  206 1    
   170   86  207 1    
   171   86  208 1    
   172   86  209 1    
   173   87   88 2    
   174   87   89 am   BACKBONE|DICT|INTERRES
   175   89   90 1    
   176   89  210 1    
   177   90   91 1    
   178   90   92 1    
   179   90  211 1    
   180   91  212 1    
   181   91  213 1    
   182   91  214 1    
   183   92   93 2    
   184   92   94 am   BACKBONE|DICT|INTERRES
   185   94   95 1    
   186   94  215 1    
   187   95   96 1    
   188   95   97 1    
   189   95  216 1    
   190   96  217 1    
   191   96  218 1    
   192   96  219 1    
   193   97   98 2    
   194   97   99 am   BACKBONE|DICT|INTERRES
   195   99  100 1    
   196   99  220 1    
   197  100  101 1    
   198  100  102 1    
   199  100  221 1    
   200  101  222 1    
   201  101  223 1    
   202  101  224 1    
   203  102  103 2    
   204  102  104 am   BACKBONE|DICT|INTERRES
   205  104  105 1    
   206  104  225 1    
   207  105  106 1    
   208  105  107 1    
   209  105  226 1    
   210  106  227 1    
   211  106  228 1    
   212  106  229 1    
   213  107  108 2    
   214  107  109 am   BACKBONE|DICT|INTERRES
   215  109  110 1    
   216  109  230 1    
   217  110  111 1    
   218  110  112 1    
   219  110  231 1    
   220  111  232 1    
   221  111  233 1    
   222  111  234 1    
   223  112  113 2    
   224  112  114 am   BACKBONE|DICT|INTERRES
   225  114  115 1    
   226  114  235 1    
   227  115  116 1    
   228  115  117 1    
   229  115  236 1    
   230  116  237 1    
   231  116  238 1    
   232  116  239 1    
   233  117  118 2    
   234  117  119 am   BACKBONE|DICT|INTERRES
   235  119  120 1    
   236  119  240 1    
   237  120  121 1    
   238  120  124 1    
   239  120  241 1    
   240  121  122 am   BACKBONE|DICT|INTERRES
   241  121  123 2    
   242  122  242 1    
   243  122  243 1    
   244  124  125 1    
   245  124  244 1    
   246  124  245 1    
   247  125  126 1    
   248  126  246 1    
   249  126  247 1    
@<TRIPOS>SUBSTRUCTURE
     1 UNK         1 GROUP             0       ****    0 ROOT    
