@<TRIPOS>MOLECULE
3R540
247   249    1
SMALL
USER_CHARGES


@<TRIPOS>ATOM
      1 CA         -3.6030   -9.7254  -46.6215 C.3       0 UNK        -0.1800 
      2 C          -2.4171  -10.5643  -46.1667 C.2       0 UNK         0.5000 
      3 O          -2.6047  -11.7098  -45.7569 O.2       0 UNK        -0.5000 
      4 N          -1.2047   -9.9992  -46.2524 N.am      1 UNK        -0.5000 
      5 CA          0.0713  -10.6113  -45.8568 C.3       1 UNK         0.1400 
      6 C6          0.4789  -11.8105  -46.7629 C.3       23 UNK        -0.0398 
      7 S7          0.9601  -11.2856  -48.4442 S.3       23 UNK        -0.2404 
      8 C8         -0.5739  -11.4754  -49.4083 C.3       23 UNK        -0.0205 
      9 C9         -1.0919  -12.9061  -49.4370 C.ar      23 UNK        -0.0193 
     10 C10        -0.3342  -13.9267  -50.0179 C.ar      23 UNK        -0.1150 
     11 C11        -0.8241  -15.2344  -50.0545 C.ar      23 UNK        -0.0193 
     12 C12        -2.0855  -15.5133  -49.5242 C.ar      23 UNK        -0.1150 
     13 C13        -2.8571  -14.5040  -48.9332 C.ar      23 UNK        -0.0193 
     14 C14        -2.3461  -13.2043  -48.8982 C.ar      23 UNK        -0.1150 
     15 C15        -4.2386  -14.7447  -48.3176 C.3       23 UNK        -0.0205 
     16 S16        -4.8903  -16.4491  -48.4069 S.3       23 UNK        -0.2404 
     17 C17        -3.8031  -17.2994  -47.2171 C.3       23 UNK        -0.0398 
     18 CA         -3.7215  -18.8238  -47.4870 C.3       11 UNK         0.1400 
     19 N          -2.3938  -19.3709  -47.1939 N.am      11 UNK        -0.5000 
     20 C          -2.0032  -20.6321  -47.4323 C.2       10 UNK         0.5000 
     21 O          -2.6972  -21.4809  -47.9874 O.2       10 UNK        -0.5000 
     22 CA         -0.6194  -21.0419  -46.9045 C.3       10 UNK         0.1400 
     23 CB          0.4757  -20.6727  -47.9141 C.3       10 UNK        -0.1800 
     24 N          -0.3251  -20.4465  -45.6025 N.am      10 UNK        -0.5000 
     25 C          -1.0200  -20.6871  -44.4813 C.2       9 UNK         0.5000 
     26 O          -1.9400  -21.5026  -44.4081 O.2       9 UNK        -0.5000 
     27 CA         -0.6753  -19.8182  -43.2590 C.3       9 UNK         0.1400 
     28 CB          0.5964  -20.3177  -42.5575 C.3       9 UNK        -0.1800 
     29 N          -0.5225  -18.4072  -43.6192 N.am      9 UNK        -0.5000 
     30 C          -1.5262  -17.6214  -44.0350 C.2       8 UNK         0.5000 
     31 O          -2.6954  -17.9968  -44.1172 O.2       8 UNK        -0.5000 
     32 CA         -1.1618  -16.1878  -44.4642 C.3       8 UNK         0.1400 
     33 CB         -1.2834  -15.2239  -43.2766 C.3       8 UNK        -0.1800 
     34 N           0.1761  -16.0896  -45.0553 N.am      8 UNK        -0.5000 
     35 C           0.5007  -16.6220  -46.2420 C.2       7 UNK         0.5000 
     36 O          -0.2922  -17.2472  -46.9466 O.2       7 UNK        -0.5000 
     37 CA          1.9674  -16.4897  -46.6888 C.3       7 UNK         0.1400 
     38 CB          2.3130  -15.0447  -47.0734 C.3       7 UNK        -0.1800 
     39 N           2.9293  -16.9785  -45.6975 N.am      7 UNK        -0.5000 
     40 C           2.9845  -18.2426  -45.2498 C.2       6 UNK         0.5000 
     41 O           2.1487  -19.0957  -45.5443 O.2       6 UNK        -0.5000 
     42 CA          4.1521  -18.6275  -44.3156 C.3       6 UNK         0.1400 
     43 CB          4.5242  -20.1221  -44.4135 C.3       6 UNK        -0.1800 
     44 N           5.3415  -17.7864  -44.4767 N.am      6 UNK        -0.5000 
     45 C           6.0944  -17.6222  -45.5776 C.2       5 UNK         0.5000 
     46 O           5.9114  -18.2404  -46.6271 O.2       5 UNK        -0.5000 
     47 CA          7.2443  -16.5892  -45.4936 C.3       5 UNK         0.1400 
     48 CB          7.4578  -15.8410  -46.8265 C.3       5 UNK        -0.1800 
     49 N           7.1135  -15.6379  -44.3799 N.am      5 UNK        -0.5000 
     50 C           6.1164  -14.7648  -44.1792 C.2       4 UNK         0.5000 
     51 O           5.1720  -14.5990  -44.9547 O.2       4 UNK        -0.5000 
     52 CA          6.1452  -14.0024  -42.8413 C.3       4 UNK         0.1400 
     53 CB          6.3643  -12.4997  -43.0734 C.3       4 UNK        -0.1800 
     54 N           4.9009  -14.1942  -42.0966 N.am      4 UNK        -0.5000 
     55 C           4.3808  -15.3736  -41.7235 C.2       3 UNK         0.5000 
     56 O           4.9697  -16.4473  -41.8555 O.2       3 UNK        -0.5000 
     57 CA          2.9612  -15.3625  -41.1153 C.3       3 UNK         0.1400 
     58 CB          3.0155  -15.6651  -39.6102 C.3       3 UNK        -0.1800 
     59 N           2.2417  -14.1011  -41.3208 N.am      3 UNK        -0.5000 
     60 C           1.8020  -13.6573  -42.5050 C.2       2 UNK         0.5000 
     61 O           1.8843  -14.3114  -43.5491 O.2       2 UNK        -0.5000 
     62 CA          1.1918  -12.2460  -42.5254 C.3       2 UNK         0.1400 
     63 CB          2.1317  -11.2063  -41.8769 C.3       2 UNK        -0.1800 
     64 N           0.9296  -11.8777  -43.9119 N.am      2 UNK        -0.5000 
     65 C           0.1212  -10.8991  -44.3325 C.2       1 UNK         0.5000 
     66 O          -0.5290  -10.1913  -43.5577 O.2       1 UNK        -0.5000 
     67 C          -4.8336  -19.5688  -46.7221 C.2       11 UNK         0.5000 
     68 O          -5.8152  -19.9922  -47.3318 O.2       11 UNK        -0.5000 
     69 N          -4.6405  -19.7423  -45.4058 N.am      12 UNK        -0.5000 
     70 CA         -5.5566  -20.4487  -44.5077 C.3       12 UNK         0.1400 
     71 CB         -5.0876  -20.2669  -43.0563 C.3       12 UNK        -0.1800 
     72 C          -5.7060  -21.9419  -44.8527 C.2       12 UNK         0.5000 
     73 O          -6.8130  -22.4761  -44.7789 O.2       12 UNK        -0.5000 
     74 N          -4.5983  -22.5761  -45.2588 N.am      13 UNK        -0.5000 
     75 CA         -4.5636  -23.9500  -45.7629 C.3       13 UNK         0.1400 
     76 CB         -3.1183  -24.4660  -45.6762 C.3       13 UNK        -0.1800 
     77 C          -5.0852  -24.0856  -47.2084 C.2       13 UNK         0.5000 
     78 O          -5.3114  -25.2091  -47.6587 O.2       13 UNK        -0.5000 
     79 N          -5.2097  -22.9592  -47.9254 N.am      14 UNK        -0.5000 
     80 CA         -5.5188  -22.8255  -49.3517 C.3       14 UNK         0.1400 
     81 CB         -6.9962  -23.1781  -49.6174 C.3       14 UNK        -0.1800 
     82 C          -4.5372  -23.6266  -50.2302 C.2       14 UNK         0.5000 
     83 O          -4.9685  -24.4079  -51.0754 O.2       14 UNK        -0.5000 
     84 N          -3.2330  -23.4712  -49.9558 N.am      15 UNK        -0.5000 
     85 CA         -2.1127  -24.2172  -50.5478 C.3       15 UNK         0.1400 
     86 CB         -1.9220  -23.8322  -52.0290 C.3       15 UNK        -0.1800 
     87 C          -2.2198  -25.7460  -50.3395 C.2       15 UNK         0.5000 
     88 O          -1.8442  -26.5174  -51.2229 O.2       15 UNK        -0.5000 
     89 N          -2.7468  -26.1449  -49.1716 N.am      16 UNK        -0.5000 
     90 CA         -3.1288  -27.5087  -48.7880 C.3       16 UNK         0.1400 
     91 CB         -1.9025  -28.4435  -48.7191 C.3       16 UNK        -0.1800 
     92 C          -4.2718  -28.0449  -49.6760 C.2       16 UNK         0.5000 
     93 O          -4.1738  -29.1438  -50.2254 O.2       16 UNK        -0.5000 
     94 N          -5.3327  -27.2320  -49.7890 N.am      17 UNK        -0.5000 
     95 CA         -6.5455  -27.4325  -50.5870 C.3       17 UNK         0.1400 
     96 CB         -7.4027  -28.5653  -49.9850 C.3       17 UNK        -0.1800 
     97 C          -6.2501  -27.6257  -52.0901 C.2       17 UNK         0.5000 
     98 O          -6.6391  -28.6398  -52.6745 O.2       17 UNK        -0.5000 
     99 N          -5.5597  -26.6472  -52.6852 N.am      18 UNK        -0.5000 
    100 CA        -5.1907  -26.6127  -54.0976 C.3       18 UNK         0.1400 
    101 CB        -3.6828  -26.8822  -54.2271 C.3       18 UNK        -0.1800 
    102 C         -5.5565  -25.2524  -54.7112 C.2       18 UNK         0.5000 
    103 O         -5.6950  -24.2566  -53.9982 O.2       18 UNK        -0.5000 
    104 N         -5.6724  -25.2239  -56.0448 N.am      19 UNK        -0.5000 
    105 CA        -6.0384  -24.0418  -56.8342 C.3       19 UNK         0.1400 
    106 CB        -6.3467  -24.4879  -58.2724 C.3       19 UNK        -0.1800 
    107 C         -4.9807  -22.9171  -56.8334 C.2       19 UNK         0.5000 
    108 O         -5.2972  -21.7936  -57.2265 O.2       19 UNK        -0.5000 
    109 N         -3.7506  -23.2327  -56.4040 N.am      20 UNK        -0.5000 
    110 CA        -2.6222  -22.3059  -56.3102 C.3       20 UNK         0.1400 
    111 CB        -1.3480  -23.1060  -55.9993 C.3       20 UNK        -0.1800 
    112 C         -2.8151  -21.1851  -55.2698 C.2       20 UNK         0.5000 
    113 O         -2.2523  -20.1049  -55.4511 O.2       20 UNK        -0.5000 
    114 N         -3.5845  -21.4626  -54.2041 N.am      21 UNK        -0.5000 
    115 CA        -3.9386  -20.6030  -53.0609 C.3       21 UNK         0.1400 
    116 CB        -4.7420  -19.3718  -53.5185 C.3       21 UNK        -0.1800 
    117 C         -2.7646  -20.1860  -52.1462 C.2       21 UNK         0.5000 
    118 O         -2.9401  -20.1593  -50.9293 O.2       21 UNK        -0.5000 
    119 N         -1.5993  -19.9021  -52.7320 N.am      22 UNK        -0.5000 
    120 CA        -0.3177  -19.6478  -52.0636 C.3       22 UNK         0.1400 
    121 C          0.6477  -20.8484  -52.2559 C.2       22 UNK         0.5000 
    122 N          1.6129  -21.0237  -51.3638 N.am      22 UNK        -0.7600 
    123 O          0.5633  -21.6004  -53.2245 O.2       22 UNK        -0.5000 
    124 C124        0.3488  -18.3498  -52.5880 C.3       23 UNK        -0.0398 
    125 S125       -0.6554  -16.8624  -52.2716 S.3       23 UNK        -0.2404 
    126 C126        0.0021  -16.3591  -50.6530 C.3       23 UNK        -0.0205 
    127 H127       -3.2931   -8.7415  -46.9745 H         1 UNK         0.0600 
    128 H128       -4.3020   -9.5865  -45.7968 H         1 UNK         0.0600 
    129 H129       -4.1279  -10.2279  -47.4340 H         1 UNK         0.0600 
    130 H130       -1.1350   -9.0439  -46.5727 H         1 UNK         0.3000 
    131 H131        0.8214   -9.8321  -46.0002 H         1 UNK         0.0600 
    132 H132       -0.2999  -12.5728  -46.7992 H         1 UNK         0.0800 
    133 H133        1.3663  -12.3083  -46.3770 H         1 UNK         0.0800 
    134 H134       -1.3288  -10.7935  -49.0158 H         1 UNK         0.0800 
    135 H135       -0.3820  -11.1539  -50.4327 H         1 UNK         0.0800 
    136 H136        0.6376  -13.7013  -50.4340 H         1 UNK         0.1150 
    137 H137       -2.4469  -16.5292  -49.5803 H         1 UNK         0.1150 
    138 H138       -2.9357  -12.4176  -48.4499 H         1 UNK         0.1150 
    139 H139       -4.2185  -14.4333  -47.2718 H         1 UNK         0.0800 
    140 H140       -4.9539  -14.0905  -48.8180 H         1 UNK         0.0800 
    141 H141       -4.1405  -17.0705  -46.2046 H         1 UNK         0.0800 
    142 H142       -2.8127  -16.8553  -47.2891 H         1 UNK         0.0800 
    143 H143       -3.8815  -19.0019  -48.5529 H         1 UNK         0.0600 
    144 H144       -1.7171  -18.7310  -46.7926 H         1 UNK         0.3000 
    145 H145       -0.6168  -22.1269  -46.7824 H         1 UNK         0.0600 
    146 H146        0.5360  -19.5951  -48.0700 H         1 UNK         0.0600 
    147 H147        1.4538  -21.0182  -47.5790 H         1 UNK         0.0600 
    148 H148        0.2764  -21.1381  -48.8795 H         1 UNK         0.0600 
    149 H149        0.4568  -19.7950  -45.5718 H         1 UNK         0.3000 
    150 H150       -1.5035  -19.8981  -42.5515 H         1 UNK         0.0600 
    151 H151        0.4870  -21.3588  -42.2514 H         1 UNK         0.0600 
    152 H152        0.8065  -19.7357  -41.6600 H         1 UNK         0.0600 
    153 H153        1.4688  -20.2589  -43.2071 H         1 UNK         0.0600 
    154 H154        0.4134  -18.0320  -43.6238 H         1 UNK         0.3000 
    155 H155       -1.8856  -15.8750  -45.2194 H         1 UNK         0.0600 
    156 H156       -2.2869  -15.2565  -42.8502 H         1 UNK         0.0600 
    157 H157       -1.0982  -14.1950  -43.5855 H         1 UNK         0.0600 
    158 H158       -0.5816  -15.4753  -42.4808 H         1 UNK         0.0600 
    159 H159        0.8791  -15.5715  -44.5333 H         1 UNK         0.3000 
    160 H160        2.0828  -17.1050  -47.5836 H         1 UNK         0.0600 
    161 H161        2.3635  -14.4007  -46.1964 H         1 UNK         0.0600 
    162 H162        1.5705  -14.6274  -47.7550 H         1 UNK         0.0600 
    163 H163        3.2801  -14.9939  -47.5737 H         1 UNK         0.0600 
    164 H164        3.6387  -16.3218  -45.3957 H         1 UNK         0.3000 
    165 H165        3.7896  -18.4491  -43.3027 H         1 UNK         0.0600 
    166 H166        4.8269  -20.3987  -45.4236 H         1 UNK         0.0600 
    167 H167        5.3428  -20.3693  -43.7377 H         1 UNK         0.0600 
    168 H168        3.6809  -20.7579  -44.1428 H         1 UNK         0.0600 
    169 H169        5.5633  -17.2228  -43.6625 H         1 UNK         0.3000 
    170 H170        8.1480  -17.1662  -45.2929 H         1 UNK         0.0600 
    171 H171        6.5608  -15.3061  -47.1400 H         1 UNK         0.0600 
    172 H172        8.2697  -15.1181  -46.7478 H         1 UNK         0.0600 
    173 H173        7.7197  -16.5334  -47.6274 H         1 UNK         0.0600 
    174 H174        7.8261  -15.7165  -43.6671 H         1 UNK         0.3000 
    175 H175        6.9639  -14.3812  -42.2263 H         1 UNK         0.0600 
    176 H176        5.5546  -12.0605  -43.6581 H         1 UNK         0.0600 
    177 H177        6.4285  -11.9587  -42.1291 H         1 UNK         0.0600 
    178 H178        7.2943  -12.3205  -43.6145 H         1 UNK         0.0600 
    179 H179        4.3349  -13.3719  -41.9595 H         1 UNK         0.3000 
    180 H180        2.3963  -16.1596  -41.6034 H         1 UNK         0.0600 
    181 H181        3.5136  -16.6168  -39.4196 H         1 UNK         0.0600 
    182 H182        2.0139  -15.7346  -39.1853 H         1 UNK         0.0600 
    183 H183        3.5606  -14.8942  -39.0643 H         1 UNK         0.0600 
    184 H184        2.1266  -13.5167  -40.5051 H         1 UNK         0.3000 
    185 H185        0.2471  -12.2832  -41.9794 H         1 UNK         0.0600 
    186 H186        1.7067  -10.2035  -41.9187 H         1 UNK         0.0600 
    187 H187        2.3095  -11.4247  -40.8237 H         1 UNK         0.0600 
    188 H188        3.1004  -11.1750  -42.3775 H         1 UNK         0.0600 
    189 H189        1.4054  -12.4736  -44.5768 H         1 UNK         0.3000 
    190 H190       -3.8206  -19.3242  -44.9743 H         1 UNK         0.3000 
    191 H191       -6.5405  -19.9862  -44.6078 H         1 UNK         0.0600 
    192 H192       -4.0945  -20.6882  -42.8976 H         1 UNK         0.0600 
    193 H193       -5.0494  -19.2119  -42.7840 H         1 UNK         0.0600 
    194 H194       -5.7687  -20.7586  -42.3608 H         1 UNK         0.0600 
    195 H195       -3.7130  -22.0800  -45.2228 H         1 UNK         0.3000 
    196 H196       -5.1910  -24.5757  -45.1249 H         1 UNK         0.0600 
    197 H197       -2.7408  -24.4094  -44.6549 H         1 UNK         0.0600 
    198 H198       -2.4468  -23.8872  -46.3115 H         1 UNK         0.0600 
    199 H199       -3.0522  -25.5089  -45.9881 H         1 UNK         0.0600 
    200 H200       -4.9651  -22.0904  -47.4678 H         1 UNK         0.3000 
    201 H201       -5.3723  -21.7745  -49.6058 H         1 UNK         0.0600 
    202 H202       -7.2557  -23.0107  -50.6635 H         1 UNK         0.0600 
    203 H203       -7.6604  -22.5589  -49.0144 H         1 UNK         0.0600 
    204 H204       -7.2122  -24.2219  -49.3886 H         1 UNK         0.0600 
    205 H205       -2.9872  -22.7828  -49.2446 H         1 UNK         0.3000 
    206 H206       -1.2172  -23.9031  -50.0099 H         1 UNK         0.0600 
    207 H207       -1.7162  -22.7705  -52.1284 H         1 UNK         0.0600 
    208 H208       -2.8031  -24.0593  -52.6283 H         1 UNK         0.0600 
    209 H209       -1.0750  -24.3565  -52.4727 H         1 UNK         0.0600 
    210 H210       -3.0636  -25.4216  -48.5426 H         1 UNK         0.3000 
    211 H211       -3.5366  -27.4385  -47.7785 H         1 UNK         0.0600 
    212 H212       -1.1250  -28.0267  -48.0791 H         1 UNK         0.0600 
    213 H213       -2.1790  -29.4134  -48.3045 H         1 UNK         0.0600 
    214 H214       -1.4676  -28.6244  -49.7021 H         1 UNK         0.0600 
    215 H215       -5.3018  -26.3597  -49.2694 H         1 UNK         0.3000 
    216 H216       -7.1201  -26.5088  -50.5054 H         1 UNK         0.0600 
    217 H217       -8.3509  -28.6606  -50.5153 H         1 UNK         0.0600 
    218 H218       -6.8983  -29.5304  -50.0402 H         1 UNK         0.0600 
    219 H219       -7.6353  -28.3682  -48.9385 H         1 UNK         0.0600 
    220 H220       -5.3241  -25.8085  -52.1518 H         1 UNK         0.3000 
    221 H221       -5.7347  -27.3807  -54.6511 H         1 UNK         0.0600 
    222 H222       -3.0923  -26.1182  -53.7223 H         1 UNK         0.0600 
    223 H223       -3.4180  -27.8452  -53.7900 H         1 UNK         0.0600 
    224 H224       -3.3716  -26.9029  -55.2720 H         1 UNK         0.0600 
    225 H225       -5.5282  -26.0775  -56.5655 H         1 UNK         0.3000 
    226 H226       -6.9506  -23.6222  -56.4050 H         1 UNK         0.0600 
    227 H227       -7.1539  -25.2203  -58.2946 H         1 UNK         0.0600 
    228 H228       -6.6615  -23.6430  -58.8865 H         1 UNK         0.0600 
    229 H229       -5.4737  -24.9336  -58.7507 H         1 UNK         0.0600 
    230 H230       -3.5822  -24.1837  -56.1133 H         1 UNK         0.3000 
    231 H231       -2.4980  -21.8298  -57.2851 H         1 UNK         0.0600 
    232 H232       -0.4790  -22.4492  -55.9378 H         1 UNK         0.0600 
    233 H233       -1.1430  -23.8426  -56.7763 H         1 UNK         0.0600 
    234 H234       -1.4252  -23.6326  -55.0473 H         1 UNK         0.0600 
    235 H235       -3.9921  -22.3882  -54.1701 H         1 UNK         0.3000 
    236 H236       -4.6025  -21.2116  -52.4446 H         1 UNK         0.0600 
    237 H237       -5.0963  -18.7992  -52.6604 H         1 UNK         0.0600 
    238 H238       -4.1419  -18.6991  -54.1317 H         1 UNK         0.0600 
    239 H239       -5.6169  -19.6655  -54.0986 H         1 UNK         0.0600 
    240 H240       -1.5643  -19.9595  -53.7460 H         1 UNK         0.3000 
    241 H241       -0.4864  -19.5377  -50.9906 H         1 UNK         0.0600 
    242 H242        1.7351  -20.4074  -50.5769 H         1 UNK         0.3800 
    243 H243        2.2550  -21.7898  -51.4941 H         1 UNK         0.3800 
    244 H244        1.3338  -18.2069  -52.1398 H         1 UNK         0.0800 
    245 H245        0.5159  -18.4191  -53.6644 H         1 UNK         0.0800 
    246 H246        1.0453  -16.0575  -50.7599 H         1 UNK         0.0800 
    247 H247       -0.0089  -17.2101  -49.9697 H         1 UNK         0.0800 
@<TRIPOS>BOND
     1    1    2 1    
     2    1  127 1    
     3    1  128 1    
     4    1  129 1    
     5    2    3 2    
     6    2    4 am   BACKBONE|DICT|INTERRES
     7    4    5 1    
     8    4  130 1    
     9    5    6 1    
    10    5   65 1    
    11    5  131 1    
    12    6    7 1    
    13    6  132 1    
    14    6  133 1    
    15    7    8 1    
    16    8    9 1    
    17    8  134 1    
    18    8  135 1    
    19    9   10 ar   
    20    9   14 ar   
    21   10   11 ar   
    22   10  136 1    
    23   11   12 ar   
    24   11  126 1    
    25   12   13 ar   
    26   12  137 1    
    27   13   14 ar   
    28   13   15 1    
    29   14  138 1    
    30   15   16 1    
    31   15  139 1    
    32   15  140 1    
    33   16   17 1    
    34   17   18 1    
    35   17  141 1    
    36   17  142 1    
    37   18   19 1    
    38   18   67 1    
    39   18  143 1    
    40   19   20 am   BACKBONE|DICT|INTERRES
    41   19  144 1    
    42   20   21 2    
    43   20   22 1    
    44   22   23 1    
    45   22   24 1    
    46   22  145 1    
    47   23  146 1    
    48   23  147 1    
    49   23  148 1    
    50   24   25 am   BACKBONE|DICT|INTERRES
    51   24  149 1    
    52   25   26 2    
    53   25   27 1    
    54   27   28 1    
    55   27   29 1    
    56   27  150 1    
    57   28  151 1    
    58   28  152 1    
    59   28  153 1    
    60   29   30 am   BACKBONE|DICT|INTERRES
    61   29  154 1    
    62   30   31 2    
    63   30   32 1    
    64   32   33 1    
    65   32   34 1    
    66   32  155 1    
    67   33  156 1    
    68   33  157 1    
    69   33  158 1    
    70   34   35 am   BACKBONE|DICT|INTERRES
    71   34  159 1    
    72   35   36 2    
    73   35   37 1    
    74   37   38 1    
    75   37   39 1    
    76   37  160 1    
    77   38  161 1    
    78   38  162 1    
    79   38  163 1    
    80   39   40 am   BACKBONE|DICT|INTERRES
    81   39  164 1    
    82   40   41 2    
    83   40   42 1    
    84   42   43 1    
    85   42   44 1    
    86   42  165 1    
    87   43  166 1    
    88   43  167 1    
    89   43  168 1    
    90   44   45 am   BACKBONE|DICT|INTERRES
    91   44  169 1    
    92   45   46 2    
    93   45   47 1    
    94   47   48 1    
    95   47   49 1    
    96   47  170 1    
    97   48  171 1    
    98   48  172 1    
    99   48  173 1    
   100   49   50 am   BACKBONE|DICT|INTERRES
   101   49  174 1    
   102   50   51 2    
   103   50   52 1    
   104   52   53 1    
   105   52   54 1    
   106   52  175 1    
   107   53  176 1    
   108   53  177 1    
   109   53  178 1    
   110   54   55 am   BACKBONE|DICT|INTERRES
   111   54  179 1    
   112   55   56 2    
   113   55   57 1    
   114   57   58 1    
   115   57   59 1    
   116   57  180 1    
   117   58  181 1    
   118   58  182 1    
   119   58  183 1    
   120   59   60 am   BACKBONE|DICT|INTERRES
   121   59  184 1    
   122   60   61 2    
   123   60   62 1    
   124   62   63 1    
   125   62   64 1    
   126   62  185 1    
   127   63  186 1    
   128   63  187 1    
   129   63  188 1    
   130   64   65 am   BACKBONE|DICT|INTERRES
   131   64  189 1    
   132   65   66 2    
   133   67   68 2    
   134   67   69 am   BACKBONE|DICT|INTERRES
   135   69   70 1    
   136   69  190 1    
   137   70   71 1    
   138   70   72 1    
   139   70  191 1    
   140   71  192 1    
   141   71  193 1    
   142   71  194 1    
   143   72   73 2    
   144   72   74 am   BACKBONE|DICT|INTERRES
   145   74   75 1    
   146   74  195 1    
   147   75   76 1    
   148   75   77 1    
   149   75  196 1    
   150   76  197 1    
   151   76  198 1    
   152   76  199 1    
   153   77   78 2    
   154   77   79 am   BACKBONE|DICT|INTERRES
   155   79   80 1    
   156   79  200 1    
   157   80   81 1    
   158   80   82 1    
   159   80  201 1    
   160   81  202 1    
   161   81  203 1    
   162   81  204 1    
   163   82   83 2    
   164   82   84 am   BACKBONE|DICT|INTERRES
   165   84   85 1    
   166   84  205 1    
   167   85   86 1    
   168   85   87 1    
   169   85  206 1    
   170   86  207 1    
   171   86  208 1    
   172   86  209 1    
   173   87   88 2    
   174   87   89 am   BACKBONE|DICT|INTERRES
   175   89   90 1    
   176   89  210 1    
   177   90   91 1    
   178   90   92 1    
   179   90  211 1    
   180   91  212 1    
   181   91  213 1    
   182   91  214 1    
   183   92   93 2    
   184   92   94 am   BACKBONE|DICT|INTERRES
   185   94   95 1    
   186   94  215 1    
   187   95   96 1    
   188   95   97 1    
   189   95  216 1    
   190   96  217 1    
   191   96  218 1    
   192   96  219 1    
   193   97   98 2    
   194   97   99 am   BACKBONE|DICT|INTERRES
   195   99  100 1    
   196   99  220 1    
   197  100  101 1    
   198  100  102 1    
   199  100  221 1    
   200  101  222 1    
   201  101  223 1    
   202  101  224 1    
   203  102  103 2    
   204  102  104 am   BACKBONE|DICT|INTERRES
   205  104  105 1    
   206  104  225 1    
   207  105  106 1    
   208  105  107 1    
   209  105  226 1    
   210  106  227 1    
   211  106  228 1    
   212  106  229 1    
   213  107  108 2    
   214  107  109 am   BACKBONE|DICT|INTERRES
   215  109  110 1    
   216  109  230 1    
   217  110  111 1    
   218  110  112 1    
   219  110  231 1    
   220  111  232 1    
   221  111  233 1    
   222  111  234 1    
   223  112  113 2    
   224  112  114 am   BACKBONE|DICT|INTERRES
   225  114  115 1    
   226  114  235 1    
   227  115  116 1    
   228  115  117 1    
   229  115  236 1    
   230  116  237 1    
   231  116  238 1    
   232  116  239 1    
   233  117  118 2    
   234  117  119 am   BACKBONE|DICT|INTERRES
   235  119  120 1    
   236  119  240 1    
   237  120  121 1    
   238  120  124 1    
   239  120  241 1    
   240  121  122 am   BACKBONE|DICT|INTERRES
   241  121  123 2    
   242  122  242 1    
   243  122  243 1    
   244  124  125 1    
   245  124  244 1    
   246  124  245 1    
   247  125  126 1    
   248  126  246 1    
   249  126  247 1    
@<TRIPOS>SUBSTRUCTURE
     1 UNK         1 GROUP             0       ****    0 ROOT    
