@<TRIPOS>MOLECULE
3R540
247   249    1
SMALL
USER_CHARGES


@<TRIPOS>ATOM
      1 CA         -4.0388  -19.1495  -42.3211 C.3       0 UNK        -0.1800 
      2 C          -4.1177  -17.6973  -42.7689 C.2       0 UNK         0.5000 
      3 O          -4.2479  -16.8012  -41.9351 O.2       0 UNK        -0.5000 
      4 N          -4.0399  -17.4682  -44.0853 N.am      1 UNK        -0.5000 
      5 CA         -3.9700  -16.1515  -44.7230 C.3       1 UNK         0.1400 
      6 C6         -4.1117  -16.2974  -46.2545 C.3       23 UNK        -0.0398 
      7 S7         -4.3312  -14.7345  -47.1708 S.3       23 UNK        -0.2404 
      8 C8         -5.5759  -15.2129  -48.4183 C.3       23 UNK        -0.0205 
      9 C9         -4.9997  -16.0274  -49.5752 C.ar      23 UNK        -0.0193 
     10 C10        -4.8585  -15.4505  -50.8428 C.ar      23 UNK        -0.1150 
     11 C11        -4.3997  -16.2081  -51.9275 C.ar      23 UNK        -0.0193 
     12 C12        -4.0671  -17.5503  -51.7329 C.ar      23 UNK        -0.1150 
     13 C13        -4.2083  -18.1429  -50.4764 C.ar      23 UNK        -0.0193 
     14 C14        -4.6728  -17.3770  -49.4046 C.ar      23 UNK        -0.1150 
     15 C15        -3.8709  -19.6135  -50.2878 C.3       23 UNK        -0.0205 
     16 S16        -5.3583  -20.6515  -50.1796 S.3       23 UNK        -0.2404 
     17 C17        -5.5234  -20.9101  -48.3786 C.3       23 UNK        -0.0398 
     18 CA         -4.7996  -22.2065  -47.9426 C.3       11 UNK         0.1400 
     19 N          -3.3461  -22.0282  -47.8369 N.am      11 UNK        -0.5000 
     20 C          -2.4672  -23.0354  -47.7530 C.2       10 UNK         0.5000 
     21 O          -2.7957  -24.2210  -47.8058 O.2       10 UNK        -0.5000 
     22 CA         -0.9888  -22.6760  -47.5031 C.3       10 UNK         0.1400 
     23 CB         -0.2275  -22.6566  -48.8348 C.3       10 UNK        -0.1800 
     24 N          -0.7618  -21.4034  -46.8063 N.am      10 UNK        -0.5000 
     25 C          -1.3053  -21.0078  -45.6450 C.2       9 UNK         0.5000 
     26 O          -2.0918  -21.6981  -44.9954 O.2       9 UNK        -0.5000 
     27 CA         -0.9587  -19.5965  -45.1260 C.3       9 UNK         0.1400 
     28 CB         -0.1327  -19.6867  -43.8360 C.3       9 UNK        -0.1800 
     29 N          -0.2887  -18.7058  -46.0830 N.am      9 UNK        -0.5000 
     30 C          -0.8191  -18.2880  -47.2433 C.2       8 UNK         0.5000 
     31 O          -1.9020  -18.7000  -47.6548 O.2       8 UNK        -0.5000 
     32 CA         -0.0498  -17.2478  -48.0870 C.3       8 UNK         0.1400 
     33 CB         -0.9141  -16.0034  -48.3295 C.3       8 UNK        -0.1800 
     34 N           1.2139  -16.8196  -47.4891 N.am      8 UNK        -0.5000 
     35 C           2.3578  -17.5171  -47.5175 C.2       7 UNK         0.5000 
     36 O           2.4910  -18.5698  -48.1396 O.2       7 UNK        -0.5000 
     37 CA          3.5372  -16.9715  -46.6865 C.3       7 UNK         0.1400 
     38 CB          4.5863  -16.3047  -47.5848 C.3       7 UNK        -0.1800 
     39 N           3.1044  -16.0359  -45.6434 N.am      7 UNK        -0.5000 
     40 C           2.4540  -16.4171  -44.5342 C.2       6 UNK         0.5000 
     41 O           2.2543  -17.6000  -44.2591 O.2       6 UNK        -0.5000 
     42 CA          1.8780  -15.3198  -43.6162 C.3       6 UNK         0.1400 
     43 CB          1.8653  -15.7238  -42.1280 C.3       6 UNK        -0.1800 
     44 N           2.4695  -13.9935  -43.8026 N.am      6 UNK        -0.5000 
     45 C           3.7271  -13.6059  -43.5535 C.2       5 UNK         0.5000 
     46 O           4.5995  -14.3408  -43.0878 O.2       5 UNK        -0.5000 
     47 CA          4.0441  -12.1413  -43.9257 C.3       5 UNK         0.1400 
     48 CB          5.5444  -11.7957  -43.8184 C.3       5 UNK        -0.1800 
     49 N           3.5148  -11.7794  -45.2483 N.am      5 UNK        -0.5000 
     50 C           3.8223  -12.3557  -46.4215 C.2       4 UNK         0.5000 
     51 O           4.6460  -13.2620  -46.5414 O.2       4 UNK        -0.5000 
     52 CA          3.0465  -11.8439  -47.6544 C.3       4 UNK         0.1400 
     53 CB          3.2514  -12.7128  -48.9111 C.3       4 UNK        -0.1800 
     54 N           1.6159  -11.6566  -47.3874 N.am      4 UNK        -0.5000 
     55 C           0.7431  -12.5835  -46.9642 C.2       3 UNK         0.5000 
     56 O           1.0226  -13.7700  -46.7601 O.2       3 UNK        -0.5000 
     57 CA         -0.6832  -12.0633  -46.6907 C.3       3 UNK         0.1400 
     58 CB         -1.5824  -12.2159  -47.9247 C.3       3 UNK        -0.1800 
     59 N          -1.3221  -12.7165  -45.5496 N.am      3 UNK        -0.5000 
     60 C          -0.8514  -12.7114  -44.2952 C.2       2 UNK         0.5000 
     61 O           0.1937  -12.1478  -43.9637 O.2       2 UNK        -0.5000 
     62 CA         -1.6813  -13.4392  -43.2197 C.3       2 UNK         0.1400 
     63 CB         -2.2488  -12.4323  -42.2070 C.3       2 UNK        -0.1800 
     64 N          -2.7882  -14.2335  -43.7573 N.am      2 UNK        -0.5000 
     65 C          -2.6601  -15.4407  -44.3212 C.2       1 UNK         0.5000 
     66 O          -1.5790  -15.9997  -44.5129 O.2       1 UNK        -0.5000 
     67 C          -5.4309  -22.8492  -46.6855 C.2       11 UNK         0.5000 
     68 O          -6.5082  -23.4348  -46.7990 O.2       11 UNK        -0.5000 
     69 N          -4.7412  -22.7860  -45.5382 N.am      12 UNK        -0.5000 
     70 CA         -5.0728  -23.5416  -44.3325 C.3       12 UNK         0.1400 
     71 CB         -5.1339  -22.5884  -43.1286 C.3       12 UNK        -0.1800 
     72 C          -4.0293  -24.6457  -44.0977 C.2       12 UNK         0.5000 
     73 O          -4.3998  -25.8078  -43.9338 O.2       12 UNK        -0.5000 
     74 N          -2.7430  -24.2667  -44.0980 N.am      13 UNK        -0.5000 
     75 CA         -1.6106  -25.1038  -43.6919 C.3       13 UNK         0.1400 
     76 CB         -0.3605  -24.2195  -43.5620 C.3       13 UNK        -0.1800 
     77 C          -1.3275  -26.3026  -44.6156 C.2       13 UNK         0.5000 
     78 O          -0.8194  -27.3184  -44.1395 O.2       13 UNK        -0.5000 
     79 N          -1.6631  -26.1707  -45.9037 N.am      14 UNK        -0.5000 
     80 CA         -1.5350  -27.2153  -46.9209 C.3       14 UNK         0.1400 
     81 CB         -0.5056  -26.7662  -47.9747 C.3       14 UNK        -0.1800 
     82 C          -2.9005  -27.5329  -47.5586 C.2       14 UNK         0.5000 
     83 O          -2.9384  -28.1407  -48.6278 O.2       14 UNK        -0.5000 
     84 N          -3.9961  -27.0919  -46.9178 N.am      15 UNK        -0.5000 
     85 CA         -5.3961  -27.2576  -47.3281 C.3       15 UNK         0.1400 
     86 CB         -5.8332  -28.7226  -47.1235 C.3       15 UNK        -0.1800 
     87 C          -5.7062  -26.7385  -48.7520 C.2       15 UNK         0.5000 
     88 O          -6.5800  -27.2865  -49.4262 O.2       15 UNK        -0.5000 
     89 N          -4.9755  -25.6991  -49.1838 N.am      16 UNK        -0.5000 
     90 CA         -5.0381  -25.0638  -50.5043 C.3       16 UNK         0.1400 
     91 CB         -6.4254  -24.4360  -50.7644 C.3       16 UNK        -0.1800 
     92 C          -4.5659  -25.9748  -51.6557 C.2       16 UNK         0.5000 
     93 O          -5.0043  -25.7957  -52.7935 O.2       16 UNK        -0.5000 
     94 N          -3.6415  -26.9048  -51.3645 N.am      17 UNK        -0.5000 
     95 CA         -2.9464  -27.7220  -52.3674 C.3       17 UNK         0.1400 
     96 CB         -2.1384  -28.8206  -51.6612 C.3       17 UNK        -0.1800 
     97 C          -2.0315  -26.8950  -53.2966 C.2       17 UNK         0.5000 
     98 O          -1.7532  -27.3250  -54.4168 O.2       17 UNK        -0.5000 
     99 N          -1.6066  -25.7183  -52.8244 N.am      18 UNK        -0.5000 
    100 CA        -0.9237  -24.6820  -53.5838 C.3       18 UNK         0.1400 
    101 CB         0.5904  -24.7771  -53.3347 C.3       18 UNK        -0.1800 
    102 C         -1.4719  -23.3251  -53.1205 C.2       18 UNK         0.5000 
    103 O         -1.8841  -23.1973  -51.9638 O.2       18 UNK        -0.5000 
    104 N         -1.4475  -22.3343  -54.0207 N.am      19 UNK        -0.5000 
    105 CA        -1.8434  -20.9519  -53.7316 C.3       19 UNK         0.1400 
    106 CB        -2.1749  -20.2354  -55.0496 C.3       19 UNK        -0.1800 
    107 C         -0.7643  -20.1706  -52.9548 C.2       19 UNK         0.5000 
    108 O         -1.0875  -19.1793  -52.3007 O.2       19 UNK        -0.5000 
    109 N          0.4922  -20.6315  -53.0477 N.am      20 UNK        -0.5000 
    110 CA         1.6905  -20.0573  -52.4349 C.3       20 UNK         0.1400 
    111 CB         1.6776  -20.2884  -50.9092 C.3       20 UNK        -0.1800 
    112 C          1.9212  -18.5918  -52.8641 C.2       20 UNK         0.5000 
    113 O          1.8217  -18.2944  -54.0567 O.2       20 UNK        -0.5000 
    114 N          2.2638  -17.7167  -51.9110 N.am      21 UNK        -0.5000 
    115 CA         2.6193  -16.3222  -52.1675 C.3       21 UNK         0.1400 
    116 CB         3.3332  -15.7583  -50.9321 C.3       21 UNK        -0.1800 
    117 C          1.4245  -15.4277  -52.5459 C.2       21 UNK         0.5000 
    118 O          1.5943  -14.5286  -53.3712 O.2       21 UNK        -0.5000 
    119 N          0.2576  -15.6696  -51.9280 N.am      22 UNK        -0.5000 
    120 CA        -0.9209  -14.7817  -51.9652 C.3       22 UNK         0.1400 
    121 C         -0.6159  -13.3594  -51.3788 C.2       22 UNK         0.5000 
    122 N         -1.3923  -12.3349  -51.6999 N.am      22 UNK        -0.7600 
    123 O          0.3070  -13.1772  -50.5898 O.2       22 UNK        -0.5000 
    124 C124       -1.5965  -14.7939  -53.3701 C.3       23 UNK        -0.0398 
    125 S125       -3.2967  -14.1192  -53.4222 S.3       23 UNK        -0.2404 
    126 C126       -4.3343  -15.6092  -53.3267 C.3       23 UNK        -0.0205 
    127 H127       -4.9946  -19.4703  -41.9075 H         1 UNK         0.0600 
    128 H128       -3.2751  -19.2656  -41.5523 H         1 UNK         0.0600 
    129 H129       -3.7836  -19.8093  -43.1501 H         1 UNK         0.0600 
    130 H130       -3.9388  -18.2539  -44.7090 H         1 UNK         0.3000 
    131 H131       -4.8181  -15.5683  -44.3576 H         1 UNK         0.0600 
    132 H132       -3.2555  -16.8194  -46.6736 H         1 UNK         0.0800 
    133 H133       -4.9788  -16.9276  -46.4501 H         1 UNK         0.0800 
    134 H134       -6.0338  -14.3001  -48.8020 H         1 UNK         0.0800 
    135 H135       -6.3849  -15.7696  -47.9435 H         1 UNK         0.0800 
    136 H136       -5.1317  -14.4158  -50.9954 H         1 UNK         0.1150 
    137 H137       -3.7182  -18.1443  -52.5661 H         1 UNK         0.1150 
    138 H138       -4.7945  -17.8477  -48.4433 H         1 UNK         0.1150 
    139 H139       -3.2736  -19.9722  -51.1227 H         1 UNK         0.0800 
    140 H140       -3.2483  -19.7494  -49.4091 H         1 UNK         0.0800 
    141 H141       -6.5940  -20.9709  -48.1741 H         1 UNK         0.0800 
    142 H142       -5.1585  -20.0463  -47.8226 H         1 UNK         0.0800 
    143 H143       -4.9619  -22.9414  -48.7266 H         1 UNK         0.0600 
    144 H144       -3.0003  -21.0805  -47.7748 H         1 UNK         0.3000 
    145 H145       -0.5668  -23.4668  -46.8813 H         1 UNK         0.0600 
    146 H146       -0.3543  -23.5944  -49.3775 H         1 UNK         0.0600 
    147 H147        0.8416  -22.5179  -48.6745 H         1 UNK         0.0600 
    148 H148       -0.5819  -21.8558  -49.4857 H         1 UNK         0.0600 
    149 H149       -0.1428  -20.7518  -47.2656 H         1 UNK         0.3000 
    150 H150       -1.9090  -19.1269  -44.8722 H         1 UNK         0.0600 
    151 H151       -0.6053  -20.3467  -43.1070 H         1 UNK         0.0600 
    152 H152       -0.0379  -18.7081  -43.3650 H         1 UNK         0.0600 
    153 H153        0.8701  -20.0704  -44.0270 H         1 UNK         0.0600 
    154 H154        0.5965  -18.3171  -45.7864 H         1 UNK         0.3000 
    155 H155        0.1568  -17.7079  -49.0550 H         1 UNK         0.0600 
    156 H156       -1.1895  -15.5230  -47.3899 H         1 UNK         0.0600 
    157 H157       -1.8357  -16.2537  -48.8567 H         1 UNK         0.0600 
    158 H158       -0.3812  -15.2690  -48.9319 H         1 UNK         0.0600 
    159 H159        1.1958  -15.9347  -46.9928 H         1 UNK         0.3000 
    160 H160        4.0139  -17.8270  -46.2035 H         1 UNK         0.0600 
    161 H161        4.1802  -15.4376  -48.1022 H         1 UNK         0.0600 
    162 H162        4.9517  -16.9996  -48.3416 H         1 UNK         0.0600 
    163 H163        5.4478  -15.9736  -47.0046 H         1 UNK         0.0600 
    164 H164        3.2400  -15.0491  -45.8232 H         1 UNK         0.3000 
    165 H165        0.8405  -15.2142  -43.9286 H         1 UNK         0.0600 
    166 H166        1.4255  -14.9405  -41.5107 H         1 UNK         0.0600 
    167 H167        2.8694  -15.9249  -41.7540 H         1 UNK         0.0600 
    168 H168        1.2727  -16.6262  -41.9733 H         1 UNK         0.0600 
    169 H169        1.8321  -13.2950  -44.1724 H         1 UNK         0.3000 
    170 H170        3.5125  -11.5224  -43.2013 H         1 UNK         0.0600 
    171 H171        5.9079  -11.9511  -42.8021 H         1 UNK         0.0600 
    172 H172        6.1532  -12.4128  -44.4799 H         1 UNK         0.0600 
    173 H173        5.7272  -10.7515  -44.0716 H         1 UNK         0.0600 
    174 H174        2.7986  -11.0665  -45.2492 H         1 UNK         0.3000 
    175 H175        3.4553  -10.8563  -47.8723 H         1 UNK         0.0600 
    176 H176        2.7991  -13.6968  -48.7953 H         1 UNK         0.0600 
    177 H177        2.7997  -12.2456  -49.7859 H         1 UNK         0.0600 
    178 H178        4.3097  -12.8555  -49.1322 H         1 UNK         0.0600 
    179 H179        1.2777  -10.7141  -47.5212 H         1 UNK         0.3000 
    180 H180       -0.6196  -11.0002  -46.4496 H         1 UNK         0.0600 
    181 H181       -1.6820  -13.2573  -48.2285 H         1 UNK         0.0600 
    182 H182       -1.1726  -11.6652  -48.7713 H         1 UNK         0.0600 
    183 H183       -2.5829  -11.8247  -47.7393 H         1 UNK         0.0600 
    184 H184       -2.1690  -13.2307  -45.7393 H         1 UNK         0.3000 
    185 H185       -1.0030  -14.1072  -42.6849 H         1 UNK         0.0600 
    186 H186       -1.4517  -11.8479  -41.7452 H         1 UNK         0.0600 
    187 H187       -2.9381  -11.7313  -42.6794 H         1 UNK         0.0600 
    188 H188       -2.7826  -12.9397  -41.4031 H         1 UNK         0.0600 
    189 H189       -3.7132  -13.8471  -43.6331 H         1 UNK         0.3000 
    190 H190       -3.8486  -22.3028  -45.5292 H         1 UNK         0.3000 
    191 H191       -6.0490  -24.0214  -44.4282 H         1 UNK         0.0600 
    192 H192       -5.4278  -23.1228  -42.2244 H         1 UNK         0.0600 
    193 H193       -5.8643  -21.7956  -43.2904 H         1 UNK         0.0600 
    194 H194       -4.1689  -22.1213  -42.9319 H         1 UNK         0.0600 
    195 H195       -2.5223  -23.2914  -44.2870 H         1 UNK         0.3000 
    196 H196       -1.8416  -25.5069  -42.7037 H         1 UNK         0.0600 
    197 H197       -0.0778  -23.7774  -44.5173 H         1 UNK         0.0600 
    198 H198       -0.5230  -23.4071  -42.8534 H         1 UNK         0.0600 
    199 H199        0.4922  -24.7974  -43.2033 H         1 UNK         0.0600 
    200 H200       -2.0925  -25.3096  -46.2220 H         1 UNK         0.3000 
    201 H201       -1.1805  -28.1465  -46.4753 H         1 UNK         0.0600 
    202 H202       -0.8532  -25.8998  -48.5369 H         1 UNK         0.0600 
    203 H203       -0.3071  -27.5625  -48.6928 H         1 UNK         0.0600 
    204 H204        0.4457  -26.5055  -47.5108 H         1 UNK         0.0600 
    205 H205       -3.8599  -26.6194  -46.0337 H         1 UNK         0.3000 
    206 H206       -5.9850  -26.6380  -46.6501 H         1 UNK         0.0600 
    207 H207       -5.6277  -29.0563  -46.1064 H         1 UNK         0.0600 
    208 H208       -6.9043  -28.8416  -47.2909 H         1 UNK         0.0600 
    209 H209       -5.3167  -29.3958  -47.8085 H         1 UNK         0.0600 
    210 H210       -4.2540  -25.3382  -48.5660 H         1 UNK         0.3000 
    211 H211       -4.3123  -24.2500  -50.4764 H         1 UNK         0.0600 
    212 H212       -6.3953  -23.7747  -51.6310 H         1 UNK         0.0600 
    213 H213       -6.7646  -23.8408  -49.9170 H         1 UNK         0.0600 
    214 H214       -7.1832  -25.1946  -50.9612 H         1 UNK         0.0600 
    215 H215       -3.3756  -27.0549  -50.3974 H         1 UNK         0.3000 
    216 H216       -3.7011  -28.2027  -52.9931 H         1 UNK         0.0600 
    217 H217       -1.3830  -28.3992  -50.9969 H         1 UNK         0.0600 
    218 H218       -1.6241  -29.4554  -52.3839 H         1 UNK         0.0600 
    219 H219       -2.7861  -29.4656  -51.0673 H         1 UNK         0.0600 
    220 H220       -1.9220  -25.4179  -51.9114 H         1 UNK         0.3000 
    221 H221       -1.1310  -24.7989  -54.6497 H         1 UNK         0.0600 
    222 H222        0.9791  -25.7479  -53.6429 H         1 UNK         0.0600 
    223 H223        0.8335  -24.6391  -52.2802 H         1 UNK         0.0600 
    224 H224        1.1300  -24.0167  -53.9001 H         1 UNK         0.0600 
    225 H225       -1.1107  -22.5217  -54.9544 H         1 UNK         0.3000 
    226 H226       -2.7491  -20.9703  -53.1232 H         1 UNK         0.0600 
    227 H227       -1.3090  -20.1868  -55.7111 H         1 UNK         0.0600 
    228 H228       -2.9793  -20.7421  -55.5830 H         1 UNK         0.0600 
    229 H229       -2.5036  -19.2117  -54.8644 H         1 UNK         0.0600 
    230 H230        0.6494  -21.4304  -53.6431 H         1 UNK         0.3000 
    231 H231        2.5344  -20.6179  -52.8393 H         1 UNK         0.0600 
    232 H232        0.8696  -19.7477  -50.4154 H         1 UNK         0.0600 
    233 H233        2.6193  -19.9831  -50.4523 H         1 UNK         0.0600 
    234 H234        1.5542  -21.3475  -50.6878 H         1 UNK         0.0600 
    235 H235        2.3325  -18.0395  -50.9562 H         1 UNK         0.3000 
    236 H236        3.3251  -16.2995  -53.0009 H         1 UNK         0.0600 
    237 H237        4.2272  -16.3341  -50.6934 H         1 UNK         0.0600 
    238 H238        3.6461  -14.7270  -51.0998 H         1 UNK         0.0600 
    239 H239        2.6800  -15.7654  -50.0591 H         1 UNK         0.0600 
    240 H240        0.2077  -16.4467  -51.2875 H         1 UNK         0.3000 
    241 H241       -1.6261  -15.2268  -51.2631 H         1 UNK         0.0600 
    242 H242       -2.1756  -12.4648  -52.3246 H         1 UNK         0.3800 
    243 H243       -1.1968  -11.4250  -51.3157 H         1 UNK         0.3800 
    244 H244       -0.9906  -14.2324  -54.0825 H         1 UNK         0.0800 
    245 H245       -1.6256  -15.8156  -53.7517 H         1 UNK         0.0800 
    246 H246       -5.3474  -15.3429  -53.6306 H         1 UNK         0.0800 
    247 H247       -3.9830  -16.3412  -54.0557 H         1 UNK         0.0800 
@<TRIPOS>BOND
     1    1    2 1    
     2    1  127 1    
     3    1  128 1    
     4    1  129 1    
     5    2    3 2    
     6    2    4 am   BACKBONE|DICT|INTERRES
     7    4    5 1    
     8    4  130 1    
     9    5    6 1    
    10    5   65 1    
    11    5  131 1    
    12    6    7 1    
    13    6  132 1    
    14    6  133 1    
    15    7    8 1    
    16    8    9 1    
    17    8  134 1    
    18    8  135 1    
    19    9   10 ar   
    20    9   14 ar   
    21   10   11 ar   
    22   10  136 1    
    23   11   12 ar   
    24   11  126 1    
    25   12   13 ar   
    26   12  137 1    
    27   13   14 ar   
    28   13   15 1    
    29   14  138 1    
    30   15   16 1    
    31   15  139 1    
    32   15  140 1    
    33   16   17 1    
    34   17   18 1    
    35   17  141 1    
    36   17  142 1    
    37   18   19 1    
    38   18   67 1    
    39   18  143 1    
    40   19   20 am   BACKBONE|DICT|INTERRES
    41   19  144 1    
    42   20   21 2    
    43   20   22 1    
    44   22   23 1    
    45   22   24 1    
    46   22  145 1    
    47   23  146 1    
    48   23  147 1    
    49   23  148 1    
    50   24   25 am   BACKBONE|DICT|INTERRES
    51   24  149 1    
    52   25   26 2    
    53   25   27 1    
    54   27   28 1    
    55   27   29 1    
    56   27  150 1    
    57   28  151 1    
    58   28  152 1    
    59   28  153 1    
    60   29   30 am   BACKBONE|DICT|INTERRES
    61   29  154 1    
    62   30   31 2    
    63   30   32 1    
    64   32   33 1    
    65   32   34 1    
    66   32  155 1    
    67   33  156 1    
    68   33  157 1    
    69   33  158 1    
    70   34   35 am   BACKBONE|DICT|INTERRES
    71   34  159 1    
    72   35   36 2    
    73   35   37 1    
    74   37   38 1    
    75   37   39 1    
    76   37  160 1    
    77   38  161 1    
    78   38  162 1    
    79   38  163 1    
    80   39   40 am   BACKBONE|DICT|INTERRES
    81   39  164 1    
    82   40   41 2    
    83   40   42 1    
    84   42   43 1    
    85   42   44 1    
    86   42  165 1    
    87   43  166 1    
    88   43  167 1    
    89   43  168 1    
    90   44   45 am   BACKBONE|DICT|INTERRES
    91   44  169 1    
    92   45   46 2    
    93   45   47 1    
    94   47   48 1    
    95   47   49 1    
    96   47  170 1    
    97   48  171 1    
    98   48  172 1    
    99   48  173 1    
   100   49   50 am   BACKBONE|DICT|INTERRES
   101   49  174 1    
   102   50   51 2    
   103   50   52 1    
   104   52   53 1    
   105   52   54 1    
   106   52  175 1    
   107   53  176 1    
   108   53  177 1    
   109   53  178 1    
   110   54   55 am   BACKBONE|DICT|INTERRES
   111   54  179 1    
   112   55   56 2    
   113   55   57 1    
   114   57   58 1    
   115   57   59 1    
   116   57  180 1    
   117   58  181 1    
   118   58  182 1    
   119   58  183 1    
   120   59   60 am   BACKBONE|DICT|INTERRES
   121   59  184 1    
   122   60   61 2    
   123   60   62 1    
   124   62   63 1    
   125   62   64 1    
   126   62  185 1    
   127   63  186 1    
   128   63  187 1    
   129   63  188 1    
   130   64   65 am   BACKBONE|DICT|INTERRES
   131   64  189 1    
   132   65   66 2    
   133   67   68 2    
   134   67   69 am   BACKBONE|DICT|INTERRES
   135   69   70 1    
   136   69  190 1    
   137   70   71 1    
   138   70   72 1    
   139   70  191 1    
   140   71  192 1    
   141   71  193 1    
   142   71  194 1    
   143   72   73 2    
   144   72   74 am   BACKBONE|DICT|INTERRES
   145   74   75 1    
   146   74  195 1    
   147   75   76 1    
   148   75   77 1    
   149   75  196 1    
   150   76  197 1    
   151   76  198 1    
   152   76  199 1    
   153   77   78 2    
   154   77   79 am   BACKBONE|DICT|INTERRES
   155   79   80 1    
   156   79  200 1    
   157   80   81 1    
   158   80   82 1    
   159   80  201 1    
   160   81  202 1    
   161   81  203 1    
   162   81  204 1    
   163   82   83 2    
   164   82   84 am   BACKBONE|DICT|INTERRES
   165   84   85 1    
   166   84  205 1    
   167   85   86 1    
   168   85   87 1    
   169   85  206 1    
   170   86  207 1    
   171   86  208 1    
   172   86  209 1    
   173   87   88 2    
   174   87   89 am   BACKBONE|DICT|INTERRES
   175   89   90 1    
   176   89  210 1    
   177   90   91 1    
   178   90   92 1    
   179   90  211 1    
   180   91  212 1    
   181   91  213 1    
   182   91  214 1    
   183   92   93 2    
   184   92   94 am   BACKBONE|DICT|INTERRES
   185   94   95 1    
   186   94  215 1    
   187   95   96 1    
   188   95   97 1    
   189   95  216 1    
   190   96  217 1    
   191   96  218 1    
   192   96  219 1    
   193   97   98 2    
   194   97   99 am   BACKBONE|DICT|INTERRES
   195   99  100 1    
   196   99  220 1    
   197  100  101 1    
   198  100  102 1    
   199  100  221 1    
   200  101  222 1    
   201  101  223 1    
   202  101  224 1    
   203  102  103 2    
   204  102  104 am   BACKBONE|DICT|INTERRES
   205  104  105 1    
   206  104  225 1    
   207  105  106 1    
   208  105  107 1    
   209  105  226 1    
   210  106  227 1    
   211  106  228 1    
   212  106  229 1    
   213  107  108 2    
   214  107  109 am   BACKBONE|DICT|INTERRES
   215  109  110 1    
   216  109  230 1    
   217  110  111 1    
   218  110  112 1    
   219  110  231 1    
   220  111  232 1    
   221  111  233 1    
   222  111  234 1    
   223  112  113 2    
   224  112  114 am   BACKBONE|DICT|INTERRES
   225  114  115 1    
   226  114  235 1    
   227  115  116 1    
   228  115  117 1    
   229  115  236 1    
   230  116  237 1    
   231  116  238 1    
   232  116  239 1    
   233  117  118 2    
   234  117  119 am   BACKBONE|DICT|INTERRES
   235  119  120 1    
   236  119  240 1    
   237  120  121 1    
   238  120  124 1    
   239  120  241 1    
   240  121  122 am   BACKBONE|DICT|INTERRES
   241  121  123 2    
   242  122  242 1    
   243  122  243 1    
   244  124  125 1    
   245  124  244 1    
   246  124  245 1    
   247  125  126 1    
   248  126  246 1    
   249  126  247 1    
@<TRIPOS>SUBSTRUCTURE
     1 UNK         1 GROUP             0       ****    0 ROOT    
