@<TRIPOS>MOLECULE
3R540
247   249    1
SMALL
USER_CHARGES


@<TRIPOS>ATOM
      1 CA         -2.7543  -12.4042  -45.4878 C.3       0 UNK        -0.1800 
      2 C          -1.8418  -12.7827  -46.6455 C.2       0 UNK         0.5000 
      3 O          -1.3957  -11.9081  -47.3878 O.2       0 UNK        -0.5000 
      4 N          -1.5619  -14.0832  -46.7991 N.am      1 UNK        -0.5000 
      5 CA         -0.7024  -14.6513  -47.8479 C.3       1 UNK         0.1400 
      6 C6         -0.8168  -16.1934  -47.9302 C.3       23 UNK        -0.0398 
      7 S7         -2.5261  -16.8389  -47.9594 S.3       23 UNK        -0.2404 
      8 C8         -2.8649  -16.9983  -49.7458 C.3       23 UNK        -0.0205 
      9 C9         -1.8134  -17.7844  -50.5250 C.ar      23 UNK        -0.0193 
     10 C10        -1.4591  -17.3623  -51.8093 C.ar      23 UNK        -0.1150 
     11 C11        -0.4828  -18.0440  -52.5401 C.ar      23 UNK        -0.0193 
     12 C12         0.1647  -19.1411  -51.9664 C.ar      23 UNK        -0.1150 
     13 C13        -0.1930  -19.5890  -50.6917 C.ar      23 UNK        -0.0193 
     14 C14        -1.1994  -18.9220  -49.9870 C.ar      23 UNK        -0.1150 
     15 C15         0.4617  -20.8328  -50.1140 C.3       23 UNK        -0.0205 
     16 S16         1.7709  -20.4757  -48.8963 S.3       23 UNK        -0.2404 
     17 C17         0.8699  -20.2011  -47.3287 C.3       23 UNK        -0.0398 
     18 CA          0.3675  -21.5115  -46.6567 C.3       11 UNK         0.1400 
     19 N           0.5494  -21.5087  -45.1999 N.am      11 UNK        -0.5000 
     20 C           0.3271  -22.5677  -44.4052 C.2       10 UNK         0.5000 
     21 O          -0.0197  -23.6729  -44.8186 O.2       10 UNK        -0.5000 
     22 CA          0.4557  -22.3492  -42.8881 C.3       10 UNK         0.1400 
     23 CB          1.9285  -22.3575  -42.4531 C.3       10 UNK        -0.1800 
     24 N          -0.1985  -21.1204  -42.4385 N.am      10 UNK        -0.5000 
     25 C          -1.5127  -20.8790  -42.5588 C.2       9 UNK         0.5000 
     26 O          -2.3169  -21.6844  -43.0253 O.2       9 UNK        -0.5000 
     27 CA         -2.0124  -19.4905  -42.1289 C.3       9 UNK         0.1400 
     28 CB         -2.2018  -19.4298  -40.6062 C.3       9 UNK        -0.1800 
     29 N          -1.1256  -18.4115  -42.5591 N.am      9 UNK        -0.5000 
     30 C          -0.8337  -18.1182  -43.8347 C.2       8 UNK         0.5000 
     31 O          -1.2967  -18.7144  -44.8085 O.2       8 UNK        -0.5000 
     32 CA          0.2029  -17.0029  -44.0495 C.3       8 UNK         0.1400 
     33 CB         -0.4044  -15.6242  -43.7510 C.3       8 UNK        -0.1800 
     34 N           1.4033  -17.2005  -43.2421 N.am      8 UNK        -0.5000 
     35 C           2.2182  -18.2610  -43.3389 C.2       7 UNK         0.5000 
     36 O           2.0673  -19.1743  -44.1508 O.2       7 UNK        -0.5000 
     37 CA          3.3686  -18.3320  -42.3229 C.3       7 UNK         0.1400 
     38 CB          4.5535  -17.4708  -42.7841 C.3       7 UNK        -0.1800 
     39 N           2.9388  -17.9144  -40.9878 N.am      7 UNK        -0.5000 
     40 C           2.0865  -18.6091  -40.2196 C.2       6 UNK         0.5000 
     41 O           1.5982  -19.6913  -40.5433 O.2       6 UNK        -0.5000 
     42 CA          1.6773  -17.9619  -38.8848 C.3       6 UNK         0.1400 
     43 CB          2.7588  -18.1845  -37.8170 C.3       6 UNK        -0.1800 
     44 N           1.4105  -16.5294  -39.0178 N.am      6 UNK        -0.5000 
     45 C           0.3985  -16.0119  -39.7284 C.2       5 UNK         0.5000 
     46 O          -0.4371  -16.6910  -40.3236 O.2       5 UNK        -0.5000 
     47 CA          0.3345  -14.4771  -39.8258 C.3       5 UNK         0.1400 
     48 CB         -0.4546  -13.8944  -38.6441 C.3       5 UNK        -0.1800 
     49 N           1.6522  -13.8391  -39.8931 N.am      5 UNK        -0.5000 
     50 C           2.5405  -14.0311  -40.8763 C.2       4 UNK         0.5000 
     51 O           2.3731  -14.8182  -41.8114 O.2       4 UNK        -0.5000 
     52 CA          3.8446  -13.2262  -40.7932 C.3       4 UNK         0.1400 
     53 CB          5.0502  -14.1542  -40.5781 C.3       4 UNK        -0.1800 
     54 N           4.0194  -12.4843  -42.0367 N.am      4 UNK        -0.5000 
     55 C           3.5429  -11.2523  -42.2575 C.2       3 UNK         0.5000 
     56 O           3.0141  -10.5557  -41.3900 O.2       3 UNK        -0.5000 
     57 CA          3.6627  -10.7120  -43.6959 C.3       3 UNK         0.1400 
     58 CB          4.9906   -9.9618  -43.8820 C.3       3 UNK        -0.1800 
     59 N           3.5529  -11.7589  -44.7164 N.am      3 UNK        -0.5000 
     60 C           2.4311  -12.4412  -44.9805 C.2       2 UNK         0.5000 
     61 O           1.3574  -12.2511  -44.4016 O.2       2 UNK        -0.5000 
     62 CA          2.5347  -13.5237  -46.0645 C.3       2 UNK         0.1400 
     63 CB          3.2823  -14.7624  -45.5390 C.3       2 UNK        -0.1800 
     64 N           1.1873  -13.9104  -46.4604 N.am      2 UNK        -0.5000 
     65 C           0.7878  -14.2692  -47.6848 C.2       1 UNK         0.5000 
     66 O           1.5408  -14.3314  -48.6572 O.2       1 UNK        -0.5000 
     67 C          -1.0979  -21.8154  -47.0329 C.2       11 UNK         0.5000 
     68 O          -1.3524  -22.7235  -47.8284 O.2       11 UNK        -0.5000 
     69 N          -2.0331  -21.0736  -46.4218 N.am      12 UNK        -0.5000 
     70 CA         -3.4746  -21.2158  -46.6249 C.3       12 UNK         0.1400 
     71 CB         -4.2122  -20.1275  -45.8319 C.3       12 UNK        -0.1800 
     72 C          -4.0070  -22.6158  -46.2661 C.2       12 UNK         0.5000 
     73 O          -4.8222  -23.1579  -47.0110 O.2       12 UNK        -0.5000 
     74 N          -3.5166  -23.1909  -45.1608 N.am      13 UNK        -0.5000 
     75 CA         -3.8470  -24.5470  -44.7268 C.3       13 UNK         0.1400 
     76 CB         -3.3672  -24.7538  -43.2819 C.3       13 UNK        -0.1800 
     77 C          -3.2625  -25.6323  -45.6493 C.2       13 UNK         0.5000 
     78 O          -3.9498  -26.6138  -45.9348 O.2       13 UNK        -0.5000 
     79 N          -2.0065  -25.4515  -46.0798 N.am      14 UNK        -0.5000 
     80 CA         -1.2674  -26.4257  -46.8789 C.3       14 UNK         0.1400 
     81 CB          0.2386  -26.1265  -46.8029 C.3       14 UNK        -0.1800 
     82 C          -1.7279  -26.4910  -48.3434 C.2       14 UNK         0.5000 
     83 O          -2.0147  -27.5845  -48.8335 O.2       14 UNK        -0.5000 
     84 N          -1.7447  -25.3379  -49.0252 N.am      15 UNK        -0.5000 
     85 CA         -1.8832  -25.2683  -50.4825 C.3       15 UNK         0.1400 
     86 CB         -0.7118  -24.4499  -51.0466 C.3       15 UNK        -0.1800 
     87 C          -3.2136  -24.6621  -50.9504 C.2       15 UNK         0.5000 
     88 O          -3.5315  -24.7970  -52.1327 O.2       15 UNK        -0.5000 
     89 N          -3.9481  -23.9783  -50.0586 N.am      16 UNK        -0.5000 
     90 CA         -5.2133  -23.2793  -50.3346 C.3       16 UNK         0.1400 
     91 CB         -6.3474  -24.2972  -50.5759 C.3       16 UNK        -0.1800 
     92 C          -5.0836  -22.2439  -51.4730 C.2       16 UNK         0.5000 
     93 O          -5.9038  -22.2217  -52.3921 O.2       16 UNK        -0.5000 
     94 N          -4.0080  -21.4436  -51.4126 N.am      17 UNK        -0.5000 
     95 CA         -3.5906  -20.4617  -52.4218 C.3       17 UNK         0.1400 
     96 CB         -4.5853  -19.2873  -52.4881 C.3       17 UNK        -0.1800 
     97 C          -3.3130  -21.1069  -53.7945 C.2       17 UNK         0.5000 
     98 O          -3.7476  -20.5899  -54.8259 O.2       17 UNK        -0.5000 
     99 N          -2.6195  -22.2560  -53.7550 N.am      18 UNK        -0.5000 
    100 CA        -2.2991  -23.1454  -54.8757 C.3       18 UNK         0.1400 
    101 CB        -1.3001  -22.4691  -55.8371 C.3       18 UNK        -0.1800 
    102 C         -3.5723  -23.6598  -55.5768 C.2       18 UNK         0.5000 
    103 O         -3.6848  -23.5742  -56.7989 O.2       18 UNK        -0.5000 
    104 N         -4.5322  -24.1374  -54.7706 N.am      19 UNK        -0.5000 
    105 CA        -5.8982  -24.5137  -55.1547 C.3       19 UNK         0.1400 
    106 CB        -5.8924  -25.8041  -55.9999 C.3       19 UNK        -0.1800 
    107 C         -6.6524  -23.3446  -55.8281 C.2       19 UNK         0.5000 
    108 O         -7.2616  -23.5157  -56.8856 O.2       19 UNK        -0.5000 
    109 N         -6.5564  -22.1664  -55.1972 N.am      20 UNK        -0.5000 
    110 CA        -7.0994  -20.8665  -55.6019 C.3       20 UNK         0.1400 
    111 CB        -8.6413  -20.9047  -55.6381 C.3       20 UNK        -0.1800 
    112 C         -6.4943  -20.2709  -56.8942 C.2       20 UNK         0.5000 
    113 O         -7.0468  -19.3012  -57.4167 O.2       20 UNK        -0.5000 
    114 N         -5.3691  -20.8126  -57.3836 N.am      21 UNK        -0.5000 
    115 CA        -4.6785  -20.3292  -58.5827 C.3       21 UNK         0.1400 
    116 CB        -3.7120  -21.4039  -59.0992 C.3       21 UNK        -0.1800 
    117 C         -3.9343  -18.9956  -58.3767 C.2       21 UNK         0.5000 
    118 O         -3.7528  -18.2647  -59.3521 O.2       21 UNK        -0.5000 
    119 N         -3.5255  -18.6934  -57.1375 N.am      22 UNK        -0.5000 
    120 CA        -2.8438  -17.4416  -56.7594 C.3       22 UNK         0.1400 
    121 C         -3.5585  -16.6682  -55.6136 C.2       22 UNK         0.5000 
    122 N         -4.8112  -16.9750  -55.2979 N.am      22 UNK        -0.7600 
    123 O         -2.9911  -15.7506  -55.0273 O.2       22 UNK        -0.5000 
    124 C124       -1.3173  -17.6393  -56.5469 C.3       23 UNK        -0.0398 
    125 S125       -0.8836  -18.7551  -55.1682 S.3       23 UNK        -0.2404 
    126 C126       -0.1487  -17.6102  -53.9575 C.3       23 UNK        -0.0205 
    127 H127       -3.6339  -11.8781  -45.8587 H         1 UNK         0.0600 
    128 H128       -2.2271  -11.7465  -44.7966 H         1 UNK         0.0600 
    129 H129       -3.0907  -13.2804  -44.9328 H         1 UNK         0.0600 
    130 H130       -2.0047  -14.7587  -46.1935 H         1 UNK         0.3000 
    131 H131       -1.0378  -14.2403  -48.8025 H         1 UNK         0.0600 
    132 H132       -0.2636  -16.5571  -48.7963 H         1 UNK         0.0800 
    133 H133       -0.3337  -16.6572  -47.0728 H         1 UNK         0.0800 
    134 H134       -2.9673  -15.9937  -50.1591 H         1 UNK         0.0800 
    135 H135       -3.8325  -17.4835  -49.8707 H         1 UNK         0.0800 
    136 H136       -1.9532  -16.5070  -52.2494 H         1 UNK         0.1150 
    137 H137        0.9215  -19.6672  -52.5313 H         1 UNK         0.1150 
    138 H138       -1.5029  -19.2815  -49.0153 H         1 UNK         0.1150 
    139 H139       -0.3027  -21.4667  -49.6798 H         1 UNK         0.0800 
    140 H140        0.9051  -21.4216  -50.9185 H         1 UNK         0.0800 
    141 H141        0.0806  -19.4608  -47.4595 H         1 UNK         0.0800 
    142 H142        1.5918  -19.7117  -46.6750 H         1 UNK         0.0800 
    143 H143        0.9709  -22.3426  -47.0283 H         1 UNK         0.0600 
    144 H144        0.8568  -20.6377  -44.7773 H         1 UNK         0.3000 
    145 H145       -0.0433  -23.1851  -42.3934 H         1 UNK         0.0600 
    146 H146        2.0187  -22.3028  -41.3682 H         1 UNK         0.0600 
    147 H147        2.4246  -23.2744  -42.7737 H         1 UNK         0.0600 
    148 H148        2.4813  -21.5200  -42.8777 H         1 UNK         0.0600 
    149 H149        0.3938  -20.4240  -41.9982 H         1 UNK         0.3000 
    150 H150       -2.9837  -19.3271  -42.5997 H         1 UNK         0.0600 
    151 H151       -2.6453  -18.4814  -40.3026 H         1 UNK         0.0600 
    152 H152       -2.8652  -20.2242  -40.2620 H         1 UNK         0.0600 
    153 H153       -1.2538  -19.5392  -40.0782 H         1 UNK         0.0600 
    154 H154       -0.7142  -17.8477  -41.8196 H         1 UNK         0.3000 
    155 H155        0.5182  -17.0269  -45.0917 H         1 UNK         0.0600 
    156 H156       -0.7417  -15.5462  -42.7185 H         1 UNK         0.0600 
    157 H157       -1.2693  -15.4347  -44.3852 H         1 UNK         0.0600 
    158 H158        0.3171  -14.8261  -43.9199 H         1 UNK         0.0600 
    159 H159        1.6329  -16.4695  -42.5751 H         1 UNK         0.3000 
    160 H160        3.7041  -19.3695  -42.2636 H         1 UNK         0.0600 
    161 H161        4.2690  -16.4265  -42.9113 H         1 UNK         0.0600 
    162 H162        4.9359  -17.8212  -43.7436 H         1 UNK         0.0600 
    163 H163        5.3766  -17.5130  -42.0706 H         1 UNK         0.0600 
    164 H164        3.2487  -17.0076  -40.6728 H         1 UNK         0.3000 
    165 H165        0.7592  -18.4477  -38.5474 H         1 UNK         0.0600 
    166 H166        2.4411  -17.7984  -36.8483 H         1 UNK         0.0600 
    167 H167        2.9671  -19.2476  -37.6894 H         1 UNK         0.0600 
    168 H168        3.6969  -17.6955  -38.0824 H         1 UNK         0.0600 
    169 H169        2.0507  -15.8976  -38.5603 H         1 UNK         0.3000 
    170 H170       -0.1991  -14.2281  -40.7451 H         1 UNK         0.0600 
    171 H171       -1.4495  -14.3378  -38.5828 H         1 UNK         0.0600 
    172 H172        0.0466  -14.0795  -37.6933 H         1 UNK         0.0600 
    173 H173       -0.5870  -12.8176  -38.7507 H         1 UNK         0.0600 
    174 H174        1.8658  -13.1742  -39.1635 H         1 UNK         0.3000 
    175 H175        3.7944  -12.5361  -39.9481 H         1 UNK         0.0600 
    176 H176        5.1892  -14.8414  -41.4122 H         1 UNK         0.0600 
    177 H177        5.9698  -13.5797  -40.4660 H         1 UNK         0.0600 
    178 H178        4.9286  -14.7521  -39.6740 H         1 UNK         0.0600 
    179 H179        4.3849  -13.0042  -42.8203 H         1 UNK         0.3000 
    180 H180        2.8470  -10.0022  -43.8498 H         1 UNK         0.0600 
    181 H181        5.8486  -10.6244  -43.7620 H         1 UNK         0.0600 
    182 H182        5.0910   -9.1591  -43.1501 H         1 UNK         0.0600 
    183 H183        5.0520   -9.5071  -44.8709 H         1 UNK         0.0600 
    184 H184        4.3916  -11.9681  -45.2386 H         1 UNK         0.3000 
    185 H185        3.0678  -13.1035  -46.9198 H         1 UNK         0.0600 
    186 H186        4.3136  -14.5218  -45.2796 H         1 UNK         0.0600 
    187 H187        2.8061  -15.1663  -44.6454 H         1 UNK         0.0600 
    188 H188        3.3129  -15.5545  -46.2874 H         1 UNK         0.0600 
    189 H189        0.4916  -13.7782  -45.7379 H         1 UNK         0.3000 
    190 H190       -1.7398  -20.3448  -45.7758 H         1 UNK         0.3000 
    191 H191       -3.6710  -21.0515  -47.6863 H         1 UNK         0.0600 
    192 H192       -3.8958  -19.1316  -46.1426 H         1 UNK         0.0600 
    193 H193       -5.2897  -20.1911  -45.9883 H         1 UNK         0.0600 
    194 H194       -4.0281  -20.2167  -44.7609 H         1 UNK         0.0600 
    195 H195       -2.8906  -22.6593  -44.5612 H         1 UNK         0.3000 
    196 H196       -4.9340  -24.6508  -44.7386 H         1 UNK         0.0600 
    197 H197       -3.6057  -25.7579  -42.9293 H         1 UNK         0.0600 
    198 H198       -3.8469  -24.0482  -42.6035 H         1 UNK         0.0600 
    199 H199       -2.2881  -24.6205  -43.1938 H         1 UNK         0.0600 
    200 H200       -1.4892  -24.6340  -45.7709 H         1 UNK         0.3000 
    201 H201       -1.4262  -27.4132  -46.4399 H         1 UNK         0.0600 
    202 H202        0.6020  -26.1998  -45.7779 H         1 UNK         0.0600 
    203 H203        0.4711  -25.1256  -47.1693 H         1 UNK         0.0600 
    204 H204        0.8107  -26.8370  -47.4008 H         1 UNK         0.0600 
    205 H205       -1.5249  -24.4699  -48.5408 H         1 UNK         0.3000 
    206 H206       -1.8235  -26.2656  -50.9229 H         1 UNK         0.0600 
    207 H207        0.2471  -24.8636  -50.7339 H         1 UNK         0.0600 
    208 H208       -0.7222  -24.4464  -52.1371 H         1 UNK         0.0600 
    209 H209       -0.7553  -23.4151  -50.7141 H         1 UNK         0.0600 
    210 H210       -3.6180  -23.9289  -49.1040 H         1 UNK         0.3000 
    211 H211       -5.4687  -22.7077  -49.4432 H         1 UNK         0.0600 
    212 H212       -6.1827  -24.8839  -51.4802 H         1 UNK         0.0600 
    213 H213       -7.3086  -23.7933  -50.6835 H         1 UNK         0.0600 
    214 H214       -6.4368  -24.9893  -49.7386 H         1 UNK         0.0600 
    215 H215       -3.3866  -21.5534  -50.6245 H         1 UNK         0.3000 
    216 H216       -2.6352  -20.0653  -52.0880 H         1 UNK         0.0600 
    217 H217       -4.1762  -18.4754  -53.0883 H         1 UNK         0.0600 
    218 H218       -4.7896  -18.8865  -51.4967 H         1 UNK         0.0600 
    219 H219       -5.5369  -19.5812  -52.9290 H         1 UNK         0.0600 
    220 H220       -2.3679  -22.6108  -52.8451 H         1 UNK         0.3000 
    221 H221       -1.8082  -24.0221  -54.4510 H         1 UNK         0.0600 
    222 H222       -1.7271  -21.5847  -56.3100 H         1 UNK         0.0600 
    223 H223       -0.3974  -22.1593  -55.3108 H         1 UNK         0.0600 
    224 H224       -0.9965  -23.1516  -56.6314 H         1 UNK         0.0600 
    225 H225       -4.3208  -24.2029  -53.7778 H         1 UNK         0.3000 
    226 H226       -6.4296  -24.7279  -54.2262 H         1 UNK         0.0600 
    227 H227       -5.3704  -26.6097  -55.4837 H         1 UNK         0.0600 
    228 H228       -6.9092  -26.1476  -56.1931 H         1 UNK         0.0600 
    229 H229       -5.4087  -25.6556  -56.9658 H         1 UNK         0.0600 
    230 H230       -6.0641  -22.1573  -54.3071 H         1 UNK         0.3000 
    231 H231       -6.8146  -20.1770  -54.8075 H         1 UNK         0.0600 
    232 H232       -9.0127  -21.5188  -56.4588 H         1 UNK         0.0600 
    233 H233       -9.0564  -19.9045  -55.7668 H         1 UNK         0.0600 
    234 H234       -9.0473  -21.3037  -54.7085 H         1 UNK         0.0600 
    235 H235       -4.9401  -21.5835  -56.8870 H         1 UNK         0.3000 
    236 H236       -5.4307  -20.1649  -59.3572 H         1 UNK         0.0600 
    237 H237       -2.8988  -21.5833  -58.3965 H         1 UNK         0.0600 
    238 H238       -4.2261  -22.3498  -59.2710 H         1 UNK         0.0600 
    239 H239       -3.2628  -21.1013  -60.0458 H         1 UNK         0.0600 
    240 H240       -3.6813  -19.3564  -56.3816 H         1 UNK         0.3000 
    241 H241       -2.9305  -16.7422  -57.5923 H         1 UNK         0.0600 
    242 H242       -5.3055  -17.6884  -55.8087 H         1 UNK         0.3800 
    243 H243       -5.2784  -16.4577  -54.5708 H         1 UNK         0.3800 
    244 H244       -0.8840  -18.0600  -57.4550 H         1 UNK         0.0800 
    245 H245       -0.8238  -16.6752  -56.4172 H         1 UNK         0.0800 
    246 H246        0.9330  -17.5817  -54.0952 H         1 UNK         0.0800 
    247 H247       -0.5089  -16.5948  -54.1276 H         1 UNK         0.0800 
@<TRIPOS>BOND
     1    1    2 1    
     2    1  127 1    
     3    1  128 1    
     4    1  129 1    
     5    2    3 2    
     6    2    4 am   BACKBONE|DICT|INTERRES
     7    4    5 1    
     8    4  130 1    
     9    5    6 1    
    10    5   65 1    
    11    5  131 1    
    12    6    7 1    
    13    6  132 1    
    14    6  133 1    
    15    7    8 1    
    16    8    9 1    
    17    8  134 1    
    18    8  135 1    
    19    9   10 ar   
    20    9   14 ar   
    21   10   11 ar   
    22   10  136 1    
    23   11   12 ar   
    24   11  126 1    
    25   12   13 ar   
    26   12  137 1    
    27   13   14 ar   
    28   13   15 1    
    29   14  138 1    
    30   15   16 1    
    31   15  139 1    
    32   15  140 1    
    33   16   17 1    
    34   17   18 1    
    35   17  141 1    
    36   17  142 1    
    37   18   19 1    
    38   18   67 1    
    39   18  143 1    
    40   19   20 am   BACKBONE|DICT|INTERRES
    41   19  144 1    
    42   20   21 2    
    43   20   22 1    
    44   22   23 1    
    45   22   24 1    
    46   22  145 1    
    47   23  146 1    
    48   23  147 1    
    49   23  148 1    
    50   24   25 am   BACKBONE|DICT|INTERRES
    51   24  149 1    
    52   25   26 2    
    53   25   27 1    
    54   27   28 1    
    55   27   29 1    
    56   27  150 1    
    57   28  151 1    
    58   28  152 1    
    59   28  153 1    
    60   29   30 am   BACKBONE|DICT|INTERRES
    61   29  154 1    
    62   30   31 2    
    63   30   32 1    
    64   32   33 1    
    65   32   34 1    
    66   32  155 1    
    67   33  156 1    
    68   33  157 1    
    69   33  158 1    
    70   34   35 am   BACKBONE|DICT|INTERRES
    71   34  159 1    
    72   35   36 2    
    73   35   37 1    
    74   37   38 1    
    75   37   39 1    
    76   37  160 1    
    77   38  161 1    
    78   38  162 1    
    79   38  163 1    
    80   39   40 am   BACKBONE|DICT|INTERRES
    81   39  164 1    
    82   40   41 2    
    83   40   42 1    
    84   42   43 1    
    85   42   44 1    
    86   42  165 1    
    87   43  166 1    
    88   43  167 1    
    89   43  168 1    
    90   44   45 am   BACKBONE|DICT|INTERRES
    91   44  169 1    
    92   45   46 2    
    93   45   47 1    
    94   47   48 1    
    95   47   49 1    
    96   47  170 1    
    97   48  171 1    
    98   48  172 1    
    99   48  173 1    
   100   49   50 am   BACKBONE|DICT|INTERRES
   101   49  174 1    
   102   50   51 2    
   103   50   52 1    
   104   52   53 1    
   105   52   54 1    
   106   52  175 1    
   107   53  176 1    
   108   53  177 1    
   109   53  178 1    
   110   54   55 am   BACKBONE|DICT|INTERRES
   111   54  179 1    
   112   55   56 2    
   113   55   57 1    
   114   57   58 1    
   115   57   59 1    
   116   57  180 1    
   117   58  181 1    
   118   58  182 1    
   119   58  183 1    
   120   59   60 am   BACKBONE|DICT|INTERRES
   121   59  184 1    
   122   60   61 2    
   123   60   62 1    
   124   62   63 1    
   125   62   64 1    
   126   62  185 1    
   127   63  186 1    
   128   63  187 1    
   129   63  188 1    
   130   64   65 am   BACKBONE|DICT|INTERRES
   131   64  189 1    
   132   65   66 2    
   133   67   68 2    
   134   67   69 am   BACKBONE|DICT|INTERRES
   135   69   70 1    
   136   69  190 1    
   137   70   71 1    
   138   70   72 1    
   139   70  191 1    
   140   71  192 1    
   141   71  193 1    
   142   71  194 1    
   143   72   73 2    
   144   72   74 am   BACKBONE|DICT|INTERRES
   145   74   75 1    
   146   74  195 1    
   147   75   76 1    
   148   75   77 1    
   149   75  196 1    
   150   76  197 1    
   151   76  198 1    
   152   76  199 1    
   153   77   78 2    
   154   77   79 am   BACKBONE|DICT|INTERRES
   155   79   80 1    
   156   79  200 1    
   157   80   81 1    
   158   80   82 1    
   159   80  201 1    
   160   81  202 1    
   161   81  203 1    
   162   81  204 1    
   163   82   83 2    
   164   82   84 am   BACKBONE|DICT|INTERRES
   165   84   85 1    
   166   84  205 1    
   167   85   86 1    
   168   85   87 1    
   169   85  206 1    
   170   86  207 1    
   171   86  208 1    
   172   86  209 1    
   173   87   88 2    
   174   87   89 am   BACKBONE|DICT|INTERRES
   175   89   90 1    
   176   89  210 1    
   177   90   91 1    
   178   90   92 1    
   179   90  211 1    
   180   91  212 1    
   181   91  213 1    
   182   91  214 1    
   183   92   93 2    
   184   92   94 am   BACKBONE|DICT|INTERRES
   185   94   95 1    
   186   94  215 1    
   187   95   96 1    
   188   95   97 1    
   189   95  216 1    
   190   96  217 1    
   191   96  218 1    
   192   96  219 1    
   193   97   98 2    
   194   97   99 am   BACKBONE|DICT|INTERRES
   195   99  100 1    
   196   99  220 1    
   197  100  101 1    
   198  100  102 1    
   199  100  221 1    
   200  101  222 1    
   201  101  223 1    
   202  101  224 1    
   203  102  103 2    
   204  102  104 am   BACKBONE|DICT|INTERRES
   205  104  105 1    
   206  104  225 1    
   207  105  106 1    
   208  105  107 1    
   209  105  226 1    
   210  106  227 1    
   211  106  228 1    
   212  106  229 1    
   213  107  108 2    
   214  107  109 am   BACKBONE|DICT|INTERRES
   215  109  110 1    
   216  109  230 1    
   217  110  111 1    
   218  110  112 1    
   219  110  231 1    
   220  111  232 1    
   221  111  233 1    
   222  111  234 1    
   223  112  113 2    
   224  112  114 am   BACKBONE|DICT|INTERRES
   225  114  115 1    
   226  114  235 1    
   227  115  116 1    
   228  115  117 1    
   229  115  236 1    
   230  116  237 1    
   231  116  238 1    
   232  116  239 1    
   233  117  118 2    
   234  117  119 am   BACKBONE|DICT|INTERRES
   235  119  120 1    
   236  119  240 1    
   237  120  121 1    
   238  120  124 1    
   239  120  241 1    
   240  121  122 am   BACKBONE|DICT|INTERRES
   241  121  123 2    
   242  122  242 1    
   243  122  243 1    
   244  124  125 1    
   245  124  244 1    
   246  124  245 1    
   247  125  126 1    
   248  126  246 1    
   249  126  247 1    
@<TRIPOS>SUBSTRUCTURE
     1 UNK         1 GROUP             0       ****    0 ROOT    
