@<TRIPOS>MOLECULE
3R540
247   249    1
SMALL
USER_CHARGES


@<TRIPOS>ATOM
      1 CA          4.4451  -11.1604  -50.7876 C.3       0 UNK        -0.1800 
      2 C           3.8862  -11.6446  -49.4572 C.2       0 UNK         0.5000 
      3 O           4.5657  -11.5449  -48.4358 O.2       0 UNK        -0.5000 
      4 N           2.6537  -12.1707  -49.4675 N.am      1 UNK        -0.5000 
      5 CA          1.9461  -12.6641  -48.2811 C.3       1 UNK         0.1400 
      6 C6          0.7294  -13.5374  -48.6767 C.3       23 UNK        -0.0398 
      7 S7          0.0358  -14.4915  -47.2848 S.3       23 UNK        -0.2404 
      8 C8         -1.0465  -15.6649  -48.1651 C.3       23 UNK        -0.0205 
      9 C9         -0.2624  -16.7856  -48.8339 C.ar      23 UNK        -0.0193 
     10 C10        -0.3464  -16.9904  -50.2147 C.ar      23 UNK        -0.1150 
     11 C11         0.3827  -18.0179  -50.8213 C.ar      23 UNK        -0.0193 
     12 C12         1.1959  -18.8417  -50.0387 C.ar      23 UNK        -0.1150 
     13 C13         1.2700  -18.6639  -48.6549 C.ar      23 UNK        -0.0193 
     14 C14         0.5417  -17.6296  -48.0634 C.ar      23 UNK        -0.1150 
     15 C15         2.1456  -19.5673  -47.7937 C.3       23 UNK        -0.0205 
     16 S16         1.9041  -21.3440  -48.1206 S.3       23 UNK        -0.2404 
     17 C17         0.1047  -21.5317  -47.8965 C.3       23 UNK        -0.0398 
     18 CA         -0.2477  -22.8412  -47.1632 C.3       11 UNK         0.1400 
     19 N           0.2472  -22.8664  -45.7844 N.am      11 UNK        -0.5000 
     20 C           0.3562  -23.9814  -45.0514 C.2       10 UNK         0.5000 
     21 O           0.0487  -25.0995  -45.4633 O.2       10 UNK        -0.5000 
     22 CA          0.8428  -23.8077  -43.6043 C.3       10 UNK         0.1400 
     23 CB          2.3719  -23.6698  -43.5521 C.3       10 UNK        -0.1800 
     24 N           0.2192  -22.6502  -42.9631 N.am      10 UNK        -0.5000 
     25 C          -1.0636  -22.6127  -42.5731 C.2       9 UNK         0.5000 
     26 O          -1.8424  -23.5580  -42.7005 O.2       9 UNK        -0.5000 
     27 CA         -1.5757  -21.2818  -41.9863 C.3       9 UNK         0.1400 
     28 CB         -1.2493  -21.1899  -40.4885 C.3       9 UNK        -0.1800 
     29 N          -1.0369  -20.1054  -42.6725 N.am      9 UNK        -0.5000 
     30 C          -1.2328  -19.8348  -43.9699 C.2       8 UNK         0.5000 
     31 O          -1.9320  -20.5226  -44.7076 O.2       8 UNK        -0.5000 
     32 CA         -0.4923  -18.6339  -44.5768 C.3       8 UNK         0.1400 
     33 CB         -1.4160  -17.4120  -44.6515 C.3       8 UNK        -0.1800 
     34 N           0.7582  -18.2636  -43.9093 N.am      8 UNK        -0.5000 
     35 C           1.8130  -19.0704  -43.7269 C.2       7 UNK         0.5000 
     36 O           1.8267  -20.2632  -44.0384 O.2       7 UNK        -0.5000 
     37 CA          3.0477  -18.3958  -43.1074 C.3       7 UNK         0.1400 
     38 CB          4.1866  -19.3812  -42.7683 C.3       7 UNK        -0.1800 
     39 N           3.5008  -17.2833  -43.9497 N.am      7 UNK        -0.5000 
     40 C           4.0836  -17.3456  -45.1591 C.2       6 UNK         0.5000 
     41 O           4.4084  -18.3985  -45.7061 O.2       6 UNK        -0.5000 
     42 CA          4.3517  -16.0134  -45.8979 C.3       6 UNK         0.1400 
     43 CB          3.7999  -16.0373  -47.3335 C.3       6 UNK        -0.1800 
     44 N           3.8019  -14.8451  -45.2083 N.am      6 UNK        -0.5000 
     45 C           4.3830  -14.2113  -44.1823 C.2       5 UNK         0.5000 
     46 O           5.4971  -14.4999  -43.7450 O.2       5 UNK        -0.5000 
     47 CA          3.5699  -13.0925  -43.5043 C.3       5 UNK         0.1400 
     48 CB          4.0900  -11.7130  -43.9389 C.3       5 UNK        -0.1800 
     49 N           2.1239  -13.1617  -43.7498 N.am      5 UNK        -0.5000 
     50 C           1.3013  -14.1171  -43.2894 C.2       4 UNK         0.5000 
     51 O           1.7082  -15.1363  -42.7275 O.2       4 UNK        -0.5000 
     52 CA         -0.2160  -13.9173  -43.4825 C.3       4 UNK         0.1400 
     53 CB         -1.0107  -14.3544  -42.2345 C.3       4 UNK        -0.1800 
     54 N          -0.5609  -12.5394  -43.8423 N.am      4 UNK        -0.5000 
     55 C          -1.6930  -12.1701  -44.4596 C.2       3 UNK         0.5000 
     56 O          -2.5841  -12.9517  -44.7924 O.2       3 UNK        -0.5000 
     57 CA         -1.8327  -10.6795  -44.7961 C.3       3 UNK         0.1400 
     58 CB         -1.9769   -9.8140  -43.5309 C.3       3 UNK        -0.1800 
     59 N          -0.6737  -10.2722  -45.5778 N.am      3 UNK        -0.5000 
     60 C          -0.5833   -9.2365  -46.4132 C.2       2 UNK         0.5000 
     61 O          -1.4812   -8.4104  -46.5802 O.2       2 UNK        -0.5000 
     62 CA          0.7277   -9.1162  -47.2215 C.3       2 UNK         0.1400 
     63 CB          1.8571   -8.5209  -46.3584 C.3       2 UNK        -0.1800 
     64 N           1.1631  -10.3599  -47.8810 N.am      2 UNK        -0.5000 
     65 C           1.5480  -11.5196  -47.3237 C.2       1 UNK         0.5000 
     66 O           1.5940  -11.7112  -46.1078 O.2       1 UNK        -0.5000 
     67 C          -1.7586  -23.1394  -47.2513 C.2       11 UNK         0.5000 
     68 O          -2.2004  -23.6872  -48.2601 O.2       11 UNK        -0.5000 
     69 N          -2.5287  -22.7918  -46.2118 N.am      12 UNK        -0.5000 
     70 CA         -3.9415  -23.1390  -46.0737 C.3       12 UNK         0.1400 
     71 CB         -4.6005  -22.2591  -45.0029 C.3       12 UNK        -0.1800 
     72 C          -4.1327  -24.6297  -45.7537 C.2       12 UNK         0.5000 
     73 O          -5.0292  -25.2517  -46.3208 O.2       12 UNK        -0.5000 
     74 N          -3.2607  -25.1958  -44.9050 N.am      13 UNK        -0.5000 
     75 CA         -3.2126  -26.6318  -44.6076 C.3       13 UNK         0.1400 
     76 CB         -2.2565  -26.8875  -43.4330 C.3       13 UNK        -0.1800 
     77 C          -2.8199  -27.4778  -45.8359 C.2       13 UNK         0.5000 
     78 O          -3.3554  -28.5707  -46.0211 O.2       13 UNK        -0.5000 
     79 N          -1.9367  -26.9290  -46.6814 N.am      14 UNK        -0.5000 
     80 CA         -1.5602  -27.4716  -47.9897 C.3       14 UNK         0.1400 
     81 CB         -0.2148  -26.8550  -48.4053 C.3       14 UNK        -0.1800 
     82 C          -2.6221  -27.2359  -49.0885 C.2       14 UNK         0.5000 
     83 O          -2.4334  -27.7049  -50.2106 O.2       14 UNK        -0.5000 
     84 N          -3.6920  -26.4945  -48.7634 N.am      15 UNK        -0.5000 
     85 CA         -4.8379  -26.0905  -49.5880 C.3       15 UNK         0.1400 
     86 CB         -5.5484  -27.3056  -50.2152 C.3       15 UNK        -0.1800 
     87 C          -4.5406  -25.0026  -50.6393 C.2       15 UNK         0.5000 
     88 O          -5.4861  -24.4563  -51.2083 O.2       15 UNK        -0.5000 
     89 N          -3.2624  -24.6708  -50.8586 N.am      16 UNK        -0.5000 
     90 CA         -2.7832  -23.6975  -51.8391 C.3       16 UNK         0.1400 
     91 CB         -1.2468  -23.6927  -51.8446 C.3       16 UNK        -0.1800 
     92 C          -3.3301  -22.2808  -51.6056 C.2       16 UNK         0.5000 
     93 O          -3.8611  -21.6786  -52.5388 O.2       16 UNK        -0.5000 
     94 N          -3.2279  -21.7918  -50.3621 N.am      17 UNK        -0.5000 
     95 CA         -3.7354  -20.4708  -49.9768 C.3       17 UNK         0.1400 
     96 CB         -2.9385  -19.9161  -48.7866 C.3       17 UNK        -0.1800 
     97 C          -5.2424  -20.4848  -49.6659 C.2       17 UNK         0.5000 
     98 O          -5.8768  -19.4334  -49.7428 O.2       17 UNK        -0.5000 
     99 N          -5.7962  -21.6632  -49.3420 N.am      18 UNK        -0.5000 
    100 CA        -7.2257  -21.8554  -49.0847 C.3       18 UNK         0.1400 
    101 CB        -7.4558  -23.1939  -48.3671 C.3       18 UNK        -0.1800 
    102 C         -8.0485  -21.7776  -50.3824 C.2       18 UNK         0.5000 
    103 O         -9.0749  -21.0982  -50.4152 O.2       18 UNK        -0.5000 
    104 N         -7.5581  -22.4423  -51.4380 N.am      19 UNK        -0.5000 
    105 CA        -8.1112  -22.3706  -52.7917 C.3       19 UNK         0.1400 
    106 CB        -7.6409  -23.6036  -53.5798 C.3       19 UNK        -0.1800 
    107 C         -7.7023  -21.0827  -53.5341 C.2       19 UNK         0.5000 
    108 O         -8.3277  -20.7442  -54.5392 O.2       19 UNK        -0.5000 
    109 N         -6.6430  -20.4183  -53.0453 N.am      20 UNK        -0.5000 
    110 CA        -5.9427  -19.2730  -53.6394 C.3       20 UNK         0.1400 
    111 CB        -6.8579  -18.0344  -53.7196 C.3       20 UNK        -0.1800 
    112 C         -5.2744  -19.6242  -54.9866 C.2       20 UNK         0.5000 
    113 O         -5.0948  -18.7548  -55.8413 O.2       20 UNK        -0.5000 
    114 N         -4.8949  -20.9002  -55.1394 N.am      21 UNK        -0.5000 
    115 CA        -4.2703  -21.4779  -56.3282 C.3       21 UNK         0.1400 
    116 CB        -4.2304  -23.0057  -56.1713 C.3       21 UNK        -0.1800 
    117 C         -2.8608  -20.9221  -56.5943 C.2       21 UNK         0.5000 
    118 O         -2.4447  -20.8509  -57.7512 O.2       21 UNK        -0.5000 
    119 N         -2.1681  -20.5182  -55.5227 N.am      22 UNK        -0.5000 
    120 CA        -0.8762  -19.8218  -55.5726 C.3       22 UNK         0.1400 
    121 C         -0.9755  -18.2875  -55.8326 C.2       22 UNK         0.5000 
    122 N         -2.1596  -17.7015  -55.9764 N.am      22 UNK        -0.7600 
    123 O          0.0472  -17.6140  -55.9238 O.2       22 UNK        -0.5000 
    124 C124        0.0022  -20.1713  -54.3454 C.3       23 UNK        -0.0398 
    125 S125       -0.7087  -19.6895  -52.7306 S.3       23 UNK        -0.2404 
    126 C126        0.3169  -18.2410  -52.3221 C.3       23 UNK        -0.0205 
    127 H127        3.7425  -11.3205  -51.6059 H         1 UNK         0.0600 
    128 H128        5.3673  -11.6919  -51.0227 H         1 UNK         0.0600 
    129 H129        4.6684  -10.0948  -50.7346 H         1 UNK         0.0600 
    130 H130        2.1533  -12.2335  -50.3429 H         1 UNK         0.3000 
    131 H131        2.6455  -13.2988  -47.7342 H         1 UNK         0.0600 
    132 H132       -0.0619  -12.9313  -49.1214 H         1 UNK         0.0800 
    133 H133        1.0330  -14.2518  -49.4436 H         1 UNK         0.0800 
    134 H134       -1.6526  -15.1209  -48.8912 H         1 UNK         0.0800 
    135 H135       -1.7465  -16.1040  -47.4539 H         1 UNK         0.0800 
    136 H136       -0.9728  -16.3489  -50.8183 H         1 UNK         0.1150 
    137 H137        1.7623  -19.6333  -50.5090 H         1 UNK         0.1150 
    138 H138        0.6178  -17.4573  -47.0010 H         1 UNK         0.1150 
    139 H139        1.9687  -19.3838  -46.7339 H         1 UNK         0.0800 
    140 H140        3.1909  -19.3186  -47.9785 H         1 UNK         0.0800 
    141 H141       -0.3382  -21.5166  -48.8940 H         1 UNK         0.0800 
    142 H142       -0.3001  -20.6736  -47.3581 H         1 UNK         0.0800 
    143 H143        0.2500  -23.6517  -47.6993 H         1 UNK         0.0600 
    144 H144        0.5367  -21.9863  -45.3800 H         1 UNK         0.3000 
    145 H145        0.5651  -24.7045  -43.0461 H         1 UNK         0.0600 
    146 H146        2.8555  -24.5469  -43.9839 H         1 UNK         0.0600 
    147 H147        2.7247  -23.5763  -42.5250 H         1 UNK         0.0600 
    148 H148        2.7211  -22.7983  -44.1068 H         1 UNK         0.0600 
    149 H149        0.7779  -21.8074  -42.9073 H         1 UNK         0.3000 
    150 H150       -2.6616  -21.2668  -42.1012 H         1 UNK         0.0600 
    151 H151       -0.1734  -21.1687  -40.3105 H         1 UNK         0.0600 
    152 H152       -1.6550  -22.0461  -39.9477 H         1 UNK         0.0600 
    153 H153       -1.6814  -20.2927  -40.0448 H         1 UNK         0.0600 
    154 H154       -0.4432  -19.4915  -42.1353 H         1 UNK         0.3000 
    155 H155       -0.2382  -18.9309  -45.5938 H         1 UNK         0.0600 
    156 H156       -0.9476  -16.6051  -45.2114 H         1 UNK         0.0600 
    157 H157       -1.6709  -17.0369  -43.6601 H         1 UNK         0.0600 
    158 H158       -2.3492  -17.6557  -45.1615 H         1 UNK         0.0600 
    159 H159        0.8407  -17.3026  -43.6074 H         1 UNK         0.3000 
    160 H160        2.7194  -17.9498  -42.1673 H         1 UNK         0.0600 
    161 H161        4.5232  -19.9423  -43.6402 H         1 UNK         0.0600 
    162 H162        3.8557  -20.1103  -42.0280 H         1 UNK         0.0600 
    163 H163        5.0477  -18.8600  -42.3503 H         1 UNK         0.0600 
    164 H164        3.2467  -16.3654  -43.6041 H         1 UNK         0.3000 
    165 H165        5.4365  -15.9078  -45.9634 H         1 UNK         0.0600 
    166 H166        4.1265  -15.1605  -47.8923 H         1 UNK         0.0600 
    167 H167        4.1494  -16.9114  -47.8840 H         1 UNK         0.0600 
    168 H168        2.7114  -16.0549  -47.3438 H         1 UNK         0.0600 
    169 H169        2.8808  -14.5423  -45.4893 H         1 UNK         0.3000 
    170 H170        3.7246  -13.1885  -42.4276 H         1 UNK         0.0600 
    171 H171        3.5349  -10.9085  -43.4563 H         1 UNK         0.0600 
    172 H172        4.0139  -11.5741  -45.0180 H         1 UNK         0.0600 
    173 H173        5.1397  -11.5904  -43.6694 H         1 UNK         0.0600 
    174 H174        1.7569  -12.4529  -44.3777 H         1 UNK         0.3000 
    175 H175       -0.4973  -14.5633  -44.3133 H         1 UNK         0.0600 
    176 H176       -0.7810  -15.3828  -41.9538 H         1 UNK         0.0600 
    177 H177       -0.7825  -13.7209  -41.3768 H         1 UNK         0.0600 
    178 H178       -2.0855  -14.3073  -42.4083 H         1 UNK         0.0600 
    179 H179        0.1042  -11.8305  -43.5679 H         1 UNK         0.3000 
    180 H180       -2.7290  -10.5591  -45.4084 H         1 UNK         0.0600 
    181 H181       -1.0791   -9.8452  -42.9129 H         1 UNK         0.0600 
    182 H182       -2.8120  -10.1561  -42.9183 H         1 UNK         0.0600 
    183 H183       -2.1683   -8.7718  -43.7863 H         1 UNK         0.0600 
    184 H184        0.1120  -10.9205  -45.5836 H         1 UNK         0.3000 
    185 H185        0.5305   -8.4093  -48.0291 H         1 UNK         0.0600 
    186 H186        1.5661   -7.5510  -45.9534 H         1 UNK         0.0600 
    187 H187        2.1109   -9.1621  -45.5137 H         1 UNK         0.0600 
    188 H188        2.7627   -8.3698  -46.9460 H         1 UNK         0.0600 
    189 H189        1.1555  -10.3225  -48.8905 H         1 UNK         0.3000 
    190 H190       -2.1313  -22.2199  -45.4714 H         1 UNK         0.3000 
    191 H191       -4.4370  -22.9360  -47.0247 H         1 UNK         0.0600 
    192 H192       -4.5461  -21.2048  -45.2745 H         1 UNK         0.0600 
    193 H193       -5.6556  -22.5096  -44.8856 H         1 UNK         0.0600 
    194 H194       -4.1218  -22.3803  -44.0307 H         1 UNK         0.0600 
    195 H195       -2.5765  -24.6118  -44.4383 H         1 UNK         0.3000 
    196 H196       -4.2136  -26.9420  -44.3006 H         1 UNK         0.0600 
    197 H197       -2.2346  -27.9461  -43.1718 H         1 UNK         0.0600 
    198 H198       -2.5696  -26.3396  -42.5441 H         1 UNK         0.0600 
    199 H199       -1.2356  -26.5871  -43.6677 H         1 UNK         0.0600 
    200 H200       -1.4766  -26.0695  -46.3997 H         1 UNK         0.3000 
    201 H201       -1.4256  -28.5506  -47.8918 H         1 UNK         0.0600 
    202 H202        0.1553  -27.3050  -49.3272 H         1 UNK         0.0600 
    203 H203        0.5463  -27.0110  -47.6404 H         1 UNK         0.0600 
    204 H204       -0.3027  -25.7827  -48.5781 H         1 UNK         0.0600 
    205 H205       -3.7327  -26.1466  -47.8139 H         1 UNK         0.3000 
    206 H206       -5.5414  -25.6401  -48.8895 H         1 UNK         0.0600 
    207 H207       -5.7866  -28.0561  -49.4615 H         1 UNK         0.0600 
    208 H208       -6.4873  -27.0067  -50.6830 H         1 UNK         0.0600 
    209 H209       -4.9421  -27.7811  -50.9863 H         1 UNK         0.0600 
    210 H210       -2.5608  -25.1229  -50.2908 H         1 UNK         0.3000 
    211 H211       -3.1269  -24.0251  -52.8222 H         1 UNK         0.0600 
    212 H212       -0.8390  -23.4198  -50.8703 H         1 UNK         0.0600 
    213 H213       -0.8609  -22.9789  -52.5737 H         1 UNK         0.0600 
    214 H214       -0.8512  -24.6734  -52.1095 H         1 UNK         0.0600 
    215 H215       -2.8162  -22.3765  -49.6422 H         1 UNK         0.3000 
    216 H216       -3.5868  -19.7806  -50.8106 H         1 UNK         0.0600 
    217 H217       -3.3205  -18.9406  -48.4829 H         1 UNK         0.0600 
    218 H218       -1.8923  -19.7713  -49.0527 H         1 UNK         0.0600 
    219 H219       -2.9933  -20.5685  -47.9164 H         1 UNK         0.0600 
    220 H220       -5.2134  -22.4860  -49.3483 H         1 UNK         0.3000 
    221 H221       -7.5644  -21.0567  -48.4211 H         1 UNK         0.0600 
    222 H222       -7.1981  -24.0418  -49.0002 H         1 UNK         0.0600 
    223 H223       -6.8702  -23.2626  -47.4507 H         1 UNK         0.0600 
    224 H224       -8.5044  -23.3064  -48.0893 H         1 UNK         0.0600 
    225 H225       -6.7390  -23.0339  -51.3193 H         1 UNK         0.3000 
    226 H226       -9.2014  -22.3933  -52.7339 H         1 UNK         0.0600 
    227 H227       -7.9493  -24.5268  -53.0888 H         1 UNK         0.0600 
    228 H228       -6.5548  -23.6259  -53.6800 H         1 UNK         0.0600 
    229 H229       -8.0638  -23.6120  -54.5852 H         1 UNK         0.0600 
    230 H230       -6.1974  -20.8144  -52.2303 H         1 UNK         0.3000 
    231 H231       -5.1273  -19.0334  -52.9554 H         1 UNK         0.0600 
    232 H232       -7.6561  -18.1641  -54.4507 H         1 UNK         0.0600 
    233 H233       -6.2911  -17.1494  -54.0106 H         1 UNK         0.0600 
    234 H234       -7.3167  -17.8218  -52.7539 H         1 UNK         0.0600 
    235 H235       -4.9750  -21.5050  -54.3312 H         1 UNK         0.3000 
    236 H236       -4.8937  -21.2331  -57.1905 H         1 UNK         0.0600 
    237 H237       -3.6406  -23.3051  -55.3040 H         1 UNK         0.0600 
    238 H238       -5.2334  -23.4162  -56.0529 H         1 UNK         0.0600 
    239 H239       -3.7879  -23.4777  -57.0495 H         1 UNK         0.0600 
    240 H240       -2.5905  -20.6078  -54.6084 H         1 UNK         0.3000 
    241 H241       -0.3363  -20.2068  -56.4397 H         1 UNK         0.0600 
    242 H242       -2.1965  -16.7101  -56.1525 H         1 UNK         0.3800 
    243 H243       -3.0213  -18.2303  -55.9347 H         1 UNK         0.3800 
    244 H244        1.0001  -19.7470  -54.4630 H         1 UNK         0.0800 
    245 H245        0.1589  -21.2503  -54.3186 H         1 UNK         0.0800 
    246 H246        1.3332  -18.3767  -52.6939 H         1 UNK         0.0800 
    247 H247       -0.0822  -17.3623  -52.8312 H         1 UNK         0.0800 
@<TRIPOS>BOND
     1    1    2 1    
     2    1  127 1    
     3    1  128 1    
     4    1  129 1    
     5    2    3 2    
     6    2    4 am   BACKBONE|DICT|INTERRES
     7    4    5 1    
     8    4  130 1    
     9    5    6 1    
    10    5   65 1    
    11    5  131 1    
    12    6    7 1    
    13    6  132 1    
    14    6  133 1    
    15    7    8 1    
    16    8    9 1    
    17    8  134 1    
    18    8  135 1    
    19    9   10 ar   
    20    9   14 ar   
    21   10   11 ar   
    22   10  136 1    
    23   11   12 ar   
    24   11  126 1    
    25   12   13 ar   
    26   12  137 1    
    27   13   14 ar   
    28   13   15 1    
    29   14  138 1    
    30   15   16 1    
    31   15  139 1    
    32   15  140 1    
    33   16   17 1    
    34   17   18 1    
    35   17  141 1    
    36   17  142 1    
    37   18   19 1    
    38   18   67 1    
    39   18  143 1    
    40   19   20 am   BACKBONE|DICT|INTERRES
    41   19  144 1    
    42   20   21 2    
    43   20   22 1    
    44   22   23 1    
    45   22   24 1    
    46   22  145 1    
    47   23  146 1    
    48   23  147 1    
    49   23  148 1    
    50   24   25 am   BACKBONE|DICT|INTERRES
    51   24  149 1    
    52   25   26 2    
    53   25   27 1    
    54   27   28 1    
    55   27   29 1    
    56   27  150 1    
    57   28  151 1    
    58   28  152 1    
    59   28  153 1    
    60   29   30 am   BACKBONE|DICT|INTERRES
    61   29  154 1    
    62   30   31 2    
    63   30   32 1    
    64   32   33 1    
    65   32   34 1    
    66   32  155 1    
    67   33  156 1    
    68   33  157 1    
    69   33  158 1    
    70   34   35 am   BACKBONE|DICT|INTERRES
    71   34  159 1    
    72   35   36 2    
    73   35   37 1    
    74   37   38 1    
    75   37   39 1    
    76   37  160 1    
    77   38  161 1    
    78   38  162 1    
    79   38  163 1    
    80   39   40 am   BACKBONE|DICT|INTERRES
    81   39  164 1    
    82   40   41 2    
    83   40   42 1    
    84   42   43 1    
    85   42   44 1    
    86   42  165 1    
    87   43  166 1    
    88   43  167 1    
    89   43  168 1    
    90   44   45 am   BACKBONE|DICT|INTERRES
    91   44  169 1    
    92   45   46 2    
    93   45   47 1    
    94   47   48 1    
    95   47   49 1    
    96   47  170 1    
    97   48  171 1    
    98   48  172 1    
    99   48  173 1    
   100   49   50 am   BACKBONE|DICT|INTERRES
   101   49  174 1    
   102   50   51 2    
   103   50   52 1    
   104   52   53 1    
   105   52   54 1    
   106   52  175 1    
   107   53  176 1    
   108   53  177 1    
   109   53  178 1    
   110   54   55 am   BACKBONE|DICT|INTERRES
   111   54  179 1    
   112   55   56 2    
   113   55   57 1    
   114   57   58 1    
   115   57   59 1    
   116   57  180 1    
   117   58  181 1    
   118   58  182 1    
   119   58  183 1    
   120   59   60 am   BACKBONE|DICT|INTERRES
   121   59  184 1    
   122   60   61 2    
   123   60   62 1    
   124   62   63 1    
   125   62   64 1    
   126   62  185 1    
   127   63  186 1    
   128   63  187 1    
   129   63  188 1    
   130   64   65 am   BACKBONE|DICT|INTERRES
   131   64  189 1    
   132   65   66 2    
   133   67   68 2    
   134   67   69 am   BACKBONE|DICT|INTERRES
   135   69   70 1    
   136   69  190 1    
   137   70   71 1    
   138   70   72 1    
   139   70  191 1    
   140   71  192 1    
   141   71  193 1    
   142   71  194 1    
   143   72   73 2    
   144   72   74 am   BACKBONE|DICT|INTERRES
   145   74   75 1    
   146   74  195 1    
   147   75   76 1    
   148   75   77 1    
   149   75  196 1    
   150   76  197 1    
   151   76  198 1    
   152   76  199 1    
   153   77   78 2    
   154   77   79 am   BACKBONE|DICT|INTERRES
   155   79   80 1    
   156   79  200 1    
   157   80   81 1    
   158   80   82 1    
   159   80  201 1    
   160   81  202 1    
   161   81  203 1    
   162   81  204 1    
   163   82   83 2    
   164   82   84 am   BACKBONE|DICT|INTERRES
   165   84   85 1    
   166   84  205 1    
   167   85   86 1    
   168   85   87 1    
   169   85  206 1    
   170   86  207 1    
   171   86  208 1    
   172   86  209 1    
   173   87   88 2    
   174   87   89 am   BACKBONE|DICT|INTERRES
   175   89   90 1    
   176   89  210 1    
   177   90   91 1    
   178   90   92 1    
   179   90  211 1    
   180   91  212 1    
   181   91  213 1    
   182   91  214 1    
   183   92   93 2    
   184   92   94 am   BACKBONE|DICT|INTERRES
   185   94   95 1    
   186   94  215 1    
   187   95   96 1    
   188   95   97 1    
   189   95  216 1    
   190   96  217 1    
   191   96  218 1    
   192   96  219 1    
   193   97   98 2    
   194   97   99 am   BACKBONE|DICT|INTERRES
   195   99  100 1    
   196   99  220 1    
   197  100  101 1    
   198  100  102 1    
   199  100  221 1    
   200  101  222 1    
   201  101  223 1    
   202  101  224 1    
   203  102  103 2    
   204  102  104 am   BACKBONE|DICT|INTERRES
   205  104  105 1    
   206  104  225 1    
   207  105  106 1    
   208  105  107 1    
   209  105  226 1    
   210  106  227 1    
   211  106  228 1    
   212  106  229 1    
   213  107  108 2    
   214  107  109 am   BACKBONE|DICT|INTERRES
   215  109  110 1    
   216  109  230 1    
   217  110  111 1    
   218  110  112 1    
   219  110  231 1    
   220  111  232 1    
   221  111  233 1    
   222  111  234 1    
   223  112  113 2    
   224  112  114 am   BACKBONE|DICT|INTERRES
   225  114  115 1    
   226  114  235 1    
   227  115  116 1    
   228  115  117 1    
   229  115  236 1    
   230  116  237 1    
   231  116  238 1    
   232  116  239 1    
   233  117  118 2    
   234  117  119 am   BACKBONE|DICT|INTERRES
   235  119  120 1    
   236  119  240 1    
   237  120  121 1    
   238  120  124 1    
   239  120  241 1    
   240  121  122 am   BACKBONE|DICT|INTERRES
   241  121  123 2    
   242  122  242 1    
   243  122  243 1    
   244  124  125 1    
   245  124  244 1    
   246  124  245 1    
   247  125  126 1    
   248  126  246 1    
   249  126  247 1    
@<TRIPOS>SUBSTRUCTURE
     1 UNK         1 GROUP             0       ****    0 ROOT    
