@<TRIPOS>MOLECULE
3R540
247   249    1
SMALL
USER_CHARGES


@<TRIPOS>ATOM
      1 CA          3.4315  -14.0422  -45.0063 C.3       0 UNK        -0.1800 
      2 C           3.1109  -15.4353  -44.4844 C.2       0 UNK         0.5000 
      3 O           3.9927  -16.1049  -43.9471 O.2       0 UNK        -0.5000 
      4 N           1.8580  -15.8694  -44.6421 N.am      1 UNK        -0.5000 
      5 CA          1.3613  -17.1892  -44.2633 C.3       1 UNK         0.1400 
      6 C6          1.2503  -18.1013  -45.5011 C.3       23 UNK        -0.0398 
      7 S7          1.1613  -19.8870  -45.1355 S.3       23 UNK        -0.2404 
      8 C8         -0.3983  -20.3622  -45.9530 C.3       23 UNK        -0.0205 
      9 C9         -0.2372  -20.7845  -47.4131 C.ar      23 UNK        -0.0193 
     10 C10         0.3546  -19.9270  -48.3449 C.ar      23 UNK        -0.1150 
     11 C11         0.4749  -20.2947  -49.6860 C.ar      23 UNK        -0.0193 
     12 C12        -0.0247  -21.5269  -50.1068 C.ar      23 UNK        -0.1150 
     13 C13        -0.6341  -22.3924  -49.1984 C.ar      23 UNK        -0.0193 
     14 C14        -0.7385  -22.0167  -47.8527 C.ar      23 UNK        -0.1150 
     15 C15        -1.1940  -23.7178  -49.6944 C.3       23 UNK        -0.0205 
     16 S16         0.1169  -24.9550  -49.9654 S.3       23 UNK        -0.2404 
     17 C17         0.6048  -25.2985  -48.2429 C.3       23 UNK        -0.0398 
     18 CA          2.0854  -24.9864  -47.8931 C.3       11 UNK         0.1400 
     19 N           2.5981  -23.7550  -48.5126 N.am      11 UNK        -0.5000 
     20 C           3.9041  -23.5227  -48.7154 C.2       10 UNK         0.5000 
     21 O           4.8024  -24.2382  -48.2715 O.2       10 UNK        -0.5000 
     22 CA          4.2723  -22.2872  -49.5480 C.3       10 UNK         0.1400 
     23 CB          3.6247  -22.3066  -50.9462 C.3       10 UNK        -0.1800 
     24 N           3.9101  -21.0825  -48.8117 N.am      10 UNK        -0.5000 
     25 C           4.4789  -19.8824  -48.9704 C.2       9 UNK         0.5000 
     26 O           5.3354  -19.6197  -49.8180 O.2       9 UNK        -0.5000 
     27 CA          4.0279  -18.8073  -47.9766 C.3       9 UNK         0.1400 
     28 CB          4.8670  -18.8781  -46.6898 C.3       9 UNK        -0.1800 
     29 N           4.1464  -17.4660  -48.5492 N.am      9 UNK        -0.5000 
     30 C           3.1292  -16.6086  -48.6927 C.2       8 UNK         0.5000 
     31 O           1.9642  -16.8672  -48.3851 O.2       8 UNK        -0.5000 
     32 CA          3.4541  -15.2293  -49.2821 C.3       8 UNK         0.1400 
     33 CB          3.7285  -15.3220  -50.7916 C.3       8 UNK        -0.1800 
     34 N           2.2957  -14.3687  -49.0643 N.am      8 UNK        -0.5000 
     35 C           2.3055  -13.1386  -48.5464 C.2       7 UNK         0.5000 
     36 O           3.3355  -12.5191  -48.2780 O.2       7 UNK        -0.5000 
     37 CA          0.9358  -12.4782  -48.2851 C.3       7 UNK         0.1400 
     38 CB          0.6827  -11.3539  -49.3022 C.3       7 UNK        -0.1800 
     39 N          -0.1990  -13.4086  -48.3279 N.am      7 UNK        -0.5000 
     40 C          -0.5483  -14.2367  -47.3353 C.2       6 UNK         0.5000 
     41 O           0.0906  -14.3584  -46.2867 O.2       6 UNK        -0.5000 
     42 CA         -1.8278  -15.0640  -47.5588 C.3       6 UNK         0.1400 
     43 CB         -1.5273  -16.3673  -48.3148 C.3       6 UNK        -0.1800 
     44 N          -2.4556  -15.3823  -46.2773 N.am      6 UNK        -0.5000 
     45 C          -3.3278  -14.5858  -45.6437 C.2       5 UNK         0.5000 
     46 O          -3.7707  -13.5414  -46.1256 O.2       5 UNK        -0.5000 
     47 CA         -3.7600  -15.0299  -44.2301 C.3       5 UNK         0.1400 
     48 CB         -5.0460  -14.3408  -43.7277 C.3       5 UNK        -0.1800 
     49 N          -3.8376  -16.4879  -44.1033 N.am      5 UNK        -0.5000 
     50 C          -4.7077  -17.3241  -44.6885 C.2       4 UNK         0.5000 
     51 O          -5.6822  -16.9582  -45.3457 O.2       4 UNK        -0.5000 
     52 CA         -4.4217  -18.8318  -44.5515 C.3       4 UNK         0.1400 
     53 CB         -3.9451  -19.3830  -45.9032 C.3       4 UNK        -0.1800 
     54 N          -3.4032  -19.1113  -43.5322 N.am      4 UNK        -0.5000 
     55 C          -3.6628  -19.6432  -42.3284 C.2       3 UNK         0.5000 
     56 O          -4.7787  -20.0125  -41.9635 O.2       3 UNK        -0.5000 
     57 CA         -2.4853  -19.7377  -41.3363 C.3       3 UNK         0.1400 
     58 CB         -1.6495  -21.0016  -41.5886 C.3       3 UNK        -0.1800 
     59 N          -1.6078  -18.5687  -41.3783 N.am      3 UNK        -0.5000 
     60 C          -1.9763  -17.3126  -41.0894 C.2       2 UNK         0.5000 
     61 O          -3.0893  -17.0083  -40.6614 O.2       2 UNK        -0.5000 
     62 CA         -0.9427  -16.1974  -41.3476 C.3       2 UNK         0.1400 
     63 CB         -0.3390  -15.7103  -40.0215 C.3       2 UNK        -0.1800 
     64 N           0.1506  -16.5579  -42.2569 N.am      2 UNK        -0.5000 
     65 C           0.0345  -16.9752  -43.5252 C.2       1 UNK         0.5000 
     66 O          -1.0438  -17.1535  -44.0984 O.2       1 UNK        -0.5000 
     67 C           2.2273  -24.9879  -46.3582 C.2       11 UNK         0.5000 
     68 O           2.4054  -26.0563  -45.7727 O.2       11 UNK        -0.5000 
     69 N           2.0625  -23.8038  -45.7431 N.am      12 UNK        -0.5000 
     70 CA          1.8491  -23.5860  -44.3030 C.3       12 UNK         0.1400 
     71 CB          3.0943  -23.9821  -43.4826 C.3       12 UNK        -0.1800 
     72 C           0.5430  -24.2445  -43.7954 C.2       12 UNK         0.5000 
     73 O           0.4855  -24.7257  -42.6625 O.2       12 UNK        -0.5000 
     74 N          -0.4758  -24.2661  -44.6647 N.am      13 UNK        -0.5000 
     75 CA         -1.7880  -24.8676  -44.4366 C.3       13 UNK         0.1400 
     76 CB         -2.2109  -25.6038  -45.7193 C.3       13 UNK        -0.1800 
     77 C          -2.8289  -23.7970  -44.0715 C.2       13 UNK         0.5000 
     78 O          -2.5920  -22.6052  -44.2675 O.2       13 UNK        -0.5000 
     79 N          -3.9876  -24.2503  -43.5791 N.am      14 UNK        -0.5000 
     80 CA         -5.1090  -23.4124  -43.1410 C.3       14 UNK         0.1400 
     81 CB         -6.0691  -24.2832  -42.3138 C.3       14 UNK        -0.1800 
     82 C          -5.8714  -22.6909  -44.2760 C.2       14 UNK         0.5000 
     83 O          -6.7535  -21.8819  -43.9853 O.2       14 UNK        -0.5000 
     84 N          -5.5502  -22.9958  -45.5378 N.am      15 UNK        -0.5000 
     85 CA         -6.1197  -22.3731  -46.7254 C.3       15 UNK         0.1400 
     86 CB         -7.3499  -23.1704  -47.1898 C.3       15 UNK        -0.1800 
     87 C          -5.0486  -22.3208  -47.8217 C.2       15 UNK         0.5000 
     88 O          -4.1718  -23.1868  -47.8596 O.2       15 UNK        -0.5000 
     89 N          -5.1594  -21.3127  -48.6933 N.am      16 UNK        -0.5000 
     90 CA         -4.2558  -21.0594  -49.8193 C.3       16 UNK         0.1400 
     91 CB         -3.3104  -19.9020  -49.4501 C.3       16 UNK        -0.1800 
     92 C          -5.0376  -20.7521  -51.1112 C.2       16 UNK         0.5000 
     93 O          -4.4689  -20.1731  -52.0381 O.2       16 UNK        -0.5000 
     94 N          -6.3369  -21.0939  -51.1395 N.am      17 UNK        -0.5000 
     95 CA         -7.2952  -20.8217  -52.2202 C.3       17 UNK         0.1400 
     96 CB         -6.9506  -21.6618  -53.4690 C.3       17 UNK        -0.1800 
     97 C          -7.4176  -19.3124  -52.5248 C.2       17 UNK         0.5000 
     98 O          -7.3250  -18.9041  -53.6811 O.2       17 UNK        -0.5000 
     99 N          -7.5529  -18.5017  -51.4628 N.am      18 UNK        -0.5000 
    100 CA        -7.5322  -17.0296  -51.4784 C.3       18 UNK         0.1400 
    101 CB        -8.7682  -16.4656  -52.2109 C.3       18 UNK        -0.1800 
    102 C         -6.1972  -16.4590  -52.0128 C.2       18 UNK         0.5000 
    103 O         -6.1843  -15.4397  -52.7042 O.2       18 UNK        -0.5000 
    104 N         -5.1033  -17.1616  -51.6848 N.am      19 UNK        -0.5000 
    105 CA        -3.7147  -16.9455  -52.1018 C.3       19 UNK         0.1400 
    106 CB        -3.2003  -15.5533  -51.6813 C.3       19 UNK        -0.1800 
    107 C         -3.4405  -17.2638  -53.5876 C.2       19 UNK         0.5000 
    108 O         -2.3547  -16.9487  -54.0755 O.2       19 UNK        -0.5000 
    109 N         -4.3795  -17.9262  -54.2830 N.am      20 UNK        -0.5000 
    110 CA        -4.1920  -18.4012  -55.6577 C.3       20 UNK         0.1400 
    111 CB        -5.5390  -18.8163  -56.2649 C.3       20 UNK        -0.1800 
    112 C         -3.1798  -19.5580  -55.7539 C.2       20 UNK         0.5000 
    113 O         -2.5245  -19.6995  -56.7874 O.2       20 UNK        -0.5000 
    114 N         -3.0267  -20.3337  -54.6686 N.am      21 UNK        -0.5000 
    115 CA        -2.0117  -21.3834  -54.5373 C.3       21 UNK         0.1400 
    116 CB        -2.3113  -22.2211  -53.2845 C.3       21 UNK        -0.1800 
    117 C         -0.5722  -20.8323  -54.4747 C.2       21 UNK         0.5000 
    118 O          0.3730  -21.5819  -54.7215 O.2       21 UNK        -0.5000 
    119 N         -0.4329  -19.5424  -54.1457 N.am      22 UNK        -0.5000 
    120 CA         0.8434  -18.8263  -54.0217 C.3       22 UNK         0.1400 
    121 C          1.3944  -18.2738  -55.3686 C.2       22 UNK         0.5000 
    122 N          0.6891  -18.4065  -56.4865 N.am      22 UNK        -0.7600 
    123 O          2.4915  -17.7235  -55.4033 O.2       22 UNK        -0.5000 
    124 C124        0.7843  -17.7135  -52.9373 C.3       23 UNK        -0.0398 
    125 S125       -0.0663  -18.2103  -51.3977 S.3       23 UNK        -0.2404 
    126 C126        1.1378  -19.3670  -50.6874 C.3       23 UNK        -0.0205 
    127 H127        4.1202  -14.1074  -45.8486 H         1 UNK         0.0600 
    128 H128        3.9006  -13.4450  -44.2246 H         1 UNK         0.0600 
    129 H129        2.5355  -13.5184  -45.3398 H         1 UNK         0.0600 
    130 H130        1.1778  -15.2728  -45.1133 H         1 UNK         0.3000 
    131 H131        2.0511  -17.6586  -43.5586 H         1 UNK         0.0600 
    132 H132        0.4300  -17.7867  -46.1422 H         1 UNK         0.0800 
    133 H133        2.1511  -17.9592  -46.0862 H         1 UNK         0.0800 
    134 H134       -0.8355  -21.1746  -45.3759 H         1 UNK         0.0800 
    135 H135       -1.1008  -19.5351  -45.8893 H         1 UNK         0.0800 
    136 H136        0.7101  -18.9599  -48.0356 H         1 UNK         0.1150 
    137 H137        0.0539  -21.8105  -51.1472 H         1 UNK         0.1150 
    138 H138       -1.2435  -22.6692  -47.1554 H         1 UNK         0.1150 
    139 H139       -1.9341  -24.1124  -48.9972 H         1 UNK         0.0800 
    140 H140       -1.7240  -23.5572  -50.6336 H         1 UNK         0.0800 
    141 H141       -0.0718  -24.7548  -47.5853 H         1 UNK         0.0800 
    142 H142        0.4005  -26.3531  -48.0491 H         1 UNK         0.0800 
    143 H143        2.6842  -25.8170  -48.2741 H         1 UNK         0.0600 
    144 H144        1.9106  -23.1501  -48.9397 H         1 UNK         0.3000 
    145 H145        5.3569  -22.3010  -49.6782 H         1 UNK         0.0600 
    146 H146        3.9574  -21.4614  -51.5487 H         1 UNK         0.0600 
    147 H147        2.5380  -22.2704  -50.8961 H         1 UNK         0.0600 
    148 H148        3.8954  -23.2146  -51.4860 H         1 UNK         0.0600 
    149 H149        3.2407  -21.2124  -48.0669 H         1 UNK         0.3000 
    150 H150        2.9921  -19.0328  -47.7340 H         1 UNK         0.0600 
    151 H151        5.9270  -18.7200  -46.8920 H         1 UNK         0.0600 
    152 H152        4.5512  -18.1246  -45.9682 H         1 UNK         0.0600 
    153 H153        4.7645  -19.8507  -46.2067 H         1 UNK         0.0600 
    154 H154        5.0620  -17.2222  -48.9009 H         1 UNK         0.3000 
    155 H155        4.3332  -14.8357  -48.7678 H         1 UNK         0.0600 
    156 H156        4.5797  -15.9707  -51.0014 H         1 UNK         0.0600 
    157 H157        3.9571  -14.3411  -51.2087 H         1 UNK         0.0600 
    158 H158        2.8684  -15.7204  -51.3299 H         1 UNK         0.0600 
    159 H159        1.4077  -14.8450  -49.1502 H         1 UNK         0.3000 
    160 H160        0.9791  -12.0306  -47.2897 H         1 UNK         0.0600 
    161 H161        0.6230  -11.7392  -50.3209 H         1 UNK         0.0600 
    162 H162        1.4847  -10.6149  -49.2777 H         1 UNK         0.0600 
    163 H163       -0.2471  -10.8275  -49.0859 H         1 UNK         0.0600 
    164 H164       -0.7691  -13.3739  -49.1607 H         1 UNK         0.3000 
    165 H165       -2.5202  -14.4764  -48.1655 H         1 UNK         0.0600 
    166 H166       -2.4385  -16.9356  -48.5009 H         1 UNK         0.0600 
    167 H167       -1.0703  -16.1626  -49.2835 H         1 UNK         0.0600 
    168 H168       -0.8426  -17.0094  -47.7657 H         1 UNK         0.0600 
    169 H169       -2.0710  -16.1681  -45.7680 H         1 UNK         0.3000 
    170 H170       -2.9516  -14.7178  -43.5688 H         1 UNK         0.0600 
    171 H171       -4.9080  -13.2610  -43.6625 H         1 UNK         0.0600 
    172 H172       -5.8918  -14.5190  -44.3918 H         1 UNK         0.0600 
    173 H173       -5.3184  -14.6930  -42.7328 H         1 UNK         0.0600 
    174 H174       -3.0364  -16.9108  -43.6533 H         1 UNK         0.3000 
    175 H175       -5.3617  -19.3263  -44.2981 H         1 UNK         0.0600 
    176 H176       -3.1325  -18.7870  -46.3179 H         1 UNK         0.0600 
    177 H177       -3.6088  -20.4169  -45.8210 H         1 UNK         0.0600 
    178 H178       -4.7557  -19.3568  -46.6309 H         1 UNK         0.0600 
    179 H179       -2.4577  -18.8173  -43.7412 H         1 UNK         0.3000 
    180 H180       -2.9047  -19.8026  -40.3301 H         1 UNK         0.0600 
    181 H181       -2.2728  -21.8955  -41.5475 H         1 UNK         0.0600 
    182 H182       -0.8690  -21.1170  -40.8365 H         1 UNK         0.0600 
    183 H183       -1.1705  -20.9795  -42.5685 H         1 UNK         0.0600 
    184 H184       -0.6679  -18.7210  -41.7118 H         1 UNK         0.3000 
    185 H185       -1.4796  -15.3627  -41.8007 H         1 UNK         0.0600 
    186 H186       -1.1192  -15.3981  -39.3259 H         1 UNK         0.0600 
    187 H187        0.2417  -16.4939  -39.5331 H         1 UNK         0.0600 
    188 H188        0.3159  -14.8526  -40.1764 H         1 UNK         0.0600 
    189 H189        1.0823  -16.4231  -41.8905 H         1 UNK         0.3000 
    190 H190        1.9477  -22.9878  -46.3261 H         1 UNK         0.3000 
    191 H191        1.7095  -22.5146  -44.1698 H         1 UNK         0.0600 
    192 H192        2.9904  -23.6692  -42.4431 H         1 UNK         0.0600 
    193 H193        3.9923  -23.5054  -43.8757 H         1 UNK         0.0600 
    194 H194        3.2583  -25.0597  -43.4819 H         1 UNK         0.0600 
    195 H195       -0.3643  -23.7710  -45.5338 H         1 UNK         0.3000 
    196 H196       -1.7325  -25.5899  -43.6195 H         1 UNK         0.0600 
    197 H197       -2.3386  -24.9174  -46.5572 H         1 UNK         0.0600 
    198 H198       -1.4709  -26.3511  -46.0063 H         1 UNK         0.0600 
    199 H199       -3.1574  -26.1275  -45.5815 H         1 UNK         0.0600 
    200 H200       -4.1144  -25.2465  -43.4730 H         1 UNK         0.3000 
    201 H201       -4.7081  -22.6383  -42.4851 H         1 UNK         0.0600 
    202 H202       -6.8940  -23.6904  -41.9164 H         1 UNK         0.0600 
    203 H203       -5.5594  -24.7348  -41.4625 H         1 UNK         0.0600 
    204 H204       -6.5007  -25.0855  -42.9136 H         1 UNK         0.0600 
    205 H205       -4.7766  -23.6218  -45.7182 H         1 UNK         0.3000 
    206 H206       -6.4197  -21.3491  -46.4923 H         1 UNK         0.0600 
    207 H207       -8.1191  -23.1931  -46.4176 H         1 UNK         0.0600 
    208 H208       -7.7965  -22.7235  -48.0786 H         1 UNK         0.0600 
    209 H209       -7.0904  -24.2015  -47.4335 H         1 UNK         0.0600 
    210 H210       -5.9042  -20.6422  -48.5680 H         1 UNK         0.3000 
    211 H211       -3.6542  -21.9457  -50.0274 H         1 UNK         0.0600 
    212 H212       -2.7774  -20.1113  -48.5246 H         1 UNK         0.0600 
    213 H213       -3.8498  -18.9644  -49.3154 H         1 UNK         0.0600 
    214 H214       -2.5570  -19.7457  -50.2229 H         1 UNK         0.0600 
    215 H215       -6.7074  -21.5959  -50.3460 H         1 UNK         0.3000 
    216 H216       -8.2748  -21.1440  -51.8643 H         1 UNK         0.0600 
    217 H217       -6.9088  -22.7240  -53.2285 H         1 UNK         0.0600 
    218 H218       -5.9889  -21.3798  -53.8985 H         1 UNK         0.0600 
    219 H219       -7.7049  -21.5350  -54.2463 H         1 UNK         0.0600 
    220 H220       -7.6251  -18.9277  -50.5500 H         1 UNK         0.3000 
    221 H221       -7.5980  -16.7117  -50.4369 H         1 UNK         0.0600 
    222 H222       -8.8292  -15.3828  -52.0962 H         1 UNK         0.0600 
    223 H223       -8.7407  -16.6781  -53.2799 H         1 UNK         0.0600 
    224 H224       -9.6902  -16.8855  -51.8089 H         1 UNK         0.0600 
    225 H225       -5.2512  -18.0150  -51.1671 H         1 UNK         0.3000 
    226 H226       -3.1317  -17.6780  -51.5430 H         1 UNK         0.0600 
    227 H227       -3.4068  -15.3573  -50.6293 H         1 UNK         0.0600 
    228 H228       -2.1204  -15.4815  -51.8170 H         1 UNK         0.0600 
    229 H229       -3.6554  -14.7565  -52.2696 H         1 UNK         0.0600 
    230 H230       -5.2486  -18.1798  -53.8287 H         1 UNK         0.3000 
    231 H231       -3.8013  -17.5701  -56.2486 H         1 UNK         0.0600 
    232 H232       -5.4300  -19.0542  -57.3236 H         1 UNK         0.0600 
    233 H233       -6.2747  -18.0158  -56.1848 H         1 UNK         0.0600 
    234 H234       -5.9461  -19.7008  -55.7747 H         1 UNK         0.0600 
    235 H235       -3.5961  -20.1518  -53.8467 H         1 UNK         0.3000 
    236 H236       -2.0808  -22.0343  -55.4111 H         1 UNK         0.0600 
    237 H237       -2.2096  -21.6277  -52.3751 H         1 UNK         0.0600 
    238 H238       -3.3222  -22.6282  -53.3108 H         1 UNK         0.0600 
    239 H239       -1.6222  -23.0626  -53.2037 H         1 UNK         0.0600 
    240 H240       -1.2600  -18.9870  -53.9750 H         1 UNK         0.3000 
    241 H241        1.5922  -19.5492  -53.6961 H         1 UNK         0.0600 
    242 H242       -0.2137  -18.8585  -56.4751 H         1 UNK         0.3800 
    243 H243        1.0597  -18.0489  -57.3529 H         1 UNK         0.3800 
    244 H244        0.2604  -16.8378  -53.3240 H         1 UNK         0.0800 
    245 H245        1.7912  -17.3771  -52.6874 H         1 UNK         0.0800 
    246 H246        1.9421  -18.8056  -50.2170 H         1 UNK         0.0800 
    247 H247        1.6025  -19.9615  -51.4729 H         1 UNK         0.0800 
@<TRIPOS>BOND
     1    1    2 1    
     2    1  127 1    
     3    1  128 1    
     4    1  129 1    
     5    2    3 2    
     6    2    4 am   BACKBONE|DICT|INTERRES
     7    4    5 1    
     8    4  130 1    
     9    5    6 1    
    10    5   65 1    
    11    5  131 1    
    12    6    7 1    
    13    6  132 1    
    14    6  133 1    
    15    7    8 1    
    16    8    9 1    
    17    8  134 1    
    18    8  135 1    
    19    9   10 ar   
    20    9   14 ar   
    21   10   11 ar   
    22   10  136 1    
    23   11   12 ar   
    24   11  126 1    
    25   12   13 ar   
    26   12  137 1    
    27   13   14 ar   
    28   13   15 1    
    29   14  138 1    
    30   15   16 1    
    31   15  139 1    
    32   15  140 1    
    33   16   17 1    
    34   17   18 1    
    35   17  141 1    
    36   17  142 1    
    37   18   19 1    
    38   18   67 1    
    39   18  143 1    
    40   19   20 am   BACKBONE|DICT|INTERRES
    41   19  144 1    
    42   20   21 2    
    43   20   22 1    
    44   22   23 1    
    45   22   24 1    
    46   22  145 1    
    47   23  146 1    
    48   23  147 1    
    49   23  148 1    
    50   24   25 am   BACKBONE|DICT|INTERRES
    51   24  149 1    
    52   25   26 2    
    53   25   27 1    
    54   27   28 1    
    55   27   29 1    
    56   27  150 1    
    57   28  151 1    
    58   28  152 1    
    59   28  153 1    
    60   29   30 am   BACKBONE|DICT|INTERRES
    61   29  154 1    
    62   30   31 2    
    63   30   32 1    
    64   32   33 1    
    65   32   34 1    
    66   32  155 1    
    67   33  156 1    
    68   33  157 1    
    69   33  158 1    
    70   34   35 am   BACKBONE|DICT|INTERRES
    71   34  159 1    
    72   35   36 2    
    73   35   37 1    
    74   37   38 1    
    75   37   39 1    
    76   37  160 1    
    77   38  161 1    
    78   38  162 1    
    79   38  163 1    
    80   39   40 am   BACKBONE|DICT|INTERRES
    81   39  164 1    
    82   40   41 2    
    83   40   42 1    
    84   42   43 1    
    85   42   44 1    
    86   42  165 1    
    87   43  166 1    
    88   43  167 1    
    89   43  168 1    
    90   44   45 am   BACKBONE|DICT|INTERRES
    91   44  169 1    
    92   45   46 2    
    93   45   47 1    
    94   47   48 1    
    95   47   49 1    
    96   47  170 1    
    97   48  171 1    
    98   48  172 1    
    99   48  173 1    
   100   49   50 am   BACKBONE|DICT|INTERRES
   101   49  174 1    
   102   50   51 2    
   103   50   52 1    
   104   52   53 1    
   105   52   54 1    
   106   52  175 1    
   107   53  176 1    
   108   53  177 1    
   109   53  178 1    
   110   54   55 am   BACKBONE|DICT|INTERRES
   111   54  179 1    
   112   55   56 2    
   113   55   57 1    
   114   57   58 1    
   115   57   59 1    
   116   57  180 1    
   117   58  181 1    
   118   58  182 1    
   119   58  183 1    
   120   59   60 am   BACKBONE|DICT|INTERRES
   121   59  184 1    
   122   60   61 2    
   123   60   62 1    
   124   62   63 1    
   125   62   64 1    
   126   62  185 1    
   127   63  186 1    
   128   63  187 1    
   129   63  188 1    
   130   64   65 am   BACKBONE|DICT|INTERRES
   131   64  189 1    
   132   65   66 2    
   133   67   68 2    
   134   67   69 am   BACKBONE|DICT|INTERRES
   135   69   70 1    
   136   69  190 1    
   137   70   71 1    
   138   70   72 1    
   139   70  191 1    
   140   71  192 1    
   141   71  193 1    
   142   71  194 1    
   143   72   73 2    
   144   72   74 am   BACKBONE|DICT|INTERRES
   145   74   75 1    
   146   74  195 1    
   147   75   76 1    
   148   75   77 1    
   149   75  196 1    
   150   76  197 1    
   151   76  198 1    
   152   76  199 1    
   153   77   78 2    
   154   77   79 am   BACKBONE|DICT|INTERRES
   155   79   80 1    
   156   79  200 1    
   157   80   81 1    
   158   80   82 1    
   159   80  201 1    
   160   81  202 1    
   161   81  203 1    
   162   81  204 1    
   163   82   83 2    
   164   82   84 am   BACKBONE|DICT|INTERRES
   165   84   85 1    
   166   84  205 1    
   167   85   86 1    
   168   85   87 1    
   169   85  206 1    
   170   86  207 1    
   171   86  208 1    
   172   86  209 1    
   173   87   88 2    
   174   87   89 am   BACKBONE|DICT|INTERRES
   175   89   90 1    
   176   89  210 1    
   177   90   91 1    
   178   90   92 1    
   179   90  211 1    
   180   91  212 1    
   181   91  213 1    
   182   91  214 1    
   183   92   93 2    
   184   92   94 am   BACKBONE|DICT|INTERRES
   185   94   95 1    
   186   94  215 1    
   187   95   96 1    
   188   95   97 1    
   189   95  216 1    
   190   96  217 1    
   191   96  218 1    
   192   96  219 1    
   193   97   98 2    
   194   97   99 am   BACKBONE|DICT|INTERRES
   195   99  100 1    
   196   99  220 1    
   197  100  101 1    
   198  100  102 1    
   199  100  221 1    
   200  101  222 1    
   201  101  223 1    
   202  101  224 1    
   203  102  103 2    
   204  102  104 am   BACKBONE|DICT|INTERRES
   205  104  105 1    
   206  104  225 1    
   207  105  106 1    
   208  105  107 1    
   209  105  226 1    
   210  106  227 1    
   211  106  228 1    
   212  106  229 1    
   213  107  108 2    
   214  107  109 am   BACKBONE|DICT|INTERRES
   215  109  110 1    
   216  109  230 1    
   217  110  111 1    
   218  110  112 1    
   219  110  231 1    
   220  111  232 1    
   221  111  233 1    
   222  111  234 1    
   223  112  113 2    
   224  112  114 am   BACKBONE|DICT|INTERRES
   225  114  115 1    
   226  114  235 1    
   227  115  116 1    
   228  115  117 1    
   229  115  236 1    
   230  116  237 1    
   231  116  238 1    
   232  116  239 1    
   233  117  118 2    
   234  117  119 am   BACKBONE|DICT|INTERRES
   235  119  120 1    
   236  119  240 1    
   237  120  121 1    
   238  120  124 1    
   239  120  241 1    
   240  121  122 am   BACKBONE|DICT|INTERRES
   241  121  123 2    
   242  122  242 1    
   243  122  243 1    
   244  124  125 1    
   245  124  244 1    
   246  124  245 1    
   247  125  126 1    
   248  126  246 1    
   249  126  247 1    
@<TRIPOS>SUBSTRUCTURE
     1 UNK         1 GROUP             0       ****    0 ROOT    
