@<TRIPOS>MOLECULE
3R540
247   249    1
SMALL
USER_CHARGES


@<TRIPOS>ATOM
      1 CA          4.0750  -10.3431  -48.4316 C.3       0 UNK        -0.1800 
      2 C           3.4809  -11.4185  -47.5349 C.2       0 UNK         0.5000 
      3 O           3.2680  -11.1789  -46.3465 O.2       0 UNK        -0.5000 
      4 N           3.1903  -12.5996  -48.0956 N.am      1 UNK        -0.5000 
      5 CA          2.6522  -13.7576  -47.3673 C.3       1 UNK         0.1400 
      6 C6          2.6661  -15.0515  -48.2166 C.3       23 UNK        -0.0398 
      7 S7          4.3702  -15.5258  -48.6632 S.3       23 UNK        -0.2404 
      8 C8          4.3308  -15.4367  -50.4880 C.3       23 UNK        -0.0205 
      9 C9          3.7449  -16.6554  -51.2062 C.ar      23 UNK        -0.0193 
     10 C10         3.4347  -16.5387  -52.5648 C.ar      23 UNK        -0.1150 
     11 C11         2.9717  -17.6381  -53.2924 C.ar      23 UNK        -0.0193 
     12 C12         2.7957  -18.8649  -52.6458 C.ar      23 UNK        -0.1150 
     13 C13         3.0813  -19.0021  -51.2857 C.ar      23 UNK        -0.0193 
     14 C14         3.5690  -17.8964  -50.5785 C.ar      23 UNK        -0.1150 
     15 C15         2.9428  -20.3667  -50.6148 C.3       23 UNK        -0.0205 
     16 S16         2.2246  -20.2844  -48.9402 S.3       23 UNK        -0.2404 
     17 C17         0.4609  -20.6880  -49.1925 C.3       23 UNK        -0.0398 
     18 CA          0.0617  -21.9410  -48.3728 C.3       11 UNK         0.1400 
     19 N           0.2325  -21.7557  -46.9258 N.am      11 UNK        -0.5000 
     20 C           0.1547  -22.7387  -46.0171 C.2       10 UNK         0.5000 
     21 O          -0.0329  -23.9209  -46.3042 O.2       10 UNK        -0.5000 
     22 CA          0.2472  -22.3304  -44.5356 C.3       10 UNK         0.1400 
     23 CB          1.7064  -22.1176  -44.1058 C.3       10 UNK        -0.1800 
     24 N          -0.5444  -21.1358  -44.2390 N.am      10 UNK        -0.5000 
     25 C          -1.8823  -21.0884  -44.3095 C.2       9 UNK         0.5000 
     26 O          -2.5828  -22.0669  -44.5686 O.2       9 UNK        -0.5000 
     27 CA         -2.5513  -19.7165  -44.0997 C.3       9 UNK         0.1400 
     28 CB         -2.7293  -19.4183  -42.6040 C.3       9 UNK        -0.1800 
     29 N          -1.8216  -18.6205  -44.7386 N.am      9 UNK        -0.5000 
     30 C          -1.6218  -18.5074  -46.0592 C.2       8 UNK         0.5000 
     31 O          -2.0740  -19.2929  -46.8906 O.2       8 UNK        -0.5000 
     32 CA         -0.7178  -17.3558  -46.5329 C.3       8 UNK         0.1400 
     33 CB         -1.5127  -16.0480  -46.6546 C.3       8 UNK        -0.1800 
     34 N           0.4556  -17.1563  -45.6785 N.am      8 UNK        -0.5000 
     35 C           1.3955  -18.0907  -45.4666 C.2       7 UNK         0.5000 
     36 O           1.3822  -19.1999  -45.9951 O.2       7 UNK        -0.5000 
     37 CA          2.4917  -17.7609  -44.4398 C.3       7 UNK         0.1400 
     38 CB          3.5062  -16.7574  -45.0026 C.3       7 UNK        -0.1800 
     39 N           1.9279  -17.2411  -43.1967 N.am      7 UNK        -0.5000 
     40 C           1.1732  -17.9560  -42.3503 C.2       6 UNK         0.5000 
     41 O           0.9236  -19.1522  -42.4967 O.2       6 UNK        -0.5000 
     42 CA          0.5579  -17.1881  -41.1666 C.3       6 UNK         0.1400 
     43 CB          1.5302  -17.1531  -39.9787 C.3       6 UNK        -0.1800 
     44 N           0.1778  -15.8192  -41.5196 N.am      6 UNK        -0.5000 
     45 C          -0.7534  -15.4858  -42.4211 C.2       5 UNK         0.5000 
     46 O          -1.4184  -16.3115  -43.0457 O.2       5 UNK        -0.5000 
     47 CA         -0.9493  -13.9885  -42.7102 C.3       5 UNK         0.1400 
     48 CB         -1.8104  -13.3106  -41.6291 C.3       5 UNK        -0.1800 
     49 N           0.2995  -13.2568  -42.9475 N.am      5 UNK        -0.5000 
     50 C           1.2887  -12.9389  -42.0995 C.2       4 UNK         0.5000 
     51 O           1.3315  -13.2950  -40.9214 O.2       4 UNK        -0.5000 
     52 CA          2.4272  -12.0734  -42.6756 C.3       4 UNK         0.1400 
     53 CB          3.5410  -12.9648  -43.2453 C.3       4 UNK        -0.1800 
     54 N           1.9622  -11.1576  -43.7201 N.am      4 UNK        -0.5000 
     55 C           1.1344  -10.1217  -43.5153 C.2       3 UNK         0.5000 
     56 O           0.7672   -9.7460  -42.4015 O.2       3 UNK        -0.5000 
     57 CA          0.5898   -9.4186  -44.7708 C.3       3 UNK         0.1400 
     58 CB          1.5702   -8.3502  -45.2794 C.3       3 UNK        -0.1800 
     59 N           0.3016  -10.3787  -45.8385 N.am      3 UNK        -0.5000 
     60 C          -0.7752  -11.1783  -45.8630 C.2       2 UNK         0.5000 
     61 O          -1.6713  -11.1422  -45.0203 O.2       2 UNK        -0.5000 
     62 CA         -0.8614  -12.2075  -47.0058 C.3       2 UNK         0.1400 
     63 CB         -1.6358  -11.6287  -48.1988 C.3       2 UNK        -0.1800 
     64 N           0.4524  -12.6629  -47.4626 N.am      2 UNK        -0.5000 
     65 C           1.2504  -13.4954  -46.7790 C.2       1 UNK         0.5000 
     66 O           0.9358  -14.0179  -45.7087 O.2       1 UNK        -0.5000 
     67 C          -1.3639  -22.4204  -48.7153 C.2       11 UNK         0.5000 
     68 O          -1.5100  -23.3522  -49.5041 O.2       11 UNK        -0.5000 
     69 N          -2.3816  -21.8326  -48.0672 N.am      12 UNK        -0.5000 
     70 CA         -3.7839  -22.2438  -48.1553 C.3       12 UNK         0.1400 
     71 CB         -4.6640  -21.2943  -47.3262 C.3       12 UNK        -0.1800 
     72 C          -4.0025  -23.6980  -47.7098 C.2       12 UNK         0.5000 
     73 O          -4.6494  -24.4575  -48.4301 O.2       12 UNK        -0.5000 
     74 N          -3.4343  -24.0661  -46.5527 N.am      13 UNK        -0.5000 
     75 CA         -3.4785  -25.4186  -45.9970 C.3       13 UNK         0.1400 
     76 CB         -2.8731  -25.4200  -44.5855 C.3       13 UNK        -0.1800 
     77 C          -2.7833  -26.4554  -46.8970 C.2       13 UNK         0.5000 
     78 O          -3.3606  -27.5119  -47.1567 O.2       13 UNK        -0.5000 
     79 N          -1.5861  -26.1182  -47.3985 N.am      14 UNK        -0.5000 
     80 CA         -0.8096  -26.9384  -48.3338 C.3       14 UNK         0.1400 
     81 CB          0.5668  -26.2940  -48.5563 C.3       14 UNK        -0.1800 
     82 C          -1.5250  -27.1672  -49.6796 C.2       14 UNK         0.5000 
     83 O          -1.4163  -28.2518  -50.2521 O.2       14 UNK        -0.5000 
     84 N          -2.2755  -26.1569  -50.1344 N.am      15 UNK        -0.5000 
     85 CA         -3.1131  -26.1878  -51.3327 C.3       15 UNK         0.1400 
     86 CB         -3.2156  -24.7592  -51.8835 C.3       15 UNK        -0.1800 
     87 C          -4.5102  -26.8072  -51.1011 C.2       15 UNK         0.5000 
     88 O          -5.3377  -26.7611  -52.0117 O.2       15 UNK        -0.5000 
     89 N          -4.7511  -27.3798  -49.9114 N.am      16 UNK        -0.5000 
     90 CA         -5.9742  -28.0657  -49.4830 C.3       16 UNK         0.1400 
     91 CB         -6.2424  -29.3197  -50.3427 C.3       16 UNK        -0.1800 
     92 C          -7.1875  -27.1193  -49.3792 C.2       16 UNK         0.5000 
     93 O          -8.2546  -27.4072  -49.9244 O.2       16 UNK        -0.5000 
     94 N          -6.9876  -26.0120  -48.6527 N.am      17 UNK        -0.5000 
     95 CA         -7.9530  -24.9571  -48.3299 C.3       17 UNK         0.1400 
     96 CB         -9.1774  -25.5134  -47.5716 C.3       17 UNK        -0.1800 
     97 C          -8.3212  -24.0822  -49.5437 C.2       17 UNK         0.5000 
     98 O          -9.4682  -23.6483  -49.6718 O.2       17 UNK        -0.5000 
     99 N          -7.3276  -23.8103  -50.3991 N.am      18 UNK        -0.5000 
    100 CA        -7.4111  -22.8089  -51.4634 C.3       18 UNK         0.1400 
    101 CB        -6.3554  -23.1263  -52.5316 C.3       18 UNK        -0.1800 
    102 C         -7.1868  -21.3940  -50.8957 C.2       18 UNK         0.5000 
    103 O         -6.7467  -21.2461  -49.7534 O.2       18 UNK        -0.5000 
    104 N         -7.4428  -20.3681  -51.7157 N.am      19 UNK        -0.5000 
    105 CA        -7.2751  -18.9496  -51.3805 C.3       19 UNK         0.1400 
    106 CB        -8.1294  -18.1140  -52.3514 C.3       19 UNK        -0.1800 
    107 C         -5.7923  -18.5085  -51.3613 C.2       19 UNK         0.5000 
    108 O         -5.3987  -17.6302  -52.1305 O.2       19 UNK        -0.5000 
    109 N         -4.9960  -19.1493  -50.4922 N.am      20 UNK        -0.5000 
    110 CA        -3.5592  -18.9384  -50.2599 C.3       20 UNK         0.1400 
    111 CB        -3.3088  -17.5550  -49.6277 C.3       20 UNK        -0.1800 
    112 C         -2.6831  -19.1967  -51.5043 C.2       20 UNK         0.5000 
    113 O         -1.6363  -18.5693  -51.6603 O.2       20 UNK        -0.5000 
    114 N         -3.1426  -20.1068  -52.3724 N.am      21 UNK        -0.5000 
    115 CA        -2.5342  -20.4595  -53.6531 C.3       21 UNK         0.1400 
    116 CB        -3.4881  -21.4302  -54.3694 C.3       21 UNK        -0.1800 
    117 C         -1.1344  -21.0980  -53.4883 C.2       21 UNK         0.5000 
    118 O         -1.0044  -22.0074  -52.6706 O.2       21 UNK        -0.5000 
    119 N         -0.0895  -20.7000  -54.2300 N.am      22 UNK        -0.5000 
    120 CA         0.0312  -19.5832  -55.1842 C.3       22 UNK         0.1400 
    121 C         -0.8318  -19.7204  -56.4750 C.2       22 UNK         0.5000 
    122 N         -1.1234  -18.6337  -57.1757 N.am      22 UNK        -0.7600 
    123 O         -1.2056  -20.8190  -56.8751 O.2       22 UNK        -0.5000 
    124 C124       -0.0373  -18.1963  -54.4743 C.3       23 UNK        -0.0398 
    125 S125        1.0491  -16.9217  -55.2023 S.3       23 UNK        -0.2404 
    126 C126        2.7236  -17.5172  -54.7898 C.3       23 UNK        -0.0205 
    127 H127        4.1858  -10.6881  -49.4598 H         1 UNK         0.0600 
    128 H128        5.0575  -10.0501  -48.0621 H         1 UNK         0.0600 
    129 H129        3.4338   -9.4617  -48.4340 H         1 UNK         0.0600 
    130 H130        3.3978  -12.7490  -49.0722 H         1 UNK         0.3000 
    131 H131        3.3136  -13.9161  -46.5137 H         1 UNK         0.0600 
    132 H132        2.0571  -14.9361  -49.1149 H         1 UNK         0.0800 
    133 H133        2.2309  -15.8850  -47.6630 H         1 UNK         0.0800 
    134 H134        5.3570  -15.3103  -50.8354 H         1 UNK         0.0800 
    135 H135        3.7954  -14.5357  -50.7906 H         1 UNK         0.0800 
    136 H136        3.5844  -15.5939  -53.0688 H         1 UNK         0.1150 
    137 H137        2.4552  -19.7211  -53.2096 H         1 UNK         0.1150 
    138 H138        3.8306  -18.0215  -49.5386 H         1 UNK         0.1150 
    139 H139        2.3632  -21.0534  -51.2334 H         1 UNK         0.0800 
    140 H140        3.9399  -20.8010  -50.5343 H         1 UNK         0.0800 
    141 H141        0.2684  -20.8427  -50.2559 H         1 UNK         0.0800 
    142 H142       -0.1383  -19.8255  -48.8968 H         1 UNK         0.0800 
    143 H143        0.7351  -22.7486  -48.6684 H         1 UNK         0.0600 
    144 H144        0.4507  -20.8143  -46.6104 H         1 UNK         0.3000 
    145 H145       -0.1576  -23.1524  -43.9415 H         1 UNK         0.0600 
    146 H146        1.7732  -21.8826  -43.0434 H         1 UNK         0.0600 
    147 H147        2.2971  -23.0180  -44.2784 H         1 UNK         0.0600 
    148 H148        2.1798  -21.3058  -44.6571 H         1 UNK         0.0600 
    149 H149       -0.0328  -20.2986  -43.9834 H         1 UNK         0.3000 
    150 H150       -3.5430  -19.7584  -44.5538 H         1 UNK         0.0600 
    151 H151       -3.3136  -20.2004  -42.1178 H         1 UNK         0.0600 
    152 H152       -3.2541  -18.4754  -42.4493 H         1 UNK         0.0600 
    153 H153       -1.7713  -19.3566  -42.0886 H         1 UNK         0.0600 
    154 H154       -1.4655  -17.8906  -44.1275 H         1 UNK         0.3000 
    155 H155       -0.3588  -17.6229  -47.5291 H         1 UNK         0.0600 
    156 H156       -1.6876  -15.5855  -45.6833 H         1 UNK         0.0600 
    157 H157       -2.4864  -16.2124  -47.1160 H         1 UNK         0.0600 
    158 H158       -0.9824  -15.3342  -47.2822 H         1 UNK         0.0600 
    159 H159        0.5279  -16.2638  -45.2088 H         1 UNK         0.3000 
    160 H160        3.0232  -18.6876  -44.2123 H         1 UNK         0.0600 
    161 H161        3.0484  -15.7858  -45.1770 H         1 UNK         0.0600 
    162 H162        3.9195  -17.1071  -45.9495 H         1 UNK         0.0600 
    163 H163        4.3410  -16.6142  -44.3165 H         1 UNK         0.0600 
    164 H164        2.0686  -16.2617  -43.0015 H         1 UNK         0.3000 
    165 H165       -0.3446  -17.7187  -40.8571 H         1 UNK         0.0600 
    166 H166        1.0735  -16.6783  -39.1101 H         1 UNK         0.0600 
    167 H167        1.8212  -18.1617  -39.6821 H         1 UNK         0.0600 
    168 H168        2.4415  -16.6043  -40.2199 H         1 UNK         0.0600 
    169 H169        0.6799  -15.0605  -41.0656 H         1 UNK         0.3000 
    170 H170       -1.5012  -13.9239  -43.6494 H         1 UNK         0.0600 
    171 H171       -2.7795  -13.8030  -41.5406 H         1 UNK         0.0600 
    172 H172       -1.3382  -13.3435  -40.6470 H         1 UNK         0.0600 
    173 H173       -1.9975  -12.2655  -41.8770 H         1 UNK         0.0600 
    174 H174        0.4455  -13.0034  -43.9171 H         1 UNK         0.3000 
    175 H175        2.8429  -11.4792  -41.8594 H         1 UNK         0.0600 
    176 H176        3.1802  -13.5807  -44.0684 H         1 UNK         0.0600 
    177 H177        4.3735  -12.3668  -43.6164 H         1 UNK         0.0600 
    178 H178        3.9359  -13.6353  -42.4809 H         1 UNK         0.0600 
    179 H179        2.2836  -11.3383  -44.6667 H         1 UNK         0.3000 
    180 H180       -0.3393   -8.9147  -44.4956 H         1 UNK         0.0600 
    181 H181        2.5356   -8.7764  -45.5518 H         1 UNK         0.0600 
    182 H182        1.7525   -7.5962  -44.5127 H         1 UNK         0.0600 
    183 H183        1.1725   -7.8345  -46.1536 H         1 UNK         0.0600 
    184 H184        1.0198  -10.5044  -46.5371 H         1 UNK         0.3000 
    185 H185       -1.4167  -13.0673  -46.6267 H         1 UNK         0.0600 
    186 H186       -2.6305  -11.2990  -47.8956 H         1 UNK         0.0600 
    187 H187       -1.1236  -10.7698  -48.6342 H         1 UNK         0.0600 
    188 H188       -1.7673  -12.3752  -48.9823 H         1 UNK         0.0600 
    189 H189        0.7922  -12.2752  -48.3307 H         1 UNK         0.3000 
    190 H190       -2.1825  -21.0413  -47.4586 H         1 UNK         0.3000 
    191 H191       -4.0877  -22.1693  -49.2013 H         1 UNK         0.0600 
    192 H192       -4.3702  -21.2790  -46.2786 H         1 UNK         0.0600 
    193 H193       -5.7096  -21.6019  -47.3589 H         1 UNK         0.0600 
    194 H194       -4.6156  -20.2714  -47.6967 H         1 UNK         0.0600 
    195 H195       -2.9517  -23.3640  -45.9991 H         1 UNK         0.3000 
    196 H196       -4.5287  -25.7059  -45.9132 H         1 UNK         0.0600 
    197 H197       -2.9105  -26.4169  -44.1447 H         1 UNK         0.0600 
    198 H198       -3.4208  -24.7502  -43.9224 H         1 UNK         0.0600 
    199 H199       -1.8304  -25.1020  -44.5924 H         1 UNK         0.0600 
    200 H200       -1.1638  -25.2392  -47.1091 H         1 UNK         0.3000 
    201 H201       -0.6581  -27.9153  -47.8705 H         1 UNK         0.0600 
    202 H202        1.1148  -26.2009  -47.6185 H         1 UNK         0.0600 
    203 H203        0.4777  -25.2982  -48.9916 H         1 UNK         0.0600 
    204 H204        1.1765  -26.8955  -49.2316 H         1 UNK         0.0600 
    205 H205       -2.2593  -25.2774  -49.6278 H         1 UNK         0.3000 
    206 H206       -2.6206  -26.8001  -52.0905 H         1 UNK         0.0600 
    207 H207       -2.2293  -24.3622  -52.1224 H         1 UNK         0.0600 
    208 H208       -3.8052  -24.7262  -52.7999 H         1 UNK         0.0600 
    209 H209       -3.6744  -24.0887  -51.1570 H         1 UNK         0.0600 
    210 H210       -4.0202  -27.3346  -49.2114 H         1 UNK         0.3000 
    211 H211       -5.7793  -28.4126  -48.4671 H         1 UNK         0.0600 
    212 H212       -6.4987  -29.0646  -51.3712 H         1 UNK         0.0600 
    213 H213       -7.0721  -29.8988  -49.9359 H         1 UNK         0.0600 
    214 H214       -5.3713  -29.9745  -50.3662 H         1 UNK         0.0600 
    215 H215       -6.0364  -25.8076  -48.3595 H         1 UNK         0.3000 
    216 H216       -7.4325  -24.2894  -47.6417 H         1 UNK         0.0600 
    217 H217       -9.7971  -24.7028  -47.1866 H         1 UNK         0.0600 
    218 H218       -8.8719  -26.1192  -46.7186 H         1 UNK         0.0600 
    219 H219       -9.8103  -26.1279  -48.2121 H         1 UNK         0.0600 
    220 H220       -6.4094  -24.1750  -50.1868 H         1 UNK         0.3000 
    221 H221       -8.4008  -22.8527  -51.9228 H         1 UNK         0.0600 
    222 H222       -5.3513  -22.9133  -52.1691 H         1 UNK         0.0600 
    223 H223       -6.3941  -24.1731  -52.8345 H         1 UNK         0.0600 
    224 H224       -6.5101  -22.5249  -53.4278 H         1 UNK         0.0600 
    225 H225       -7.7691  -20.5636  -52.6512 H         1 UNK         0.3000 
    226 H226       -7.6676  -18.7835  -50.3749 H         1 UNK         0.0600 
    227 H227       -9.1810  -18.3956  -52.2936 H         1 UNK         0.0600 
    228 H228       -8.0674  -17.0514  -52.1131 H         1 UNK         0.0600 
    229 H229       -7.8045  -18.2395  -53.3850 H         1 UNK         0.0600 
    230 H230       -5.4359  -19.8836  -49.9427 H         1 UNK         0.3000 
    231 H231       -3.2505  -19.6841  -49.5301 H         1 UNK         0.0600 
    232 H232       -2.2641  -17.4430  -49.3362 H         1 UNK         0.0600 
    233 H233       -3.9114  -17.4217  -48.7295 H         1 UNK         0.0600 
    234 H234       -3.5448  -16.7441  -50.3170 H         1 UNK         0.0600 
    235 H235       -4.0030  -20.5789  -52.1442 H         1 UNK         0.3000 
    236 H236       -2.4814  -19.5447  -54.2381 H         1 UNK         0.0600 
    237 H237       -3.1125  -21.7034  -55.3546 H         1 UNK         0.0600 
    238 H238       -3.6135  -22.3559  -53.8074 H         1 UNK         0.0600 
    239 H239       -4.4736  -20.9863  -54.5121 H         1 UNK         0.0600 
    240 H240        0.7604  -21.2317  -54.1223 H         1 UNK         0.3000 
    241 H241        1.0448  -19.7092  -55.5608 H         1 UNK         0.0600 
    242 H242       -1.6642  -18.7238  -58.0221 H         1 UNK         0.3800 
    243 H243       -0.7832  -17.7253  -56.8966 H         1 UNK         0.3800 
    244 H244       -1.0556  -17.8070  -54.4580 H         1 UNK         0.0800 
    245 H245        0.2415  -18.2897  -53.4255 H         1 UNK         0.0800 
    246 H246        3.4469  -16.8218  -55.2184 H         1 UNK         0.0800 
    247 H247        2.9149  -18.4708  -55.2822 H         1 UNK         0.0800 
@<TRIPOS>BOND
     1    1    2 1    
     2    1  127 1    
     3    1  128 1    
     4    1  129 1    
     5    2    3 2    
     6    2    4 am   BACKBONE|DICT|INTERRES
     7    4    5 1    
     8    4  130 1    
     9    5    6 1    
    10    5   65 1    
    11    5  131 1    
    12    6    7 1    
    13    6  132 1    
    14    6  133 1    
    15    7    8 1    
    16    8    9 1    
    17    8  134 1    
    18    8  135 1    
    19    9   10 ar   
    20    9   14 ar   
    21   10   11 ar   
    22   10  136 1    
    23   11   12 ar   
    24   11  126 1    
    25   12   13 ar   
    26   12  137 1    
    27   13   14 ar   
    28   13   15 1    
    29   14  138 1    
    30   15   16 1    
    31   15  139 1    
    32   15  140 1    
    33   16   17 1    
    34   17   18 1    
    35   17  141 1    
    36   17  142 1    
    37   18   19 1    
    38   18   67 1    
    39   18  143 1    
    40   19   20 am   BACKBONE|DICT|INTERRES
    41   19  144 1    
    42   20   21 2    
    43   20   22 1    
    44   22   23 1    
    45   22   24 1    
    46   22  145 1    
    47   23  146 1    
    48   23  147 1    
    49   23  148 1    
    50   24   25 am   BACKBONE|DICT|INTERRES
    51   24  149 1    
    52   25   26 2    
    53   25   27 1    
    54   27   28 1    
    55   27   29 1    
    56   27  150 1    
    57   28  151 1    
    58   28  152 1    
    59   28  153 1    
    60   29   30 am   BACKBONE|DICT|INTERRES
    61   29  154 1    
    62   30   31 2    
    63   30   32 1    
    64   32   33 1    
    65   32   34 1    
    66   32  155 1    
    67   33  156 1    
    68   33  157 1    
    69   33  158 1    
    70   34   35 am   BACKBONE|DICT|INTERRES
    71   34  159 1    
    72   35   36 2    
    73   35   37 1    
    74   37   38 1    
    75   37   39 1    
    76   37  160 1    
    77   38  161 1    
    78   38  162 1    
    79   38  163 1    
    80   39   40 am   BACKBONE|DICT|INTERRES
    81   39  164 1    
    82   40   41 2    
    83   40   42 1    
    84   42   43 1    
    85   42   44 1    
    86   42  165 1    
    87   43  166 1    
    88   43  167 1    
    89   43  168 1    
    90   44   45 am   BACKBONE|DICT|INTERRES
    91   44  169 1    
    92   45   46 2    
    93   45   47 1    
    94   47   48 1    
    95   47   49 1    
    96   47  170 1    
    97   48  171 1    
    98   48  172 1    
    99   48  173 1    
   100   49   50 am   BACKBONE|DICT|INTERRES
   101   49  174 1    
   102   50   51 2    
   103   50   52 1    
   104   52   53 1    
   105   52   54 1    
   106   52  175 1    
   107   53  176 1    
   108   53  177 1    
   109   53  178 1    
   110   54   55 am   BACKBONE|DICT|INTERRES
   111   54  179 1    
   112   55   56 2    
   113   55   57 1    
   114   57   58 1    
   115   57   59 1    
   116   57  180 1    
   117   58  181 1    
   118   58  182 1    
   119   58  183 1    
   120   59   60 am   BACKBONE|DICT|INTERRES
   121   59  184 1    
   122   60   61 2    
   123   60   62 1    
   124   62   63 1    
   125   62   64 1    
   126   62  185 1    
   127   63  186 1    
   128   63  187 1    
   129   63  188 1    
   130   64   65 am   BACKBONE|DICT|INTERRES
   131   64  189 1    
   132   65   66 2    
   133   67   68 2    
   134   67   69 am   BACKBONE|DICT|INTERRES
   135   69   70 1    
   136   69  190 1    
   137   70   71 1    
   138   70   72 1    
   139   70  191 1    
   140   71  192 1    
   141   71  193 1    
   142   71  194 1    
   143   72   73 2    
   144   72   74 am   BACKBONE|DICT|INTERRES
   145   74   75 1    
   146   74  195 1    
   147   75   76 1    
   148   75   77 1    
   149   75  196 1    
   150   76  197 1    
   151   76  198 1    
   152   76  199 1    
   153   77   78 2    
   154   77   79 am   BACKBONE|DICT|INTERRES
   155   79   80 1    
   156   79  200 1    
   157   80   81 1    
   158   80   82 1    
   159   80  201 1    
   160   81  202 1    
   161   81  203 1    
   162   81  204 1    
   163   82   83 2    
   164   82   84 am   BACKBONE|DICT|INTERRES
   165   84   85 1    
   166   84  205 1    
   167   85   86 1    
   168   85   87 1    
   169   85  206 1    
   170   86  207 1    
   171   86  208 1    
   172   86  209 1    
   173   87   88 2    
   174   87   89 am   BACKBONE|DICT|INTERRES
   175   89   90 1    
   176   89  210 1    
   177   90   91 1    
   178   90   92 1    
   179   90  211 1    
   180   91  212 1    
   181   91  213 1    
   182   91  214 1    
   183   92   93 2    
   184   92   94 am   BACKBONE|DICT|INTERRES
   185   94   95 1    
   186   94  215 1    
   187   95   96 1    
   188   95   97 1    
   189   95  216 1    
   190   96  217 1    
   191   96  218 1    
   192   96  219 1    
   193   97   98 2    
   194   97   99 am   BACKBONE|DICT|INTERRES
   195   99  100 1    
   196   99  220 1    
   197  100  101 1    
   198  100  102 1    
   199  100  221 1    
   200  101  222 1    
   201  101  223 1    
   202  101  224 1    
   203  102  103 2    
   204  102  104 am   BACKBONE|DICT|INTERRES
   205  104  105 1    
   206  104  225 1    
   207  105  106 1    
   208  105  107 1    
   209  105  226 1    
   210  106  227 1    
   211  106  228 1    
   212  106  229 1    
   213  107  108 2    
   214  107  109 am   BACKBONE|DICT|INTERRES
   215  109  110 1    
   216  109  230 1    
   217  110  111 1    
   218  110  112 1    
   219  110  231 1    
   220  111  232 1    
   221  111  233 1    
   222  111  234 1    
   223  112  113 2    
   224  112  114 am   BACKBONE|DICT|INTERRES
   225  114  115 1    
   226  114  235 1    
   227  115  116 1    
   228  115  117 1    
   229  115  236 1    
   230  116  237 1    
   231  116  238 1    
   232  116  239 1    
   233  117  118 2    
   234  117  119 am   BACKBONE|DICT|INTERRES
   235  119  120 1    
   236  119  240 1    
   237  120  121 1    
   238  120  124 1    
   239  120  241 1    
   240  121  122 am   BACKBONE|DICT|INTERRES
   241  121  123 2    
   242  122  242 1    
   243  122  243 1    
   244  124  125 1    
   245  124  244 1    
   246  124  245 1    
   247  125  126 1    
   248  126  246 1    
   249  126  247 1    
@<TRIPOS>SUBSTRUCTURE
     1 UNK         1 GROUP             0       ****    0 ROOT    
