@<TRIPOS>MOLECULE
3R540
247   249    1
SMALL
USER_CHARGES


@<TRIPOS>ATOM
      1 CA         -2.0354  -10.5229  -44.0438 C.3       0 UNK        -0.1800 
      2 C          -1.0249  -10.2047  -45.1357 C.2       0 UNK         0.5000 
      3 O           0.0837   -9.7625  -44.8355 O.2       0 UNK        -0.5000 
      4 N          -1.3906  -10.4486  -46.4011 N.am      1 UNK        -0.5000 
      5 CA         -0.5665  -10.2090  -47.5969 C.3       1 UNK         0.1400 
      6 C6         -1.3941  -10.3515  -48.8994 C.3       23 UNK        -0.0398 
      7 S7         -2.1994  -11.9828  -49.0867 S.3       23 UNK        -0.2404 
      8 C8         -1.2862  -12.6660  -50.5039 C.3       23 UNK        -0.0205 
      9 C9         -1.6081  -14.1385  -50.7013 C.ar      23 UNK        -0.0193 
     10 C10        -2.8370  -14.5250  -51.2459 C.ar      23 UNK        -0.1150 
     11 C11        -3.1516  -15.8787  -51.4025 C.ar      23 UNK        -0.0193 
     12 C12        -2.2212  -16.8459  -51.0155 C.ar      23 UNK        -0.1150 
     13 C13        -0.9796  -16.4724  -50.4952 C.ar      23 UNK        -0.0193 
     14 C14        -0.6792  -15.1169  -50.3362 C.ar      23 UNK        -0.1150 
     15 C15         0.0400  -17.5364  -50.1218 C.3       23 UNK        -0.0205 
     16 S16         0.3601  -17.6031  -48.3337 S.3       23 UNK        -0.2404 
     17 C17        -1.2416  -18.1935  -47.6938 C.3       23 UNK        -0.0398 
     18 CA         -1.3071  -19.7336  -47.5668 C.3       11 UNK         0.1400 
     19 N          -0.3604  -20.2703  -46.5832 N.am      11 UNK        -0.5000 
     20 C          -0.1347  -21.5741  -46.3687 C.2       10 UNK         0.5000 
     21 O          -0.6610  -22.4732  -47.0233 O.2       10 UNK        -0.5000 
     22 CA          0.7818  -21.9429  -45.1872 C.3       10 UNK         0.1400 
     23 CB          2.2644  -21.8289  -45.5720 C.3       10 UNK        -0.1800 
     24 N           0.5068  -21.1386  -43.9950 N.am      10 UNK        -0.5000 
     25 C          -0.6401  -21.1920  -43.3017 C.2       9 UNK         0.5000 
     26 O          -1.5602  -21.9652  -43.5676 O.2       9 UNK        -0.5000 
     27 CA         -0.8100  -20.1879  -42.1460 C.3       9 UNK         0.1400 
     28 CB         -0.1047  -20.6890  -40.8772 C.3       9 UNK        -0.1800 
     29 N          -0.3269  -18.8485  -42.4827 N.am      9 UNK        -0.5000 
     30 C          -0.8440  -18.0754  -43.4483 C.2       8 UNK         0.5000 
     31 O          -1.8286  -18.3855  -44.1181 O.2       8 UNK        -0.5000 
     32 CA         -0.1022  -16.7635  -43.7634 C.3       8 UNK         0.1400 
     33 CB         -0.5081  -15.6520  -42.7843 C.3       8 UNK        -0.1800 
     34 N           1.3539  -16.9178  -43.7627 N.am      8 UNK        -0.5000 
     35 C           2.0297  -17.7490  -44.5694 C.2       7 UNK         0.5000 
     36 O           1.4946  -18.4628  -45.4127 O.2       7 UNK        -0.5000 
     37 CA          3.5466  -17.8577  -44.3534 C.3       7 UNK         0.1400 
     38 CB          4.2912  -16.6721  -44.9833 C.3       7 UNK        -0.1800 
     39 N           3.8733  -17.9621  -42.9334 N.am      7 UNK        -0.5000 
     40 C           3.5970  -19.0354  -42.1788 C.2       6 UNK         0.5000 
     41 O           3.0938  -20.0702  -42.6172 O.2       6 UNK        -0.5000 
     42 CA          3.8964  -18.9117  -40.6740 C.3       6 UNK         0.1400 
     43 CB          5.3662  -19.2500  -40.3837 C.3       6 UNK        -0.1800 
     44 N           3.5929  -17.5775  -40.1529 N.am      6 UNK        -0.5000 
     45 C           2.3570  -17.0660  -40.0610 C.2       5 UNK         0.5000 
     46 O           1.3380  -17.6809  -40.3734 O.2       5 UNK        -0.5000 
     47 CA          2.2490  -15.6062  -39.5841 C.3       5 UNK         0.1400 
     48 CB          2.2387  -15.5373  -38.0498 C.3       5 UNK        -0.1800 
     49 N           3.3194  -14.7501  -40.1046 N.am      5 UNK        -0.5000 
     50 C           3.4937  -14.4626  -41.4008 C.2       4 UNK         0.5000 
     51 O           2.7894  -14.9209  -42.3028 O.2       4 UNK        -0.5000 
     52 CA          4.6830  -13.5558  -41.7520 C.3       4 UNK         0.1400 
     53 CB          5.9037  -14.3969  -42.1545 C.3       4 UNK        -0.1800 
     54 N           4.3384  -12.6558  -42.8497 N.am      4 UNK        -0.5000 
     55 C           3.6476  -11.5199  -42.7093 C.2       3 UNK         0.5000 
     56 O           3.2663  -11.0860  -41.6211 O.2       3 UNK        -0.5000 
     57 CA          3.3326  -10.7245  -43.9895 C.3       3 UNK         0.1400 
     58 CB          4.6023  -10.0994  -44.6001 C.3       3 UNK        -0.1800 
     59 N           2.5592  -11.4689  -44.9892 N.am      3 UNK        -0.5000 
     60 C           2.9228  -12.5232  -45.7369 C.2       2 UNK         0.5000 
     61 O           4.0258  -13.0665  -45.6619 O.2       2 UNK        -0.5000 
     62 CA          1.8839  -13.0720  -46.7411 C.3       2 UNK         0.1400 
     63 CB          1.3645  -14.4423  -46.2882 C.3       2 UNK        -0.1800 
     64 N           0.7320  -12.1895  -46.9273 N.am      2 UNK        -0.5000 
     65 C           0.7266  -11.0574  -47.6442 C.2       1 UNK         0.5000 
     66 O           1.6900  -10.6620  -48.3013 O.2       1 UNK        -0.5000 
     67 C          -2.7514  -20.1819  -47.2698 C.2       11 UNK         0.5000 
     68 O          -3.4424  -20.6262  -48.1839 O.2       11 UNK        -0.5000 
     69 N          -3.1717  -20.0974  -45.9992 N.am      12 UNK        -0.5000 
     70 CA         -4.4880  -20.5370  -45.5316 C.3       12 UNK         0.1400 
     71 CB         -4.6833  -20.1089  -44.0695 C.3       12 UNK        -0.1800 
     72 C          -4.7173  -22.0520  -45.6919 C.2       12 UNK         0.5000 
     73 O          -5.8371  -22.4626  -45.9962 O.2       12 UNK        -0.5000 
     74 N          -3.6579  -22.8508  -45.5049 N.am      13 UNK        -0.5000 
     75 CA         -3.6647  -24.2939  -45.7392 C.3       13 UNK         0.1400 
     76 CB         -2.4328  -24.9282  -45.0754 C.3       13 UNK        -0.1800 
     77 C          -3.7267  -24.6482  -47.2373 C.2       13 UNK         0.5000 
     78 O          -4.4334  -25.5864  -47.6046 O.2       13 UNK        -0.5000 
     79 N          -2.9894  -23.9004  -48.0703 N.am      14 UNK        -0.5000 
     80 CA         -2.9353  -24.0778  -49.5219 C.3       14 UNK         0.1400 
     81 CB         -1.7279  -23.3140  -50.0843 C.3       14 UNK        -0.1800 
     82 C          -4.2255  -23.6477  -50.2425 C.2       14 UNK         0.5000 
     83 O          -4.6006  -24.2972  -51.2202 O.2       14 UNK        -0.5000 
     84 N          -4.8685  -22.5774  -49.7500 N.am      15 UNK        -0.5000 
     85 CA         -6.0664  -21.9350  -50.2971 C.3       15 UNK         0.1400 
     86 CB         -6.5688  -20.8637  -49.3156 C.3       15 UNK        -0.1800 
     87 C          -7.1933  -22.9219  -50.6586 C.2       15 UNK         0.5000 
     88 O          -7.7996  -23.5154  -49.7648 O.2       15 UNK        -0.5000 
     89 N          -7.4195  -23.0876  -51.9691 N.am      16 UNK        -0.5000 
     90 CA         -8.3841  -23.9798  -52.6226 C.3       16 UNK         0.1400 
     91 CB         -9.8290  -23.5865  -52.2514 C.3       16 UNK        -0.1800 
     92 C          -8.1261  -25.4921  -52.4266 C.2       16 UNK         0.5000 
     93 O          -8.9483  -26.2972  -52.8682 O.2       16 UNK        -0.5000 
     94 N          -7.0033  -25.8647  -51.8002 N.am      17 UNK        -0.5000 
     95 CA         -6.5772  -27.2475  -51.5889 C.3       17 UNK         0.1400 
     96 CB         -6.0985  -27.4139  -50.1385 C.3       17 UNK        -0.1800 
     97 C          -5.4592  -27.6166  -52.5746 C.2       17 UNK         0.5000 
     98 O          -5.5145  -28.6816  -53.1913 O.2       17 UNK        -0.5000 
     99 N          -4.4796  -26.7181  -52.7184 N.am      18 UNK        -0.5000 
    100 CA        -3.4047  -26.7862  -53.7013 C.3       18 UNK         0.1400 
    101 CB        -2.1184  -26.2676  -53.0391 C.3       18 UNK        -0.1800 
    102 C         -3.7648  -25.9245  -54.9228 C.2       18 UNK         0.5000 
    103 O         -4.6439  -25.0633  -54.8316 O.2       18 UNK        -0.5000 
    104 N         -3.0649  -26.1566  -56.0402 N.am      19 UNK        -0.5000 
    105 CA        -3.1711  -25.3411  -57.2536 C.3       19 UNK         0.1400 
    106 CB        -2.7739  -26.1916  -58.4703 C.3       19 UNK        -0.1800 
    107 C         -2.3013  -24.0709  -57.1754 C.2       19 UNK         0.5000 
    108 O         -2.6906  -23.0313  -57.7090 O.2       19 UNK        -0.5000 
    109 N         -1.1424  -24.1805  -56.5136 N.am      20 UNK        -0.5000 
    110 CA        -0.2273  -23.0773  -56.2249 C.3       20 UNK         0.1400 
    111 CB         1.2082  -23.6258  -56.2048 C.3       20 UNK        -0.1800 
    112 C         -0.5754  -22.4429  -54.8684 C.2       20 UNK         0.5000 
    113 O         -1.2226  -23.0904  -54.0429 O.2       20 UNK        -0.5000 
    114 N         -0.1322  -21.1947  -54.6534 N.am      21 UNK        -0.5000 
    115 CA        -0.3110  -20.4109  -53.4195 C.3       21 UNK         0.1400 
    116 CB         0.5373  -21.0185  -52.2804 C.3       21 UNK        -0.1800 
    117 C         -1.7986  -20.2270  -53.0394 C.2       21 UNK         0.5000 
    118 O         -2.1664  -20.3691  -51.8737 O.2       21 UNK        -0.5000 
    119 N         -2.6226  -19.9584  -54.0617 N.am      22 UNK        -0.5000 
    120 CA        -4.0975  -19.9439  -54.0366 C.3       22 UNK         0.1400 
    121 C         -4.7614  -21.3475  -53.8934 C.2       22 UNK         0.5000 
    122 N         -4.0227  -22.4465  -53.8913 N.am      22 UNK        -0.7600 
    123 O         -5.9835  -21.4490  -53.8279 O.2       22 UNK        -0.5000 
    124 C124       -4.7100  -18.8944  -53.0651 C.3       23 UNK        -0.0398 
    125 S125       -4.3234  -17.1792  -53.5589 S.3       23 UNK        -0.2404 
    126 C126       -4.4990  -16.2952  -51.9748 C.3       23 UNK        -0.0205 
    127 H127       -2.9657  -10.9163  -44.4544 H         1 UNK         0.0600 
    128 H128       -2.2681   -9.6228  -43.4749 H         1 UNK         0.0600 
    129 H129       -1.6252  -11.2645  -43.3582 H         1 UNK         0.0600 
    130 H130       -2.3083  -10.8301  -46.5853 H         1 UNK         0.3000 
    131 H131       -0.2371   -9.1692  -47.5408 H         1 UNK         0.0600 
    132 H132       -0.7775  -10.1332  -49.7733 H         1 UNK         0.0800 
    133 H133       -2.1803   -9.5955  -48.9084 H         1 UNK         0.0800 
    134 H134       -1.5419  -12.1083  -51.4060 H         1 UNK         0.0800 
    135 H135       -0.2147  -12.5309  -50.3463 H         1 UNK         0.0800 
    136 H136       -3.5532  -13.7673  -51.5319 H         1 UNK         0.1150 
    137 H137       -2.4634  -17.8921  -51.1307 H         1 UNK         0.1150 
    138 H138        0.2759  -14.8278  -49.9201 H         1 UNK         0.1150 
    139 H139       -0.2956  -18.5180  -50.4543 H         1 UNK         0.0800 
    140 H140        0.9763  -17.3347  -50.6437 H         1 UNK         0.0800 
    141 H141       -2.0390  -17.8237  -48.3396 H         1 UNK         0.0800 
    142 H142       -1.4069  -17.7249  -46.7232 H         1 UNK         0.0800 
    143 H143       -1.0386  -20.1601  -48.5359 H         1 UNK         0.0600 
    144 H144        0.1722  -19.5882  -46.0466 H         1 UNK         0.3000 
    145 H145        0.5850  -22.9865  -44.9325 H         1 UNK         0.0600 
    146 H146        2.9098  -22.1313  -44.7471 H         1 UNK         0.0600 
    147 H147        2.4950  -22.4742  -46.4204 H         1 UNK         0.0600 
    148 H148        2.5366  -20.8122  -45.8530 H         1 UNK         0.0600 
    149 H149        1.2270  -20.4870  -43.7066 H         1 UNK         0.3000 
    150 H150       -1.8775  -20.1102  -41.9303 H         1 UNK         0.0600 
    151 H151       -0.4642  -21.6795  -40.5959 H         1 UNK         0.0600 
    152 H152       -0.2914  -20.0234  -40.0343 H         1 UNK         0.0600 
    153 H153        0.9744  -20.7576  -41.0155 H         1 UNK         0.0600 
    154 H154        0.4493  -18.4912  -41.9338 H         1 UNK         0.3000 
    155 H155       -0.3967  -16.4546  -44.7681 H         1 UNK         0.0600 
    156 H156       -0.2474  -15.9063  -41.7572 H         1 UNK         0.0600 
    157 H157       -1.5845  -15.4795  -42.8162 H         1 UNK         0.0600 
    158 H158       -0.0192  -14.7088  -43.0282 H         1 UNK         0.0600 
    159 H159        1.8752  -16.3261  -43.1200 H         1 UNK         0.3000 
    160 H160        3.8909  -18.7685  -44.8483 H         1 UNK         0.0600 
    161 H161        3.9662  -15.7186  -44.5674 H         1 UNK         0.0600 
    162 H162        4.1170  -16.6347  -46.0592 H         1 UNK         0.0600 
    163 H163        5.3676  -16.7568  -44.8343 H         1 UNK         0.0600 
    164 H164        4.2396  -17.1355  -42.4869 H         1 UNK         0.3000 
    165 H165        3.2682  -19.6344  -40.1488 H         1 UNK         0.0600 
    166 H166        5.5696  -19.2364  -39.3128 H         1 UNK         0.0600 
    167 H167        5.6155  -20.2476  -40.7480 H         1 UNK         0.0600 
    168 H168        6.0461  -18.5454  -40.8642 H         1 UNK         0.0600 
    169 H169        4.3749  -17.0054  -39.8710 H         1 UNK         0.3000 
    170 H170        1.2985  -15.2101  -39.9473 H         1 UNK         0.0600 
    171 H171        1.4378  -16.1526  -37.6373 H         1 UNK         0.0600 
    172 H172        3.1778  -15.8913  -37.6228 H         1 UNK         0.0600 
    173 H173        2.0744  -14.5173  -37.7020 H         1 UNK         0.0600 
    174 H174        3.9426  -14.3430  -39.4219 H         1 UNK         0.3000 
    175 H175        4.9497  -12.9630  -40.8744 H         1 UNK         0.0600 
    176 H176        6.1854  -15.0880  -41.3591 H         1 UNK         0.0600 
    177 H177        5.7126  -14.9859  -43.0509 H         1 UNK         0.0600 
    178 H178        6.7676  -13.7623  -42.3531 H         1 UNK         0.0600 
    179 H179        4.5218  -12.9790  -43.7951 H         1 UNK         0.3000 
    180 H180        2.6870   -9.8982  -43.6874 H         1 UNK         0.0600 
    181 H181        5.3169  -10.8538  -44.9296 H         1 UNK         0.0600 
    182 H182        5.1115   -9.4676  -43.8714 H         1 UNK         0.0600 
    183 H183        4.3575   -9.4732  -45.4581 H         1 UNK         0.0600 
    184 H184        1.6210  -11.1078  -45.1231 H         1 UNK         0.3000 
    185 H185        2.3857  -13.1961  -47.7028 H         1 UNK         0.0600 
    186 H186        2.1709  -15.1734  -46.2601 H         1 UNK         0.0600 
    187 H187        0.9280  -14.3920  -45.2910 H         1 UNK         0.0600 
    188 H188        0.6065  -14.8273  -46.9706 H         1 UNK         0.0600 
    189 H189       -0.1123  -12.4376  -46.4328 H         1 UNK         0.3000 
    190 H190       -2.5618  -19.6743  -45.3039 H         1 UNK         0.3000 
    191 H191       -5.2398  -20.0266  -46.1372 H         1 UNK         0.0600 
    192 H192       -3.9408  -20.5648  -43.4145 H         1 UNK         0.0600 
    193 H193       -5.6684  -20.4022  -43.7045 H         1 UNK         0.0600 
    194 H194       -4.6053  -19.0270  -43.9617 H         1 UNK         0.0600 
    195 H195       -2.7873  -22.4415  -45.1839 H         1 UNK         0.3000 
    196 H196       -4.5538  -24.7116  -45.2620 H         1 UNK         0.0600 
    197 H197       -2.4314  -26.0105  -45.2100 H         1 UNK         0.0600 
    198 H198       -2.4193  -24.7330  -44.0029 H         1 UNK         0.0600 
    199 H199       -1.5034  -24.5440  -45.4957 H         1 UNK         0.0600 
    200 H200       -2.3835  -23.1855  -47.6787 H         1 UNK         0.3000 
    201 H201       -2.7850  -25.1396  -49.7283 H         1 UNK         0.0600 
    202 H202       -0.7921  -23.6957  -49.6763 H         1 UNK         0.0600 
    203 H203       -1.7843  -22.2497  -49.8534 H         1 UNK         0.0600 
    204 H204       -1.6752  -23.4079  -51.1697 H         1 UNK         0.0600 
    205 H205       -4.4243  -22.0820  -48.9824 H         1 UNK         0.3000 
    206 H206       -5.7534  -21.4157  -51.2013 H         1 UNK         0.0600 
    207 H207       -5.8342  -20.0693  -49.1862 H         1 UNK         0.0600 
    208 H208       -7.4847  -20.3972  -49.6803 H         1 UNK         0.0600 
    209 H209       -6.7835  -21.2879  -48.3344 H         1 UNK         0.0600 
    210 H210       -6.8440  -22.5522  -52.6180 H         1 UNK         0.3000 
    211 H211       -8.2622  -23.7997  -53.6916 H         1 UNK         0.0600 
    212 H212      -10.0519  -23.8004  -51.2059 H         1 UNK         0.0600 
    213 H213      -10.5526  -24.1343  -52.8561 H         1 UNK         0.0600 
    214 H214      -10.0053  -22.5245  -52.4226 H         1 UNK         0.0600 
    215 H215       -6.3518  -25.1431  -51.5077 H         1 UNK         0.3000 
    216 H216       -7.4102  -27.9352  -51.7479 H         1 UNK         0.0600 
    217 H217       -5.2452  -26.7718  -49.9184 H         1 UNK         0.0600 
    218 H218       -5.7944  -28.4428  -49.9430 H         1 UNK         0.0600 
    219 H219       -6.8905  -27.1667  -49.4315 H         1 UNK         0.0600 
    220 H220       -4.5471  -25.8387  -52.2111 H         1 UNK         0.3000 
    221 H221       -3.2476  -27.8164  -54.0270 H         1 UNK         0.0600 
    222 H222       -1.8517  -26.8698  -52.1706 H         1 UNK         0.0600 
    223 H223       -2.2305  -25.2353  -52.7060 H         1 UNK         0.0600 
    224 H224       -1.2745  -26.2989  -53.7289 H         1 UNK         0.0600 
    225 H225       -2.3788  -26.8973  -56.0487 H         1 UNK         0.3000 
    226 H226       -4.2088  -25.0274  -57.3878 H         1 UNK         0.0600 
    227 H227       -3.4214  -27.0629  -58.5697 H         1 UNK         0.0600 
    228 H228       -2.8608  -25.6162  -59.3929 H         1 UNK         0.0600 
    229 H229       -1.7442  -26.5441  -58.3991 H         1 UNK         0.0600 
    230 H230       -0.9387  -25.0530  -56.0513 H         1 UNK         0.3000 
    231 H231       -0.3035  -22.3150  -57.0031 H         1 UNK         0.0600 
    232 H232        1.3419  -24.3773  -55.4253 H         1 UNK         0.0600 
    233 H233        1.9309  -22.8300  -56.0202 H         1 UNK         0.0600 
    234 H234        1.4680  -24.0835  -57.1595 H         1 UNK         0.0600 
    235 H235        0.3877  -20.7357  -55.3887 H         1 UNK         0.3000 
    236 H236        0.0759  -19.4111  -53.6213 H         1 UNK         0.0600 
    237 H237        0.4895  -20.4132  -51.3769 H         1 UNK         0.0600 
    238 H238        0.2004  -22.0200  -52.0135 H         1 UNK         0.0600 
    239 H239        1.5867  -21.0865  -52.5666 H         1 UNK         0.0600 
    240 H240       -2.2131  -19.8737  -54.9803 H         1 UNK         0.3000 
    241 H241       -4.3819  -19.6384  -55.0441 H         1 UNK         0.0600 
    242 H242       -4.4733  -23.3543  -53.9050 H         1 UNK         0.3800 
    243 H243       -3.0094  -22.4162  -53.9084 H         1 UNK         0.3800 
    244 H244       -4.3822  -19.0770  -52.0416 H         1 UNK         0.0800 
    245 H245       -5.7982  -18.9728  -53.0464 H         1 UNK         0.0800 
    246 H246       -5.1273  -15.4191  -52.1423 H         1 UNK         0.0800 
    247 H247       -5.0293  -16.9098  -51.2461 H         1 UNK         0.0800 
@<TRIPOS>BOND
     1    1    2 1    
     2    1  127 1    
     3    1  128 1    
     4    1  129 1    
     5    2    3 2    
     6    2    4 am   BACKBONE|DICT|INTERRES
     7    4    5 1    
     8    4  130 1    
     9    5    6 1    
    10    5   65 1    
    11    5  131 1    
    12    6    7 1    
    13    6  132 1    
    14    6  133 1    
    15    7    8 1    
    16    8    9 1    
    17    8  134 1    
    18    8  135 1    
    19    9   10 ar   
    20    9   14 ar   
    21   10   11 ar   
    22   10  136 1    
    23   11   12 ar   
    24   11  126 1    
    25   12   13 ar   
    26   12  137 1    
    27   13   14 ar   
    28   13   15 1    
    29   14  138 1    
    30   15   16 1    
    31   15  139 1    
    32   15  140 1    
    33   16   17 1    
    34   17   18 1    
    35   17  141 1    
    36   17  142 1    
    37   18   19 1    
    38   18   67 1    
    39   18  143 1    
    40   19   20 am   BACKBONE|DICT|INTERRES
    41   19  144 1    
    42   20   21 2    
    43   20   22 1    
    44   22   23 1    
    45   22   24 1    
    46   22  145 1    
    47   23  146 1    
    48   23  147 1    
    49   23  148 1    
    50   24   25 am   BACKBONE|DICT|INTERRES
    51   24  149 1    
    52   25   26 2    
    53   25   27 1    
    54   27   28 1    
    55   27   29 1    
    56   27  150 1    
    57   28  151 1    
    58   28  152 1    
    59   28  153 1    
    60   29   30 am   BACKBONE|DICT|INTERRES
    61   29  154 1    
    62   30   31 2    
    63   30   32 1    
    64   32   33 1    
    65   32   34 1    
    66   32  155 1    
    67   33  156 1    
    68   33  157 1    
    69   33  158 1    
    70   34   35 am   BACKBONE|DICT|INTERRES
    71   34  159 1    
    72   35   36 2    
    73   35   37 1    
    74   37   38 1    
    75   37   39 1    
    76   37  160 1    
    77   38  161 1    
    78   38  162 1    
    79   38  163 1    
    80   39   40 am   BACKBONE|DICT|INTERRES
    81   39  164 1    
    82   40   41 2    
    83   40   42 1    
    84   42   43 1    
    85   42   44 1    
    86   42  165 1    
    87   43  166 1    
    88   43  167 1    
    89   43  168 1    
    90   44   45 am   BACKBONE|DICT|INTERRES
    91   44  169 1    
    92   45   46 2    
    93   45   47 1    
    94   47   48 1    
    95   47   49 1    
    96   47  170 1    
    97   48  171 1    
    98   48  172 1    
    99   48  173 1    
   100   49   50 am   BACKBONE|DICT|INTERRES
   101   49  174 1    
   102   50   51 2    
   103   50   52 1    
   104   52   53 1    
   105   52   54 1    
   106   52  175 1    
   107   53  176 1    
   108   53  177 1    
   109   53  178 1    
   110   54   55 am   BACKBONE|DICT|INTERRES
   111   54  179 1    
   112   55   56 2    
   113   55   57 1    
   114   57   58 1    
   115   57   59 1    
   116   57  180 1    
   117   58  181 1    
   118   58  182 1    
   119   58  183 1    
   120   59   60 am   BACKBONE|DICT|INTERRES
   121   59  184 1    
   122   60   61 2    
   123   60   62 1    
   124   62   63 1    
   125   62   64 1    
   126   62  185 1    
   127   63  186 1    
   128   63  187 1    
   129   63  188 1    
   130   64   65 am   BACKBONE|DICT|INTERRES
   131   64  189 1    
   132   65   66 2    
   133   67   68 2    
   134   67   69 am   BACKBONE|DICT|INTERRES
   135   69   70 1    
   136   69  190 1    
   137   70   71 1    
   138   70   72 1    
   139   70  191 1    
   140   71  192 1    
   141   71  193 1    
   142   71  194 1    
   143   72   73 2    
   144   72   74 am   BACKBONE|DICT|INTERRES
   145   74   75 1    
   146   74  195 1    
   147   75   76 1    
   148   75   77 1    
   149   75  196 1    
   150   76  197 1    
   151   76  198 1    
   152   76  199 1    
   153   77   78 2    
   154   77   79 am   BACKBONE|DICT|INTERRES
   155   79   80 1    
   156   79  200 1    
   157   80   81 1    
   158   80   82 1    
   159   80  201 1    
   160   81  202 1    
   161   81  203 1    
   162   81  204 1    
   163   82   83 2    
   164   82   84 am   BACKBONE|DICT|INTERRES
   165   84   85 1    
   166   84  205 1    
   167   85   86 1    
   168   85   87 1    
   169   85  206 1    
   170   86  207 1    
   171   86  208 1    
   172   86  209 1    
   173   87   88 2    
   174   87   89 am   BACKBONE|DICT|INTERRES
   175   89   90 1    
   176   89  210 1    
   177   90   91 1    
   178   90   92 1    
   179   90  211 1    
   180   91  212 1    
   181   91  213 1    
   182   91  214 1    
   183   92   93 2    
   184   92   94 am   BACKBONE|DICT|INTERRES
   185   94   95 1    
   186   94  215 1    
   187   95   96 1    
   188   95   97 1    
   189   95  216 1    
   190   96  217 1    
   191   96  218 1    
   192   96  219 1    
   193   97   98 2    
   194   97   99 am   BACKBONE|DICT|INTERRES
   195   99  100 1    
   196   99  220 1    
   197  100  101 1    
   198  100  102 1    
   199  100  221 1    
   200  101  222 1    
   201  101  223 1    
   202  101  224 1    
   203  102  103 2    
   204  102  104 am   BACKBONE|DICT|INTERRES
   205  104  105 1    
   206  104  225 1    
   207  105  106 1    
   208  105  107 1    
   209  105  226 1    
   210  106  227 1    
   211  106  228 1    
   212  106  229 1    
   213  107  108 2    
   214  107  109 am   BACKBONE|DICT|INTERRES
   215  109  110 1    
   216  109  230 1    
   217  110  111 1    
   218  110  112 1    
   219  110  231 1    
   220  111  232 1    
   221  111  233 1    
   222  111  234 1    
   223  112  113 2    
   224  112  114 am   BACKBONE|DICT|INTERRES
   225  114  115 1    
   226  114  235 1    
   227  115  116 1    
   228  115  117 1    
   229  115  236 1    
   230  116  237 1    
   231  116  238 1    
   232  116  239 1    
   233  117  118 2    
   234  117  119 am   BACKBONE|DICT|INTERRES
   235  119  120 1    
   236  119  240 1    
   237  120  121 1    
   238  120  124 1    
   239  120  241 1    
   240  121  122 am   BACKBONE|DICT|INTERRES
   241  121  123 2    
   242  122  242 1    
   243  122  243 1    
   244  124  125 1    
   245  124  244 1    
   246  124  245 1    
   247  125  126 1    
   248  126  246 1    
   249  126  247 1    
@<TRIPOS>SUBSTRUCTURE
     1 UNK         1 GROUP             0       ****    0 ROOT    
