@<TRIPOS>MOLECULE
3R540
247   249    1
SMALL
USER_CHARGES


@<TRIPOS>ATOM
      1 CA          3.6450  -11.0056  -45.8340 C.3       0 UNK        -0.1800 
      2 C           4.0151  -11.3684  -47.2629 C.2       0 UNK         0.5000 
      3 O           4.9493  -10.7884  -47.8171 O.2       0 UNK        -0.5000 
      4 N           3.2963  -12.3305  -47.8540 N.am      1 UNK        -0.5000 
      5 CA          3.4798  -12.8265  -49.2231 C.3       1 UNK         0.1400 
      6 C6          2.3167  -13.7471  -49.6739 C.3       23 UNK        -0.0398 
      7 S7          0.6644  -12.9898  -49.4854 S.3       23 UNK        -0.2404 
      8 C8          0.0410  -13.8113  -47.9800 C.3       23 UNK        -0.0205 
      9 C9         -0.4312  -15.2333  -48.2481 C.ar      23 UNK        -0.0193 
     10 C10        -1.7488  -15.4664  -48.6509 C.ar      23 UNK        -0.1150 
     11 C11        -2.2037  -16.7674  -48.8845 C.ar      23 UNK        -0.0193 
     12 C12        -1.3181  -17.8394  -48.7362 C.ar      23 UNK        -0.1150 
     13 C13         0.0050  -17.6207  -48.3371 C.ar      23 UNK        -0.0193 
     14 C14         0.4351  -16.3175  -48.0758 C.ar      23 UNK        -0.1150 
     15 C15         0.9806  -18.7852  -48.2191 C.3       23 UNK        -0.0205 
     16 S16         1.4627  -19.1587  -46.4985 S.3       23 UNK        -0.2404 
     17 C17        -0.1269  -19.6187  -45.7317 C.3       23 UNK        -0.0398 
     18 CA         -0.4066  -21.1420  -45.7003 C.3       11 UNK         0.1400 
     19 N          -1.5014  -21.4553  -44.7807 N.am      11 UNK        -0.5000 
     20 C          -1.9561  -22.6782  -44.4776 C.2       10 UNK         0.5000 
     21 O          -1.4495  -23.7206  -44.8864 O.2       10 UNK        -0.5000 
     22 CA         -3.2280  -22.7447  -43.6163 C.3       10 UNK         0.1400 
     23 CB         -2.8865  -22.6372  -42.1233 C.3       10 UNK        -0.1800 
     24 N          -4.1880  -21.7027  -43.9824 N.am      10 UNK        -0.5000 
     25 C          -4.8826  -21.6843  -45.1287 C.2       9 UNK         0.5000 
     26 O          -4.8136  -22.5649  -45.9867 O.2       9 UNK        -0.5000 
     27 CA         -5.7698  -20.4498  -45.3744 C.3       9 UNK         0.1400 
     28 CB         -7.1093  -20.5822  -44.6351 C.3       9 UNK        -0.1800 
     29 N          -5.1174  -19.1955  -44.9894 N.am      9 UNK        -0.5000 
     30 C          -4.0397  -18.7002  -45.6124 C.2       8 UNK         0.5000 
     31 O          -3.4902  -19.2597  -46.5607 O.2       8 UNK        -0.5000 
     32 CA         -3.4533  -17.3842  -45.0648 C.3       8 UNK         0.1400 
     33 CB         -4.2706  -16.1801  -45.5551 C.3       8 UNK        -0.1800 
     34 N          -3.3385  -17.3083  -43.6050 N.am      8 UNK        -0.5000 
     35 C          -2.7534  -18.2097  -42.8038 C.2       7 UNK         0.5000 
     36 O          -2.3597  -19.3111  -43.1861 O.2       7 UNK        -0.5000 
     37 CA         -2.5620  -17.7859  -41.3317 C.3       7 UNK         0.1400 
     38 CB         -1.6699  -18.7638  -40.5392 C.3       7 UNK        -0.1800 
     39 N          -2.0611  -16.4119  -41.1827 N.am      7 UNK        -0.5000 
     40 C          -0.9387  -15.8919  -41.7068 C.2       6 UNK         0.5000 
     41 O          -0.1884  -16.5046  -42.4688 O.2       6 UNK        -0.5000 
     42 CA         -0.6415  -14.4299  -41.3048 C.3       6 UNK         0.1400 
     43 CB         -0.3818  -14.3003  -39.7884 C.3       6 UNK        -0.1800 
     44 N           0.4385  -13.7928  -42.0716 N.am      6 UNK        -0.5000 
     45 C           1.7460  -14.0930  -42.0797 C.2       5 UNK         0.5000 
     46 O           2.2718  -14.9806  -41.4026 O.2       5 UNK        -0.5000 
     47 CA          2.6280  -13.1884  -42.9559 C.3       5 UNK         0.1400 
     48 CB          3.2431  -12.0604  -42.1121 C.3       5 UNK        -0.1800 
     49 N           3.7060  -13.9556  -43.5744 N.am      5 UNK        -0.5000 
     50 C           3.6175  -14.5733  -44.7565 C.2       4 UNK         0.5000 
     51 O           2.6446  -14.4760  -45.5063 O.2       4 UNK        -0.5000 
     52 CA          4.8594  -15.3684  -45.1994 C.3       4 UNK         0.1400 
     53 CB          4.5031  -16.5240  -46.1512 C.3       4 UNK        -0.1800 
     54 N           5.8129  -14.4640  -45.8463 N.am      4 UNK        -0.5000 
     55 C           6.6804  -13.6871  -45.1785 C.2       3 UNK         0.5000 
     56 O           6.8172  -13.7447  -43.9551 O.2       3 UNK        -0.5000 
     57 CA          7.4950  -12.6337  -45.9617 C.3       3 UNK         0.1400 
     58 CB          8.9910  -12.6463  -45.5840 C.3       3 UNK        -0.1800 
     59 N           7.2951  -12.6504  -47.4148 N.am      3 UNK        -0.5000 
     60 C           7.7606  -13.5273  -48.3179 C.2       2 UNK         0.5000 
     61 O           8.4931  -14.4791  -48.0454 O.2       2 UNK        -0.5000 
     62 CA          7.2759  -13.3002  -49.7705 C.3       2 UNK         0.1400 
     63 CB          7.5294  -14.5110  -50.6932 C.3       2 UNK        -0.1800 
     64 N           5.8662  -12.8838  -49.8235 N.am      2 UNK        -0.5000 
     65 C           4.8288  -13.5655  -49.3161 C.2       1 UNK         0.5000 
     66 O           4.9271  -14.6968  -48.8424 O.2       1 UNK        -0.5000 
     67 C          -0.6850  -21.7056  -47.1085 C.2       11 UNK         0.5000 
     68 O           0.1556  -22.4172  -47.6583 O.2       11 UNK        -0.5000 
     69 N          -1.8770  -21.4145  -47.6488 N.am      12 UNK        -0.5000 
     70 CA         -2.3240  -21.8956  -48.9546 C.3       12 UNK         0.1400 
     71 CB         -3.6279  -21.1885  -49.3397 C.3       12 UNK        -0.1800 
     72 C          -2.4974  -23.4245  -49.0037 C.2       12 UNK         0.5000 
     73 O          -2.1773  -24.0375  -50.0237 O.2       12 UNK        -0.5000 
     74 N          -2.9820  -24.0206  -47.9054 N.am      13 UNK        -0.5000 
     75 CA         -3.0929  -25.4698  -47.7367 C.3       13 UNK         0.1400 
     76 CB         -3.9326  -25.7893  -46.4919 C.3       13 UNK        -0.1800 
     77 C          -1.7181  -26.1604  -47.6740 C.2       13 UNK         0.5000 
     78 O          -1.5223  -27.1703  -48.3491 O.2       13 UNK        -0.5000 
     79 N          -0.7761  -25.5835  -46.9136 N.am      14 UNK        -0.5000 
     80 CA          0.6117  -26.0442  -46.8006 C.3       14 UNK         0.1400 
     81 CB          1.3249  -25.2631  -45.6868 C.3       14 UNK        -0.1800 
     82 C           1.3915  -25.9370  -48.1247 C.2       14 UNK         0.5000 
     83 O           2.2099  -26.8075  -48.4222 O.2       14 UNK        -0.5000 
     84 N           1.0873  -24.8997  -48.9161 N.am      15 UNK        -0.5000 
     85 CA          1.5866  -24.6981  -50.2780 C.3       15 UNK         0.1400 
     86 CB          1.3503  -23.2315  -50.6753 C.3       15 UNK        -0.1800 
     87 C           0.9532  -25.6480  -51.3191 C.2       15 UNK         0.5000 
     88 O           1.4037  -25.6594  -52.4651 O.2       15 UNK        -0.5000 
     89 N          -0.0816  -26.4042  -50.9178 N.am      16 UNK        -0.5000 
     90 CA         -0.8876  -27.3353  -51.7166 C.3       16 UNK         0.1400 
     91 CB         -0.0248  -28.4863  -52.2747 C.3       16 UNK        -0.1800 
     92 C          -1.7414  -26.6430  -52.8003 C.2       16 UNK         0.5000 
     93 O          -2.1781  -27.2985  -53.7480 O.2       16 UNK        -0.5000 
     94 N          -1.9832  -25.3374  -52.6335 N.am      17 UNK        -0.5000 
     95 CA         -2.8288  -24.5245  -53.5040 C.3       17 UNK         0.1400 
     96 CB         -2.2780  -23.0898  -53.5189 C.3       17 UNK        -0.1800 
     97 C          -4.2938  -24.5355  -53.0327 C.2       17 UNK         0.5000 
     98 O          -5.1948  -24.4730  -53.8695 O.2       17 UNK        -0.5000 
     99 N          -4.4828  -24.6221  -51.7055 N.am      18 UNK        -0.5000 
    100 CA        -5.7255  -24.4797  -50.9379 C.3       18 UNK         0.1400 
    101 CB        -6.8131  -25.4633  -51.4118 C.3       18 UNK        -0.1800 
    102 C         -6.2419  -23.0281  -50.9202 C.2       18 UNK         0.5000 
    103 O         -5.9086  -22.2274  -51.7955 O.2       18 UNK        -0.5000 
    104 N         -7.0562  -22.7016  -49.9068 N.am      19 UNK        -0.5000 
    105 CA        -7.5733  -21.3511  -49.6416 C.3       19 UNK         0.1400 
    106 CB        -8.4063  -21.3782  -48.3520 C.3       19 UNK        -0.1800 
    107 C         -8.3842  -20.7353  -50.8006 C.2       19 UNK         0.5000 
    108 O         -8.4194  -19.5117  -50.9351 O.2       19 UNK        -0.5000 
    109 N         -8.9709  -21.5929  -51.6463 N.am      20 UNK        -0.5000 
    110 CA        -9.6707  -21.2328  -52.8793 C.3       20 UNK         0.1400 
    111 CB       -10.3323  -22.4942  -53.4556 C.3       20 UNK        -0.1800 
    112 C         -8.7769  -20.5606  -53.9436 C.2       20 UNK         0.5000 
    113 O         -9.3071  -19.8438  -54.7933 O.2       20 UNK        -0.5000 
    114 N         -7.4539  -20.7847  -53.8891 N.am      21 UNK        -0.5000 
    115 CA        -6.4810  -20.1278  -54.7651 C.3       21 UNK         0.1400 
    116 CB        -5.1479  -20.8874  -54.7233 C.3       21 UNK        -0.1800 
    117 C         -6.2719  -18.6488  -54.3933 C.2       21 UNK         0.5000 
    118 O         -6.1184  -17.8156  -55.2877 O.2       21 UNK        -0.5000 
    119 N         -6.2864  -18.3509  -53.0879 N.am      22 UNK        -0.5000 
    120 CA        -6.2687  -16.9823  -52.5534 C.3       22 UNK         0.1400 
    121 C         -7.6701  -16.3148  -52.6130 C.2       22 UNK         0.5000 
    122 N         -8.7401  -17.0175  -52.2621 N.am      22 UNK        -0.7600 
    123 O         -7.7877  -15.1497  -52.9824 O.2       22 UNK        -0.5000 
    124 C124       -5.7052  -16.9291  -51.1132 C.3       23 UNK        -0.0398 
    125 S125       -3.9155  -17.2767  -51.0294 S.3       23 UNK        -0.2404 
    126 C126       -3.6621  -17.0049  -49.2503 C.3       23 UNK        -0.0205 
    127 H127        4.3889  -11.4004  -45.1430 H         1 UNK         0.0600 
    128 H128        2.6695  -11.4070  -45.5617 H         1 UNK         0.0600 
    129 H129        3.6081   -9.9226  -45.7167 H         1 UNK         0.0600 
    130 H130        2.5918  -12.8142  -47.3146 H         1 UNK         0.3000 
    131 H131        3.5043  -11.9644  -49.8930 H         1 UNK         0.0600 
    132 H132        2.4396  -14.0086  -50.7261 H         1 UNK         0.0800 
    133 H133        2.3439  -14.6909  -49.1334 H         1 UNK         0.0800 
    134 H134        0.8077  -13.8066  -47.2066 H         1 UNK         0.0800 
    135 H135       -0.7869  -13.2231  -47.5814 H         1 UNK         0.0800 
    136 H136       -2.4250  -14.6315  -48.7705 H         1 UNK         0.1150 
    137 H137       -1.6620  -18.8449  -48.9256 H         1 UNK         0.1150 
    138 H138        1.4491  -16.1534  -47.7396 H         1 UNK         0.1150 
    139 H139        0.5725  -19.6798  -48.6900 H         1 UNK         0.0800 
    140 H140        1.8830  -18.5418  -48.7816 H         1 UNK         0.0800 
    141 H141       -0.9407  -19.0759  -46.2081 H         1 UNK         0.0800 
    142 H142       -0.0889  -19.2388  -44.7097 H         1 UNK         0.0800 
    143 H143        0.4818  -21.6452  -45.3132 H         1 UNK         0.0600 
    144 H144       -1.9537  -20.6590  -44.3358 H         1 UNK         0.3000 
    145 H145       -3.6984  -23.7153  -43.7858 H         1 UNK         0.0600 
    146 H146       -3.7821  -22.7104  -41.5061 H         1 UNK         0.0600 
    147 H147       -2.2155  -23.4420  -41.8203 H         1 UNK         0.0600 
    148 H148       -2.3919  -21.6951  -41.8891 H         1 UNK         0.0600 
    149 H149       -4.2460  -20.9040  -43.3676 H         1 UNK         0.3000 
    150 H150       -5.9773  -20.4042  -46.4457 H         1 UNK         0.0600 
    151 H151       -7.6165  -21.5084  -44.9087 H         1 UNK         0.0600 
    152 H152       -7.7799  -19.7601  -44.8859 H         1 UNK         0.0600 
    153 H153       -6.9749  -20.5889  -43.5528 H         1 UNK         0.0600 
    154 H154       -5.5064  -18.6891  -44.2078 H         1 UNK         0.3000 
    155 H155       -2.4440  -17.2905  -45.4703 H         1 UNK         0.0600 
    156 H156       -5.2619  -16.1539  -45.1013 H         1 UNK         0.0600 
    157 H157       -3.7680  -15.2415  -45.3210 H         1 UNK         0.0600 
    158 H158       -4.4088  -16.2094  -46.6341 H         1 UNK         0.0600 
    159 H159       -3.6284  -16.4366  -43.1870 H         1 UNK         0.3000 
    160 H160       -3.5541  -17.8057  -40.8785 H         1 UNK         0.0600 
    161 H161       -0.6757  -18.8505  -40.9789 H         1 UNK         0.0600 
    162 H162       -2.1076  -19.7617  -40.5157 H         1 UNK         0.0600 
    163 H163       -1.5516  -18.4403  -39.5051 H         1 UNK         0.0600 
    164 H164       -2.6225  -15.8171  -40.5891 H         1 UNK         0.3000 
    165 H165       -1.5398  -13.8561  -41.5377 H         1 UNK         0.0600 
    166 H166       -0.1536  -13.2704  -39.5138 H         1 UNK         0.0600 
    167 H167       -1.2555  -14.5995  -39.2089 H         1 UNK         0.0600 
    168 H168        0.4500  -14.9256  -39.4630 H         1 UNK         0.0600 
    169 H169        0.1304  -13.0503  -42.6834 H         1 UNK         0.3000 
    170 H170        2.0073  -12.7358  -43.7314 H         1 UNK         0.0600 
    171 H171        3.8726  -12.4530  -41.3124 H         1 UNK         0.0600 
    172 H172        3.8545  -11.3961  -42.7225 H         1 UNK         0.0600 
    173 H173        2.4660  -11.4512  -41.6486 H         1 UNK         0.0600 
    174 H174        4.5467  -14.0733  -43.0255 H         1 UNK         0.3000 
    175 H175        5.3205  -15.8121  -44.3143 H         1 UNK         0.0600 
    176 H176        5.3974  -17.0388  -46.5023 H         1 UNK         0.0600 
    177 H177        3.9468  -16.1856  -47.0245 H         1 UNK         0.0600 
    178 H178        3.8807  -17.2607  -45.6425 H         1 UNK         0.0600 
    179 H179        5.7307  -14.3751  -46.8521 H         1 UNK         0.3000 
    180 H180        7.0976  -11.6707  -45.6381 H         1 UNK         0.0600 
    181 H181        9.4521  -13.6157  -45.7732 H         1 UNK         0.0600 
    182 H182        9.1266  -12.4280  -44.5242 H         1 UNK         0.0600 
    183 H183        9.5468  -11.8926  -46.1418 H         1 UNK         0.0600 
    184 H184        6.6640  -11.9312  -47.7551 H         1 UNK         0.3000 
    185 H185        7.8599  -12.4640  -50.1577 H         1 UNK         0.0600 
    186 H186        8.5946  -14.7363  -50.7564 H         1 UNK         0.0600 
    187 H187        7.0276  -15.4099  -50.3340 H         1 UNK         0.0600 
    188 H188        7.1798  -14.3140  -51.7065 H         1 UNK         0.0600 
    189 H189        5.7045  -11.9371  -50.1402 H         1 UNK         0.3000 
    190 H190       -2.5113  -20.7966  -47.1483 H         1 UNK         0.3000 
    191 H191       -1.5618  -21.6219  -49.6868 H         1 UNK         0.0600 
    192 H192       -3.5344  -20.1066  -49.2734 H         1 UNK         0.0600 
    193 H193       -3.8915  -21.4171  -50.3709 H         1 UNK         0.0600 
    194 H194       -4.4566  -21.4901  -48.6981 H         1 UNK         0.0600 
    195 H195       -3.2816  -23.4454  -47.1258 H         1 UNK         0.3000 
    196 H196       -3.6205  -25.8686  -48.6054 H         1 UNK         0.0600 
    197 H197       -4.0569  -26.8661  -46.3714 H         1 UNK         0.0600 
    198 H198       -4.9288  -25.3529  -46.5663 H         1 UNK         0.0600 
    199 H199       -3.4685  -25.4094  -45.5822 H         1 UNK         0.0600 
    200 H200       -1.0288  -24.7772  -46.3460 H         1 UNK         0.3000 
    201 H201        0.5897  -27.0981  -46.5158 H         1 UNK         0.0600 
    202 H202        0.8296  -25.4067  -44.7264 H         1 UNK         0.0600 
    203 H203        1.3452  -24.1930  -45.8953 H         1 UNK         0.0600 
    204 H204        2.3572  -25.5965  -45.5734 H         1 UNK         0.0600 
    205 H205        0.4681  -24.1820  -48.5513 H         1 UNK         0.3000 
    206 H206        2.6625  -24.8835  -50.2804 H         1 UNK         0.0600 
    207 H207        1.8291  -22.5494  -49.9724 H         1 UNK         0.0600 
    208 H208        1.7618  -23.0203  -51.6630 H         1 UNK         0.0600 
    209 H209        0.2878  -22.9899  -50.7051 H         1 UNK         0.0600 
    210 H210       -0.3753  -26.3200  -49.9521 H         1 UNK         0.3000 
    211 H211       -1.6023  -27.7771  -51.0215 H         1 UNK         0.0600 
    212 H212        0.6586  -28.1435  -53.0517 H         1 UNK         0.0600 
    213 H213       -0.6493  -29.2657  -52.7128 H         1 UNK         0.0600 
    214 H214        0.5672  -28.9523  -51.4870 H         1 UNK         0.0600 
    215 H215       -1.6360  -24.8887  -51.7928 H         1 UNK         0.3000 
    216 H216       -2.7924  -24.9146  -54.5233 H         1 UNK         0.0600 
    217 H217       -2.8260  -22.4719  -54.2296 H         1 UNK         0.0600 
    218 H218       -1.2297  -23.0727  -53.8175 H         1 UNK         0.0600 
    219 H219       -2.3554  -22.6149  -52.5397 H         1 UNK         0.0600 
    220 H220       -3.6402  -24.6207  -51.1399 H         1 UNK         0.3000 
    221 H221       -5.4643  -24.7388  -49.9110 H         1 UNK         0.0600 
    222 H222       -7.2118  -25.1941  -52.3902 H         1 UNK         0.0600 
    223 H223       -6.4252  -26.4801  -51.4748 H         1 UNK         0.0600 
    224 H224       -7.6531  -25.4802  -50.7168 H         1 UNK         0.0600 
    225 H225       -7.3009  -23.4096  -49.2295 H         1 UNK         0.3000 
    226 H226       -6.7129  -20.6997  -49.4756 H         1 UNK         0.0600 
    227 H227       -9.2865  -22.0138  -48.4559 H         1 UNK         0.0600 
    228 H228       -7.8212  -21.7510  -47.5115 H         1 UNK         0.0600 
    229 H229       -8.7519  -20.3776  -48.0885 H         1 UNK         0.0600 
    230 H230       -8.8739  -22.5792  -51.4574 H         1 UNK         0.3000 
    231 H231      -10.4566  -20.5209  -52.6188 H         1 UNK         0.0600 
    232 H232       -9.5926  -23.2542  -53.7107 H         1 UNK         0.0600 
    233 H233      -10.8920  -22.2630  -54.3630 H         1 UNK         0.0600 
    234 H234      -11.0344  -22.9320  -52.7458 H         1 UNK         0.0600 
    235 H235       -7.0738  -21.3837  -53.1618 H         1 UNK         0.3000 
    236 H236       -6.8574  -20.1675  -55.7896 H         1 UNK         0.0600 
    237 H237       -5.2814  -21.9324  -55.0025 H         1 UNK         0.0600 
    238 H238       -4.4295  -20.4528  -55.4193 H         1 UNK         0.0600 
    239 H239       -4.6986  -20.8590  -53.7301 H         1 UNK         0.0600 
    240 H240       -6.4498  -19.0927  -52.4234 H         1 UNK         0.3000 
    241 H241       -5.6098  -16.3781  -53.1808 H         1 UNK         0.0600 
    242 H242       -9.6504  -16.5884  -52.3051 H         1 UNK         0.3800 
    243 H243       -8.6445  -17.9566  -51.8816 H         1 UNK         0.3800 
    244 H244       -5.8622  -15.9362  -50.6869 H         1 UNK         0.0800 
    245 H245       -6.2370  -17.6283  -50.4653 H         1 UNK         0.0800 
    246 H246       -4.2567  -16.1460  -48.9377 H         1 UNK         0.0800 
    247 H247       -4.0529  -17.8600  -48.6999 H         1 UNK         0.0800 
@<TRIPOS>BOND
     1    1    2 1    
     2    1  127 1    
     3    1  128 1    
     4    1  129 1    
     5    2    3 2    
     6    2    4 am   BACKBONE|DICT|INTERRES
     7    4    5 1    
     8    4  130 1    
     9    5    6 1    
    10    5   65 1    
    11    5  131 1    
    12    6    7 1    
    13    6  132 1    
    14    6  133 1    
    15    7    8 1    
    16    8    9 1    
    17    8  134 1    
    18    8  135 1    
    19    9   10 ar   
    20    9   14 ar   
    21   10   11 ar   
    22   10  136 1    
    23   11   12 ar   
    24   11  126 1    
    25   12   13 ar   
    26   12  137 1    
    27   13   14 ar   
    28   13   15 1    
    29   14  138 1    
    30   15   16 1    
    31   15  139 1    
    32   15  140 1    
    33   16   17 1    
    34   17   18 1    
    35   17  141 1    
    36   17  142 1    
    37   18   19 1    
    38   18   67 1    
    39   18  143 1    
    40   19   20 am   BACKBONE|DICT|INTERRES
    41   19  144 1    
    42   20   21 2    
    43   20   22 1    
    44   22   23 1    
    45   22   24 1    
    46   22  145 1    
    47   23  146 1    
    48   23  147 1    
    49   23  148 1    
    50   24   25 am   BACKBONE|DICT|INTERRES
    51   24  149 1    
    52   25   26 2    
    53   25   27 1    
    54   27   28 1    
    55   27   29 1    
    56   27  150 1    
    57   28  151 1    
    58   28  152 1    
    59   28  153 1    
    60   29   30 am   BACKBONE|DICT|INTERRES
    61   29  154 1    
    62   30   31 2    
    63   30   32 1    
    64   32   33 1    
    65   32   34 1    
    66   32  155 1    
    67   33  156 1    
    68   33  157 1    
    69   33  158 1    
    70   34   35 am   BACKBONE|DICT|INTERRES
    71   34  159 1    
    72   35   36 2    
    73   35   37 1    
    74   37   38 1    
    75   37   39 1    
    76   37  160 1    
    77   38  161 1    
    78   38  162 1    
    79   38  163 1    
    80   39   40 am   BACKBONE|DICT|INTERRES
    81   39  164 1    
    82   40   41 2    
    83   40   42 1    
    84   42   43 1    
    85   42   44 1    
    86   42  165 1    
    87   43  166 1    
    88   43  167 1    
    89   43  168 1    
    90   44   45 am   BACKBONE|DICT|INTERRES
    91   44  169 1    
    92   45   46 2    
    93   45   47 1    
    94   47   48 1    
    95   47   49 1    
    96   47  170 1    
    97   48  171 1    
    98   48  172 1    
    99   48  173 1    
   100   49   50 am   BACKBONE|DICT|INTERRES
   101   49  174 1    
   102   50   51 2    
   103   50   52 1    
   104   52   53 1    
   105   52   54 1    
   106   52  175 1    
   107   53  176 1    
   108   53  177 1    
   109   53  178 1    
   110   54   55 am   BACKBONE|DICT|INTERRES
   111   54  179 1    
   112   55   56 2    
   113   55   57 1    
   114   57   58 1    
   115   57   59 1    
   116   57  180 1    
   117   58  181 1    
   118   58  182 1    
   119   58  183 1    
   120   59   60 am   BACKBONE|DICT|INTERRES
   121   59  184 1    
   122   60   61 2    
   123   60   62 1    
   124   62   63 1    
   125   62   64 1    
   126   62  185 1    
   127   63  186 1    
   128   63  187 1    
   129   63  188 1    
   130   64   65 am   BACKBONE|DICT|INTERRES
   131   64  189 1    
   132   65   66 2    
   133   67   68 2    
   134   67   69 am   BACKBONE|DICT|INTERRES
   135   69   70 1    
   136   69  190 1    
   137   70   71 1    
   138   70   72 1    
   139   70  191 1    
   140   71  192 1    
   141   71  193 1    
   142   71  194 1    
   143   72   73 2    
   144   72   74 am   BACKBONE|DICT|INTERRES
   145   74   75 1    
   146   74  195 1    
   147   75   76 1    
   148   75   77 1    
   149   75  196 1    
   150   76  197 1    
   151   76  198 1    
   152   76  199 1    
   153   77   78 2    
   154   77   79 am   BACKBONE|DICT|INTERRES
   155   79   80 1    
   156   79  200 1    
   157   80   81 1    
   158   80   82 1    
   159   80  201 1    
   160   81  202 1    
   161   81  203 1    
   162   81  204 1    
   163   82   83 2    
   164   82   84 am   BACKBONE|DICT|INTERRES
   165   84   85 1    
   166   84  205 1    
   167   85   86 1    
   168   85   87 1    
   169   85  206 1    
   170   86  207 1    
   171   86  208 1    
   172   86  209 1    
   173   87   88 2    
   174   87   89 am   BACKBONE|DICT|INTERRES
   175   89   90 1    
   176   89  210 1    
   177   90   91 1    
   178   90   92 1    
   179   90  211 1    
   180   91  212 1    
   181   91  213 1    
   182   91  214 1    
   183   92   93 2    
   184   92   94 am   BACKBONE|DICT|INTERRES
   185   94   95 1    
   186   94  215 1    
   187   95   96 1    
   188   95   97 1    
   189   95  216 1    
   190   96  217 1    
   191   96  218 1    
   192   96  219 1    
   193   97   98 2    
   194   97   99 am   BACKBONE|DICT|INTERRES
   195   99  100 1    
   196   99  220 1    
   197  100  101 1    
   198  100  102 1    
   199  100  221 1    
   200  101  222 1    
   201  101  223 1    
   202  101  224 1    
   203  102  103 2    
   204  102  104 am   BACKBONE|DICT|INTERRES
   205  104  105 1    
   206  104  225 1    
   207  105  106 1    
   208  105  107 1    
   209  105  226 1    
   210  106  227 1    
   211  106  228 1    
   212  106  229 1    
   213  107  108 2    
   214  107  109 am   BACKBONE|DICT|INTERRES
   215  109  110 1    
   216  109  230 1    
   217  110  111 1    
   218  110  112 1    
   219  110  231 1    
   220  111  232 1    
   221  111  233 1    
   222  111  234 1    
   223  112  113 2    
   224  112  114 am   BACKBONE|DICT|INTERRES
   225  114  115 1    
   226  114  235 1    
   227  115  116 1    
   228  115  117 1    
   229  115  236 1    
   230  116  237 1    
   231  116  238 1    
   232  116  239 1    
   233  117  118 2    
   234  117  119 am   BACKBONE|DICT|INTERRES
   235  119  120 1    
   236  119  240 1    
   237  120  121 1    
   238  120  124 1    
   239  120  241 1    
   240  121  122 am   BACKBONE|DICT|INTERRES
   241  121  123 2    
   242  122  242 1    
   243  122  243 1    
   244  124  125 1    
   245  124  244 1    
   246  124  245 1    
   247  125  126 1    
   248  126  246 1    
   249  126  247 1    
@<TRIPOS>SUBSTRUCTURE
     1 UNK         1 GROUP             0       ****    0 ROOT    
