@<TRIPOS>MOLECULE
3R540
247   249    1
SMALL
USER_CHARGES


@<TRIPOS>ATOM
      1 CA         -7.0304  -16.6905  -46.2194 C.3       0 UNK        -0.1800 
      2 C          -6.1499  -15.4539  -46.2967 C.2       0 UNK         0.5000 
      3 O          -6.6255  -14.3474  -46.0415 O.2       0 UNK        -0.5000 
      4 N          -4.8705  -15.6319  -46.6417 N.am      1 UNK        -0.5000 
      5 CA         -3.8933  -14.5595  -46.8316 C.3       1 UNK         0.1400 
      6 C6         -3.0194  -14.7784  -48.0915 C.3       23 UNK        -0.0398 
      7 S7         -3.9548  -15.0622  -49.6360 S.3       23 UNK        -0.2404 
      8 C8         -3.3846  -16.7270  -50.1190 C.3       23 UNK        -0.0205 
      9 C9         -1.9049  -16.7421  -50.4835 C.ar      23 UNK        -0.0193 
     10 C10        -1.4827  -16.3674  -51.7606 C.ar      23 UNK        -0.1150 
     11 C11        -0.1221  -16.3581  -52.0829 C.ar      23 UNK        -0.0193 
     12 C12         0.8177  -16.7270  -51.1140 C.ar      23 UNK        -0.1150 
     13 C13         0.4109  -17.1192  -49.8347 C.ar      23 UNK        -0.0193 
     14 C14        -0.9540  -17.1279  -49.5368 C.ar      23 UNK        -0.1150 
     15 C15         1.4548  -17.4726  -48.7765 C.3       23 UNK        -0.0205 
     16 S16         1.1577  -19.0670  -47.9330 S.3       23 UNK        -0.2404 
     17 C17         0.0381  -18.5816  -46.5760 C.3       23 UNK        -0.0398 
     18 CA         -1.2617  -19.4193  -46.5680 C.3       11 UNK         0.1400 
     19 N          -1.0129  -20.7630  -46.0427 N.am      11 UNK        -0.5000 
     20 C          -1.9075  -21.7526  -45.9371 C.2       10 UNK         0.5000 
     21 O          -3.0733  -21.6674  -46.3216 O.2       10 UNK        -0.5000 
     22 CA         -1.4343  -23.0295  -45.2194 C.3       10 UNK         0.1400 
     23 CB         -0.8782  -24.0370  -46.2359 C.3       10 UNK        -0.1800 
     24 N          -0.4275  -22.8001  -44.1755 N.am      10 UNK        -0.5000 
     25 C          -0.5398  -21.9858  -43.1175 C.2       9 UNK         0.5000 
     26 O          -1.5029  -21.2403  -42.9366 O.2       9 UNK        -0.5000 
     27 CA          0.6161  -21.9728  -42.0965 C.3       9 UNK         0.1400 
     28 CB          0.4380  -23.0923  -41.0548 C.3       9 UNK        -0.1800 
     29 N           1.9739  -21.9890  -42.6604 N.am      9 UNK        -0.5000 
     30 C           2.5971  -22.9468  -43.3670 C.2       8 UNK         0.5000 
     31 O           2.0569  -23.9894  -43.7381 O.2       8 UNK        -0.5000 
     32 CA          4.0774  -22.7017  -43.7298 C.3       8 UNK         0.1400 
     33 CB          4.1853  -22.1265  -45.1507 C.3       8 UNK        -0.1800 
     34 N           4.7674  -21.8030  -42.8012 N.am      8 UNK        -0.5000 
     35 C           5.0020  -22.0596  -41.5059 C.2       7 UNK         0.5000 
     36 O           4.7687  -23.1467  -40.9761 O.2       7 UNK        -0.5000 
     37 CA          5.5684  -20.9088  -40.6445 C.3       7 UNK         0.1400 
     38 CB          7.0546  -21.1526  -40.3382 C.3       7 UNK        -0.1800 
     39 N           5.4210  -19.5587  -41.2070 N.am      7 UNK        -0.5000 
     40 C           4.2729  -18.9581  -41.5506 C.2       6 UNK         0.5000 
     41 O           3.1731  -19.5178  -41.5053 O.2       6 UNK        -0.5000 
     42 CA          4.3653  -17.5089  -42.0647 C.3       6 UNK         0.1400 
     43 CB          5.6806  -17.1978  -42.8104 C.3       6 UNK        -0.1800 
     44 N           3.2281  -17.2715  -42.9447 N.am      6 UNK        -0.5000 
     45 C           2.6462  -16.0966  -43.1950 C.2       5 UNK         0.5000 
     46 O           3.0105  -15.0226  -42.7099 O.2       5 UNK        -0.5000 
     47 CA          1.4252  -16.1716  -44.1289 C.3       5 UNK         0.1400 
     48 CB          0.1834  -16.6625  -43.3691 C.3       5 UNK        -0.1800 
     49 N           1.0982  -14.9103  -44.7830 N.am      5 UNK        -0.5000 
     50 C           1.8450  -14.2936  -45.7069 C.2       4 UNK         0.5000 
     51 O           2.9334  -14.7146  -46.1010 O.2       4 UNK        -0.5000 
     52 CA          1.2595  -13.0139  -46.3314 C.3       4 UNK         0.1400 
     53 CB          0.7117  -13.3245  -47.7346 C.3       4 UNK        -0.1800 
     54 N           0.1806  -12.4427  -45.5197 N.am      4 UNK        -0.5000 
     55 C           0.3435  -11.4811  -44.5999 C.2       3 UNK         0.5000 
     56 O           1.4279  -10.9525  -44.3521 O.2       3 UNK        -0.5000 
     57 CA         -0.9108  -11.0157  -43.8302 C.3       3 UNK         0.1400 
     58 CB         -1.5044   -9.7602  -44.4876 C.3       3 UNK        -0.1800 
     59 N          -1.9538  -12.0394  -43.7409 N.am      3 UNK        -0.5000 
     60 C          -1.8969  -13.1178  -42.9474 C.2       2 UNK         0.5000 
     61 O          -0.9793  -13.3334  -42.1565 O.2       2 UNK        -0.5000 
     62 CA         -3.0344  -14.1522  -43.0861 C.3       2 UNK         0.1400 
     63 CB         -4.1160  -13.9205  -42.0216 C.3       2 UNK        -0.1800 
     64 N          -3.6675  -14.1964  -44.4105 N.am      2 UNK        -0.5000 
     65 C          -3.0280  -14.4521  -45.5600 C.2       1 UNK         0.5000 
     66 O          -1.8086  -14.6166  -45.6226 O.2       1 UNK        -0.5000 
     67 C          -2.3787  -18.6669  -45.8147 C.2       11 UNK         0.5000 
     68 O          -3.1514  -17.9540  -46.4557 O.2       11 UNK        -0.5000 
     69 N          -2.4761  -18.8574  -44.4898 N.am      12 UNK        -0.5000 
     70 CA         -3.4822  -18.2073  -43.6441 C.3       12 UNK         0.1400 
     71 CB         -3.0511  -18.2888  -42.1722 C.3       12 UNK        -0.1800 
     72 C          -4.8941  -18.7920  -43.8284 C.2       12 UNK         0.5000 
     73 O          -5.8717  -18.1013  -43.5455 O.2       12 UNK        -0.5000 
     74 N          -4.9745  -20.0373  -44.3131 N.am      13 UNK        -0.5000 
     75 CA         -6.2171  -20.7083  -44.6954 C.3       13 UNK         0.1400 
     76 CB         -6.0949  -22.1945  -44.3208 C.3       13 UNK        -0.1800 
     77 C          -6.5155  -20.5653  -46.2015 C.2       13 UNK         0.5000 
     78 O          -7.6303  -20.8750  -46.6221 O.2       13 UNK        -0.5000 
     79 N          -5.5082  -20.1385  -46.9813 N.am      14 UNK        -0.5000 
     80 CA         -5.4311  -20.1689  -48.4458 C.3       14 UNK         0.1400 
     81 CB         -6.3980  -19.1518  -49.0843 C.3       14 UNK        -0.1800 
     82 C          -5.5850  -21.6046  -48.9950 C.2       14 UNK         0.5000 
     83 O          -6.2803  -21.8268  -49.9861 O.2       14 UNK        -0.5000 
     84 N          -4.9515  -22.5589  -48.3037 N.am      15 UNK        -0.5000 
     85 CA         -5.0013  -23.9855  -48.5971 C.3       15 UNK         0.1400 
     86 CB         -4.9428  -24.7544  -47.2678 C.3       15 UNK        -0.1800 
     87 C          -3.8364  -24.4016  -49.5074 C.2       15 UNK         0.5000 
     88 O          -2.7597  -23.8025  -49.4483 O.2       15 UNK        -0.5000 
     89 N          -4.0662  -25.4588  -50.2981 N.am      16 UNK        -0.5000 
     90 CA         -3.1106  -26.0959  -51.2083 C.3       16 UNK         0.1400 
     91 CB         -2.0438  -26.8704  -50.4004 C.3       16 UNK        -0.1800 
     92 C          -2.5313  -25.0937  -52.2295 C.2       16 UNK         0.5000 
     93 O          -3.3054  -24.4127  -52.9069 O.2       16 UNK        -0.5000 
     94 N          -1.1964  -25.0018  -52.3137 N.am      17 UNK        -0.5000 
     95 CA         -0.4419  -24.1458  -53.2330 C.3       17 UNK         0.1400 
     96 CB          1.0608  -24.3641  -53.0076 C.3       17 UNK        -0.1800 
     97 C          -0.7829  -22.6472  -53.1451 C.2       17 UNK         0.5000 
     98 O          -0.6842  -21.9573  -54.1596 O.2       17 UNK        -0.5000 
     99 N          -1.2336  -22.1796  -51.9716 N.am      18 UNK        -0.5000 
    100 CA        -1.6916  -20.8066  -51.7406 C.3       18 UNK         0.1400 
    101 CB        -1.9581  -20.6103  -50.2428 C.3       18 UNK        -0.1800 
    102 C         -2.9297  -20.4128  -52.5748 C.2       18 UNK         0.5000 
    103 O         -3.1453  -19.2224  -52.7967 O.2       18 UNK        -0.5000 
    104 N         -3.6961  -21.4067  -53.0428 N.am      19 UNK        -0.5000 
    105 CA        -4.7748  -21.2342  -54.0114 C.3       19 UNK         0.1400 
    106 CB        -6.0630  -21.8652  -53.4622 C.3       19 UNK        -0.1800 
    107 C         -4.3993  -21.8639  -55.3617 C.2       19 UNK         0.5000 
    108 O         -4.5832  -21.2251  -56.3979 O.2       19 UNK        -0.5000 
    109 N         -3.8887  -23.1036  -55.3344 N.am      20 UNK        -0.5000 
    110 CA        -3.6646  -23.9360  -56.5184 C.3       20 UNK         0.1400 
    111 CB        -3.3876  -25.3806  -56.0743 C.3       20 UNK        -0.1800 
    112 C         -2.5496  -23.4397  -57.4566 C.2       20 UNK         0.5000 
    113 O         -2.6391  -23.6789  -58.6618 O.2       20 UNK        -0.5000 
    114 N         -1.5290  -22.7740  -56.9022 N.am      21 UNK        -0.5000 
    115 CA        -0.3991  -22.2241  -57.6520 C.3       21 UNK         0.1400 
    116 CB         0.9100  -22.8432  -57.1335 C.3       21 UNK        -0.1800 
    117 C         -0.3645  -20.6935  -57.5406 C.2       21 UNK         0.5000 
    118 O         -0.1872  -20.0149  -58.5530 O.2       21 UNK        -0.5000 
    119 N         -0.5362  -20.1793  -56.3172 N.am      22 UNK        -0.5000 
    120 CA        -0.4844  -18.7465  -55.9908 C.3       22 UNK         0.1400 
    121 C         -1.7829  -17.9508  -56.3209 C.2       22 UNK         0.5000 
    122 N         -2.8866  -18.5887  -56.6917 N.am      22 UNK        -0.7600 
    123 O         -1.7860  -16.7249  -56.2607 O.2       22 UNK        -0.5000 
    124 C124       -0.0227  -18.5331  -54.5227 C.3       23 UNK        -0.0398 
    125 S125        1.2430  -17.2298  -54.3541 S.3       23 UNK        -0.2404 
    126 C126        0.3304  -15.9239  -53.4708 C.3       23 UNK        -0.0205 
    127 H127       -6.4400  -17.6010  -46.3004 H         1 UNK         0.0600 
    128 H128       -7.7626  -16.6839  -47.0265 H         1 UNK         0.0600 
    129 H129       -7.5650  -16.7165  -45.2700 H         1 UNK         0.0600 
    130 H130       -4.4941  -16.5690  -46.7552 H         1 UNK         0.3000 
    131 H131       -4.4032  -13.6021  -46.9557 H         1 UNK         0.0600 
    132 H132       -2.3516  -15.6172  -47.9179 H         1 UNK         0.0800 
    133 H133       -2.3776  -13.9117  -48.2556 H         1 UNK         0.0800 
    134 H134       -3.5879  -17.4267  -49.3068 H         1 UNK         0.0800 
    135 H135       -3.9724  -17.0718  -50.9712 H         1 UNK         0.0800 
    136 H136       -2.2163  -16.0764  -52.4994 H         1 UNK         0.1150 
    137 H137        1.8698  -16.7033  -51.3614 H         1 UNK         0.1150 
    138 H138       -1.2903  -17.4219  -48.5589 H         1 UNK         0.1150 
    139 H139        2.4418  -17.5294  -49.2377 H         1 UNK         0.0800 
    140 H140        1.5161  -16.6654  -48.0453 H         1 UNK         0.0800 
    141 H141       -0.1676  -17.5114  -46.6439 H         1 UNK         0.0800 
    142 H142        0.5699  -18.7188  -45.6345 H         1 UNK         0.0800 
    143 H143       -1.6151  -19.5377  -47.5929 H         1 UNK         0.0600 
    144 H144       -0.0790  -20.9444  -45.7069 H         1 UNK         0.3000 
    145 H145       -2.3086  -23.4720  -44.7383 H         1 UNK         0.0600 
    146 H146       -0.6344  -24.9859  -45.7579 H         1 UNK         0.0600 
    147 H147       -1.6050  -24.2473  -47.0208 H         1 UNK         0.0600 
    148 H148        0.0254  -23.6629  -46.7187 H         1 UNK         0.0600 
    149 H149        0.4116  -23.3749  -44.2158 H         1 UNK         0.3000 
    150 H150        0.5408  -21.0230  -41.5642 H         1 UNK         0.0600 
    151 H151       -0.5318  -23.0146  -40.5616 H         1 UNK         0.0600 
    152 H152        1.2025  -23.0329  -40.2800 H         1 UNK         0.0600 
    153 H153        0.4951  -24.0829  -41.5067 H         1 UNK         0.0600 
    154 H154        2.5241  -21.1724  -42.4110 H         1 UNK         0.3000 
    155 H155        4.5867  -23.6673  -43.7078 H         1 UNK         0.0600 
    156 H156        3.7072  -21.1490  -45.2280 H         1 UNK         0.0600 
    157 H157        3.7049  -22.7844  -45.8764 H         1 UNK         0.0600 
    158 H158        5.2266  -22.0168  -45.4543 H         1 UNK         0.0600 
    159 H159        5.0095  -20.8885  -43.1514 H         1 UNK         0.3000 
    160 H160        5.0199  -20.9252  -39.7006 H         1 UNK         0.0600 
    161 H161        7.6623  -21.1124  -41.2431 H         1 UNK         0.0600 
    162 H162        7.2069  -22.1327  -39.8839 H         1 UNK         0.0600 
    163 H163        7.4414  -20.4108  -39.6392 H         1 UNK         0.0600 
    164 H164        6.2763  -19.0305  -41.3026 H         1 UNK         0.3000 
    165 H165        4.2850  -16.8560  -41.1933 H         1 UNK         0.0600 
    166 H166        5.6743  -16.1848  -43.2135 H         1 UNK         0.0600 
    167 H167        6.5434  -17.2651  -42.1473 H         1 UNK         0.0600 
    168 H168        5.8423  -17.8829  -43.6436 H         1 UNK         0.0600 
    169 H169        2.8062  -18.1174  -43.3027 H         1 UNK         0.3000 
    170 H170        1.6651  -16.8832  -44.9188 H         1 UNK         0.0600 
    171 H171       -0.0586  -16.0049  -42.5333 H         1 UNK         0.0600 
    172 H172       -0.6878  -16.7021  -44.0222 H         1 UNK         0.0600 
    173 H173        0.3354  -17.6643  -42.9657 H         1 UNK         0.0600 
    174 H174        0.2050  -14.5010  -44.5488 H         1 UNK         0.3000 
    175 H175        2.0707  -12.2904  -46.4358 H         1 UNK         0.0600 
    176 H176       -0.0416  -14.1121  -47.7070 H         1 UNK         0.0600 
    177 H177        0.2628  -12.4424  -48.1912 H         1 UNK         0.0600 
    178 H178        1.5086  -13.6640  -48.3975 H         1 UNK         0.0600 
    179 H179       -0.7291  -12.8755  -45.6253 H         1 UNK         0.3000 
    180 H180       -0.5972  -10.7527  -42.8177 H         1 UNK         0.0600 
    181 H181       -2.3488   -9.3763  -43.9147 H         1 UNK         0.0600 
    182 H182       -1.8495   -9.9616  -45.5026 H         1 UNK         0.0600 
    183 H183       -0.7632   -8.9619  -44.5455 H         1 UNK         0.0600 
    184 H184       -2.7500  -11.9345  -44.3521 H         1 UNK         0.3000 
    185 H185       -2.5903  -15.1329  -42.9059 H         1 UNK         0.0600 
    186 H186       -4.8636  -14.7139  -42.0406 H         1 UNK         0.0600 
    187 H187       -3.6836  -13.9077  -41.0201 H         1 UNK         0.0600 
    188 H188       -4.6292  -12.9697  -42.1708 H         1 UNK         0.0600 
    189 H189       -4.6711  -14.0763  -44.4392 H         1 UNK         0.3000 
    190 H190       -1.8738  -19.5334  -44.0315 H         1 UNK         0.3000 
    191 H191       -3.5309  -17.1534  -43.9238 H         1 UNK         0.0600 
    192 H192       -3.7505  -17.7491  -41.5325 H         1 UNK         0.0600 
    193 H193       -2.0675  -17.8467  -42.0188 H         1 UNK         0.0600 
    194 H194       -3.0148  -19.3198  -41.8193 H         1 UNK         0.0600 
    195 H195       -4.1167  -20.5383  -44.5018 H         1 UNK         0.3000 
    196 H196       -7.0606  -20.2838  -44.1470 H         1 UNK         0.0600 
    197 H197       -5.2679  -22.6753  -44.8449 H         1 UNK         0.0600 
    198 H198       -5.9297  -22.3183  -43.2504 H         1 UNK         0.0600 
    199 H199       -7.0051  -22.7397  -44.5739 H         1 UNK         0.0600 
    200 H200       -4.6339  -19.9342  -46.5186 H         1 UNK         0.3000 
    201 H201       -4.4183  -19.8551  -48.6991 H         1 UNK         0.0600 
    202 H202       -7.4401  -19.3925  -48.8739 H         1 UNK         0.0600 
    203 H203       -6.2789  -19.1295  -50.1683 H         1 UNK         0.0600 
    204 H204       -6.2033  -18.1432  -48.7209 H         1 UNK         0.0600 
    205 H205       -4.3343  -22.2790  -47.5452 H         1 UNK         0.3000 
    206 H206       -5.9434  -24.2262  -49.0945 H         1 UNK         0.0600 
    207 H207       -4.9659  -25.8321  -47.4342 H         1 UNK         0.0600 
    208 H208       -4.0343  -24.5266  -46.7094 H         1 UNK         0.0600 
    209 H209       -5.7943  -24.5059  -46.6340 H         1 UNK         0.0600 
    210 H210       -4.9906  -25.8663  -50.2939 H         1 UNK         0.3000 
    211 H211       -3.6762  -26.8237  -51.7917 H         1 UNK         0.0600 
    212 H212       -1.3851  -27.4412  -51.0561 H         1 UNK         0.0600 
    213 H213       -2.5140  -27.5858  -49.7256 H         1 UNK         0.0600 
    214 H214       -1.4248  -26.2082  -49.7934 H         1 UNK         0.0600 
    215 H215       -0.6465  -25.5815  -51.6965 H         1 UNK         0.3000 
    216 H216       -0.6798  -24.4683  -54.2479 H         1 UNK         0.0600 
    217 H217        1.3583  -24.0944  -51.9934 H         1 UNK         0.0600 
    218 H218        1.6521  -23.7580  -53.6956 H         1 UNK         0.0600 
    219 H219        1.3385  -25.4049  -53.1748 H         1 UNK         0.0600 
    220 H220       -1.3343  -22.8243  -51.1979 H         1 UNK         0.3000 
    221 H221       -0.8810  -20.1336  -52.0266 H         1 UNK         0.0600 
    222 H222       -1.0619  -20.8036  -49.6530 H         1 UNK         0.0600 
    223 H223       -2.7451  -21.2715  -49.8863 H         1 UNK         0.0600 
    224 H224       -2.2738  -19.5894  -50.0344 H         1 UNK         0.0600 
    225 H225       -3.4460  -22.3616  -52.8124 H         1 UNK         0.3000 
    226 H226       -4.9723  -20.1752  -54.1911 H         1 UNK         0.0600 
    227 H227       -5.9159  -22.9073  -53.1753 H         1 UNK         0.0600 
    228 H228       -6.4154  -21.3231  -52.5854 H         1 UNK         0.0600 
    229 H229       -6.8634  -21.8346  -54.2025 H         1 UNK         0.0600 
    230 H230       -3.7587  -23.5663  -54.4374 H         1 UNK         0.3000 
    231 H231       -4.5919  -23.9377  -57.0953 H         1 UNK         0.0600 
    232 H232       -2.4726  -25.4540  -55.4869 H         1 UNK         0.0600 
    233 H233       -3.2771  -26.0403  -56.9360 H         1 UNK         0.0600 
    234 H234       -4.2059  -25.7717  -55.4694 H         1 UNK         0.0600 
    235 H235       -1.5408  -22.5938  -55.9057 H         1 UNK         0.3000 
    236 H236       -0.4809  -22.4676  -58.7133 H         1 UNK         0.0600 
    237 H237        0.9043  -23.9269  -57.2511 H         1 UNK         0.0600 
    238 H238        1.7675  -22.4603  -57.6880 H         1 UNK         0.0600 
    239 H239        1.0779  -22.6236  -56.0791 H         1 UNK         0.0600 
    240 H240       -0.6452  -20.8120  -55.5277 H         1 UNK         0.3000 
    241 H241        0.2786  -18.3184  -56.6438 H         1 UNK         0.0600 
    242 H242       -3.7120  -18.0536  -56.9084 H         1 UNK         0.3800 
    243 H243       -2.9220  -19.5957  -56.7444 H         1 UNK         0.3800 
    244 H244        0.4385  -19.4399  -54.1293 H         1 UNK         0.0800 
    245 H245       -0.8675  -18.3365  -53.8625 H         1 UNK         0.0800 
    246 H246       -0.5198  -15.6111  -54.0788 H         1 UNK         0.0800 
    247 H247        0.9746  -15.0493  -53.3728 H         1 UNK         0.0800 
@<TRIPOS>BOND
     1    1    2 1    
     2    1  127 1    
     3    1  128 1    
     4    1  129 1    
     5    2    3 2    
     6    2    4 am   BACKBONE|DICT|INTERRES
     7    4    5 1    
     8    4  130 1    
     9    5    6 1    
    10    5   65 1    
    11    5  131 1    
    12    6    7 1    
    13    6  132 1    
    14    6  133 1    
    15    7    8 1    
    16    8    9 1    
    17    8  134 1    
    18    8  135 1    
    19    9   10 ar   
    20    9   14 ar   
    21   10   11 ar   
    22   10  136 1    
    23   11   12 ar   
    24   11  126 1    
    25   12   13 ar   
    26   12  137 1    
    27   13   14 ar   
    28   13   15 1    
    29   14  138 1    
    30   15   16 1    
    31   15  139 1    
    32   15  140 1    
    33   16   17 1    
    34   17   18 1    
    35   17  141 1    
    36   17  142 1    
    37   18   19 1    
    38   18   67 1    
    39   18  143 1    
    40   19   20 am   BACKBONE|DICT|INTERRES
    41   19  144 1    
    42   20   21 2    
    43   20   22 1    
    44   22   23 1    
    45   22   24 1    
    46   22  145 1    
    47   23  146 1    
    48   23  147 1    
    49   23  148 1    
    50   24   25 am   BACKBONE|DICT|INTERRES
    51   24  149 1    
    52   25   26 2    
    53   25   27 1    
    54   27   28 1    
    55   27   29 1    
    56   27  150 1    
    57   28  151 1    
    58   28  152 1    
    59   28  153 1    
    60   29   30 am   BACKBONE|DICT|INTERRES
    61   29  154 1    
    62   30   31 2    
    63   30   32 1    
    64   32   33 1    
    65   32   34 1    
    66   32  155 1    
    67   33  156 1    
    68   33  157 1    
    69   33  158 1    
    70   34   35 am   BACKBONE|DICT|INTERRES
    71   34  159 1    
    72   35   36 2    
    73   35   37 1    
    74   37   38 1    
    75   37   39 1    
    76   37  160 1    
    77   38  161 1    
    78   38  162 1    
    79   38  163 1    
    80   39   40 am   BACKBONE|DICT|INTERRES
    81   39  164 1    
    82   40   41 2    
    83   40   42 1    
    84   42   43 1    
    85   42   44 1    
    86   42  165 1    
    87   43  166 1    
    88   43  167 1    
    89   43  168 1    
    90   44   45 am   BACKBONE|DICT|INTERRES
    91   44  169 1    
    92   45   46 2    
    93   45   47 1    
    94   47   48 1    
    95   47   49 1    
    96   47  170 1    
    97   48  171 1    
    98   48  172 1    
    99   48  173 1    
   100   49   50 am   BACKBONE|DICT|INTERRES
   101   49  174 1    
   102   50   51 2    
   103   50   52 1    
   104   52   53 1    
   105   52   54 1    
   106   52  175 1    
   107   53  176 1    
   108   53  177 1    
   109   53  178 1    
   110   54   55 am   BACKBONE|DICT|INTERRES
   111   54  179 1    
   112   55   56 2    
   113   55   57 1    
   114   57   58 1    
   115   57   59 1    
   116   57  180 1    
   117   58  181 1    
   118   58  182 1    
   119   58  183 1    
   120   59   60 am   BACKBONE|DICT|INTERRES
   121   59  184 1    
   122   60   61 2    
   123   60   62 1    
   124   62   63 1    
   125   62   64 1    
   126   62  185 1    
   127   63  186 1    
   128   63  187 1    
   129   63  188 1    
   130   64   65 am   BACKBONE|DICT|INTERRES
   131   64  189 1    
   132   65   66 2    
   133   67   68 2    
   134   67   69 am   BACKBONE|DICT|INTERRES
   135   69   70 1    
   136   69  190 1    
   137   70   71 1    
   138   70   72 1    
   139   70  191 1    
   140   71  192 1    
   141   71  193 1    
   142   71  194 1    
   143   72   73 2    
   144   72   74 am   BACKBONE|DICT|INTERRES
   145   74   75 1    
   146   74  195 1    
   147   75   76 1    
   148   75   77 1    
   149   75  196 1    
   150   76  197 1    
   151   76  198 1    
   152   76  199 1    
   153   77   78 2    
   154   77   79 am   BACKBONE|DICT|INTERRES
   155   79   80 1    
   156   79  200 1    
   157   80   81 1    
   158   80   82 1    
   159   80  201 1    
   160   81  202 1    
   161   81  203 1    
   162   81  204 1    
   163   82   83 2    
   164   82   84 am   BACKBONE|DICT|INTERRES
   165   84   85 1    
   166   84  205 1    
   167   85   86 1    
   168   85   87 1    
   169   85  206 1    
   170   86  207 1    
   171   86  208 1    
   172   86  209 1    
   173   87   88 2    
   174   87   89 am   BACKBONE|DICT|INTERRES
   175   89   90 1    
   176   89  210 1    
   177   90   91 1    
   178   90   92 1    
   179   90  211 1    
   180   91  212 1    
   181   91  213 1    
   182   91  214 1    
   183   92   93 2    
   184   92   94 am   BACKBONE|DICT|INTERRES
   185   94   95 1    
   186   94  215 1    
   187   95   96 1    
   188   95   97 1    
   189   95  216 1    
   190   96  217 1    
   191   96  218 1    
   192   96  219 1    
   193   97   98 2    
   194   97   99 am   BACKBONE|DICT|INTERRES
   195   99  100 1    
   196   99  220 1    
   197  100  101 1    
   198  100  102 1    
   199  100  221 1    
   200  101  222 1    
   201  101  223 1    
   202  101  224 1    
   203  102  103 2    
   204  102  104 am   BACKBONE|DICT|INTERRES
   205  104  105 1    
   206  104  225 1    
   207  105  106 1    
   208  105  107 1    
   209  105  226 1    
   210  106  227 1    
   211  106  228 1    
   212  106  229 1    
   213  107  108 2    
   214  107  109 am   BACKBONE|DICT|INTERRES
   215  109  110 1    
   216  109  230 1    
   217  110  111 1    
   218  110  112 1    
   219  110  231 1    
   220  111  232 1    
   221  111  233 1    
   222  111  234 1    
   223  112  113 2    
   224  112  114 am   BACKBONE|DICT|INTERRES
   225  114  115 1    
   226  114  235 1    
   227  115  116 1    
   228  115  117 1    
   229  115  236 1    
   230  116  237 1    
   231  116  238 1    
   232  116  239 1    
   233  117  118 2    
   234  117  119 am   BACKBONE|DICT|INTERRES
   235  119  120 1    
   236  119  240 1    
   237  120  121 1    
   238  120  124 1    
   239  120  241 1    
   240  121  122 am   BACKBONE|DICT|INTERRES
   241  121  123 2    
   242  122  242 1    
   243  122  243 1    
   244  124  125 1    
   245  124  244 1    
   246  124  245 1    
   247  125  126 1    
   248  126  246 1    
   249  126  247 1    
@<TRIPOS>SUBSTRUCTURE
     1 UNK         1 GROUP             0       ****    0 ROOT    
