@<TRIPOS>MOLECULE
3R540
247   249    1
SMALL
USER_CHARGES


@<TRIPOS>ATOM
      1 CA         -2.8793  -14.0818  -44.6236 C.3       0 UNK        -0.1800 
      2 C          -2.7874  -14.1028  -46.1429 C.2       0 UNK         0.5000 
      3 O          -3.8090  -14.2375  -46.8151 O.2       0 UNK        -0.5000 
      4 N          -1.5711  -13.9619  -46.6753 N.am      1 UNK        -0.5000 
      5 CA         -1.2629  -13.8665  -48.1007 C.3       1 UNK         0.1400 
      6 C6         -0.6782  -15.2047  -48.6386 C.3       23 UNK        -0.0398 
      7 S7         -0.7160  -15.3015  -50.4626 S.3       23 UNK        -0.2404 
      8 C8          0.9684  -15.8726  -50.8567 C.3       23 UNK        -0.0205 
      9 C9          1.0888  -17.3880  -50.7918 C.ar      23 UNK        -0.0193 
     10 C10         0.5186  -18.1687  -51.8008 C.ar      23 UNK        -0.1150 
     11 C11         0.6546  -19.5601  -51.7934 C.ar      23 UNK        -0.0193 
     12 C12         1.3790  -20.1688  -50.7640 C.ar      23 UNK        -0.1150 
     13 C13         1.9739  -19.3997  -49.7575 C.ar      23 UNK        -0.0193 
     14 C14         1.8146  -18.0092  -49.7700 C.ar      23 UNK        -0.1150 
     15 C15         2.8506  -20.0666  -48.7028 C.3       23 UNK        -0.0205 
     16 S16         2.1256  -20.0270  -47.0341 S.3       23 UNK        -0.2404 
     17 C17         0.6989  -21.1449  -47.2172 C.3       23 UNK        -0.0398 
     18 CA          0.8745  -22.5251  -46.5362 C.3       11 UNK         0.1400 
     19 N           1.1670  -22.4390  -45.0969 N.am      11 UNK        -0.5000 
     20 C           1.4101  -23.4874  -44.2914 C.2       10 UNK         0.5000 
     21 O           1.4783  -24.6513  -44.6884 O.2       10 UNK        -0.5000 
     22 CA          1.5394  -23.2012  -42.7849 C.3       10 UNK         0.1400 
     23 CB          2.9727  -22.7876  -42.4155 C.3       10 UNK        -0.1800 
     24 N           0.5908  -22.1684  -42.3654 N.am      10 UNK        -0.5000 
     25 C          -0.6873  -22.4114  -42.0393 C.2       9 UNK         0.5000 
     26 O          -1.1560  -23.5454  -41.9422 O.2       9 UNK        -0.5000 
     27 CA         -1.6114  -21.1997  -41.7929 C.3       9 UNK         0.1400 
     28 CB         -1.7024  -20.8918  -40.2909 C.3       9 UNK        -0.1800 
     29 N          -1.2042  -19.9876  -42.5046 N.am      9 UNK        -0.5000 
     30 C          -1.1799  -19.8472  -43.8372 C.2       8 UNK         0.5000 
     31 O          -1.5781  -20.7112  -44.6172 O.2       8 UNK        -0.5000 
     32 CA         -0.5320  -18.5595  -44.3870 C.3       8 UNK         0.1400 
     33 CB         -1.5727  -17.4430  -44.5358 C.3       8 UNK        -0.1800 
     34 N           0.5906  -18.0830  -43.5704 N.am      8 UNK        -0.5000 
     35 C           1.6978  -18.7938  -43.3084 C.2       7 UNK         0.5000 
     36 O           1.8871  -19.9321  -43.7305 O.2       7 UNK        -0.5000 
     37 CA          2.7319  -18.1658  -42.3629 C.3       7 UNK         0.1400 
     38 CB          3.6103  -17.1461  -43.1004 C.3       7 UNK        -0.1800 
     39 N           2.0730  -17.5277  -41.2260 N.am      7 UNK        -0.5000 
     40 C           1.6387  -18.1862  -40.1423 C.2       6 UNK         0.5000 
     41 O           1.8293  -19.3874  -39.9519 O.2       6 UNK        -0.5000 
     42 CA          0.8387  -17.3747  -39.1037 C.3       6 UNK         0.1400 
     43 CB          1.7780  -16.7933  -38.0364 C.3       6 UNK        -0.1800 
     44 N           0.0577  -16.2874  -39.6967 N.am      6 UNK        -0.5000 
     45 C          -0.9873  -16.4612  -40.5178 C.2       5 UNK         0.5000 
     46 O          -1.4322  -17.5644  -40.8319 O.2       5 UNK        -0.5000 
     47 CA         -1.6022  -15.1901  -41.1369 C.3       5 UNK         0.1400 
     48 CB         -2.7127  -14.6335  -40.2345 C.3       5 UNK        -0.1800 
     49 N          -0.6311  -14.1270  -41.4229 N.am      5 UNK        -0.5000 
     50 C           0.4528  -14.2581  -42.2003 C.2       4 UNK         0.5000 
     51 O           0.7822  -15.3223  -42.7275 O.2       4 UNK        -0.5000 
     52 CA          1.3339  -13.0022  -42.3569 C.3       4 UNK         0.1400 
     53 CB          2.1279  -12.7524  -41.0640 C.3       4 UNK        -0.1800 
     54 N           2.2847  -13.0744  -43.4703 N.am      4 UNK        -0.5000 
     55 C           1.9682  -13.2056  -44.7644 C.2       3 UNK         0.5000 
     56 O           0.8107  -13.3048  -45.1833 O.2       3 UNK        -0.5000 
     57 CA          3.1549  -13.2388  -45.7480 C.3       3 UNK         0.1400 
     58 CB          3.8632  -14.6019  -45.7048 C.3       3 UNK        -0.1800 
     59 N           2.6798  -13.0145  -47.1091 N.am      3 UNK        -0.5000 
     60 C           2.6433  -11.8347  -47.7423 C.2       2 UNK         0.5000 
     61 O           3.1704  -10.8056  -47.3183 O.2       2 UNK        -0.5000 
     62 CA          1.8470  -11.8025  -49.0648 C.3       2 UNK         0.1400 
     63 CB          2.7607  -12.1210  -50.2581 C.3       2 UNK        -0.1800 
     64 N           0.7306  -12.7525  -49.0477 N.am      2 UNK        -0.5000 
     65 C          -0.3523  -12.6297  -48.2683 C.2       1 UNK         0.5000 
     66 O          -0.6237  -11.5905  -47.6609 O.2       1 UNK        -0.5000 
     67 C          -0.3684  -23.3941  -46.8232 C.2       11 UNK         0.5000 
     68 O          -0.3775  -24.1278  -47.8118 O.2       11 UNK        -0.5000 
     69 N          -1.3697  -23.3276  -45.9305 N.am      12 UNK        -0.5000 
     70 CA         -2.6549  -24.0350  -45.9683 C.3       12 UNK         0.1400 
     71 CB         -3.4685  -23.6520  -44.7232 C.3       12 UNK        -0.1800 
     72 C          -2.5823  -25.5685  -46.1101 C.2       12 UNK         0.5000 
     73 O          -3.5844  -26.1785  -46.4841 O.2       12 UNK        -0.5000 
     74 N          -1.4094  -26.1652  -45.8546 N.am      13 UNK        -0.5000 
     75 CA         -1.0992  -27.5609  -46.1692 C.3       13 UNK         0.1400 
     76 CB          0.2734  -27.9096  -45.5747 C.3       13 UNK        -0.1800 
     77 C          -1.1257  -27.8650  -47.6843 C.2       13 UNK         0.5000 
     78 O          -1.3850  -29.0088  -48.0609 O.2       13 UNK        -0.5000 
     79 N          -0.8733  -26.8446  -48.5159 N.am      14 UNK        -0.5000 
     80 CA         -0.9598  -26.8945  -49.9728 C.3       14 UNK         0.1400 
     81 CB          0.3942  -26.4847  -50.5766 C.3       14 UNK        -0.1800 
     82 C          -2.0877  -25.9764  -50.4726 C.2       14 UNK         0.5000 
     83 O          -2.9817  -26.4455  -51.1776 O.2       14 UNK        -0.5000 
     84 N          -2.0342  -24.6942  -50.0917 N.am      15 UNK        -0.5000 
     85 CA         -2.9560  -23.6334  -50.4897 C.3       15 UNK         0.1400 
     86 CB         -2.8053  -23.3138  -51.9862 C.3       15 UNK        -0.1800 
     87 C          -2.6308  -22.3966  -49.6455 C.2       15 UNK         0.5000 
     88 O          -1.4858  -21.9482  -49.6682 O.2       15 UNK        -0.5000 
     89 N          -3.6138  -21.8993  -48.8839 N.am      16 UNK        -0.5000 
     90 CA         -3.4146  -20.8620  -47.8673 C.3       16 UNK         0.1400 
     91 CB         -4.6776  -20.7466  -46.9999 C.3       16 UNK        -0.1800 
     92 C          -3.0195  -19.4894  -48.4360 C.2       16 UNK         0.5000 
     93 O          -2.1074  -18.8566  -47.9036 O.2       16 UNK        -0.5000 
     94 N          -3.7206  -19.0547  -49.4890 N.am      17 UNK        -0.5000 
     95 CA         -3.5426  -17.7604  -50.1361 C.3       17 UNK         0.1400 
     96 CB         -4.0241  -16.6269  -49.2056 C.3       17 UNK        -0.1800 
     97 C          -4.3532  -17.7196  -51.4364 C.2       17 UNK         0.5000 
     98 O          -5.3671  -18.4147  -51.5379 O.2       17 UNK        -0.5000 
     99 N          -3.9228  -16.8384  -52.3505 N.am      18 UNK        -0.5000 
    100 CA        -4.5407  -16.4559  -53.6259 C.3       18 UNK         0.1400 
    101 CB        -5.9654  -15.9078  -53.4086 C.3       18 UNK        -0.1800 
    102 C         -4.5414  -17.5589  -54.7010 C.2       18 UNK         0.5000 
    103 O         -4.5851  -18.7520  -54.3975 O.2       18 UNK        -0.5000 
    104 N         -4.5475  -17.1254  -55.9696 N.am      19 UNK        -0.5000 
    105 CA        -4.5458  -17.9764  -57.1662 C.3       19 UNK         0.1400 
    106 CB        -4.4685  -17.0849  -58.4144 C.3       19 UNK        -0.1800 
    107 C         -5.7459  -18.9387  -57.2666 C.2       19 UNK         0.5000 
    108 O         -5.6246  -19.9899  -57.8954 O.2       19 UNK        -0.5000 
    109 N         -6.8608  -18.5891  -56.6096 N.am      20 UNK        -0.5000 
    110 CA        -8.0532  -19.4246  -56.4618 C.3       20 UNK         0.1400 
    111 CB        -9.1422  -18.6141  -55.7424 C.3       20 UNK        -0.1800 
    112 C         -7.7909  -20.7522  -55.7205 C.2       20 UNK         0.5000 
    113 O         -8.4756  -21.7371  -56.0011 O.2       20 UNK        -0.5000 
    114 N         -6.8058  -20.7613  -54.8115 N.am      21 UNK        -0.5000 
    115 CA        -6.3314  -21.9575  -54.1198 C.3       21 UNK         0.1400 
    116 CB        -6.1941  -21.6610  -52.6180 C.3       21 UNK        -0.1800 
    117 C         -4.9880  -22.4223  -54.7033 C.2       21 UNK         0.5000 
    118 O         -4.8163  -23.6180  -54.9420 O.2       21 UNK        -0.5000 
    119 N         -4.0581  -21.4786  -54.9051 N.am      22 UNK        -0.5000 
    120 CA        -2.6797  -21.7384  -55.3495 C.3       22 UNK         0.1400 
    121 C         -2.5378  -22.2065  -56.8274 C.2       22 UNK         0.5000 
    122 N         -3.5067  -21.9803  -57.7056 N.am      22 UNK        -0.7600 
    123 O         -1.5215  -22.7956  -57.1848 O.2       22 UNK        -0.5000 
    124 C124       -1.7498  -20.5287  -55.0747 C.3       23 UNK        -0.0398 
    125 S125       -1.6472  -20.0551  -53.3097 S.3       23 UNK        -0.2404 
    126 C126        0.1074  -20.3946  -52.9458 C.3       23 UNK        -0.0205 
    127 H127       -3.3714  -14.9850  -44.2635 H         1 UNK         0.0600 
    128 H128       -1.8927  -14.0235  -44.1641 H         1 UNK         0.0600 
    129 H129       -3.4599  -13.2207  -44.2934 H         1 UNK         0.0600 
    130 H130       -0.7787  -13.7701  -46.0631 H         1 UNK         0.3000 
    131 H131       -2.1770  -13.6417  -48.6543 H         1 UNK         0.0600 
    132 H132       -1.2692  -16.0422  -48.2673 H         1 UNK         0.0800 
    133 H133        0.3273  -15.3811  -48.2539 H         1 UNK         0.0800 
    134 H134        1.7005  -15.3962  -50.2039 H         1 UNK         0.0800 
    135 H135        1.2145  -15.5461  -51.8683 H         1 UNK         0.0800 
    136 H136       -0.0194  -17.6882  -52.6059 H         1 UNK         0.1150 
    137 H137        1.5079  -21.2420  -50.7648 H         1 UNK         0.1150 
    138 H138        2.2804  -17.4130  -48.9981 H         1 UNK         0.1150 
    139 H139        3.0653  -21.1017  -48.9729 H         1 UNK         0.0800 
    140 H140        3.8144  -19.5566  -48.6740 H         1 UNK         0.0800 
    141 H141        0.5092  -21.2803  -48.2808 H         1 UNK         0.0800 
    142 H142       -0.1801  -20.6308  -46.8306 H         1 UNK         0.0800 
    143 H143        1.7268  -23.0223  -47.0035 H         1 UNK         0.0600 
    144 H144        1.2046  -21.5052  -44.6995 H         1 UNK         0.3000 
    145 H145        1.3194  -24.1269  -42.2487 H         1 UNK         0.0600 
    146 H146        3.0538  -22.5503  -41.3546 H         1 UNK         0.0600 
    147 H147        3.6719  -23.5985  -42.6224 H         1 UNK         0.0600 
    148 H148        3.3111  -21.9193  -42.9797 H         1 UNK         0.0600 
    149 H149        0.8991  -21.2095  -42.4734 H         1 UNK         0.3000 
    150 H150       -2.6076  -21.4731  -42.1466 H         1 UNK         0.0600 
    151 H151       -2.0202  -21.7707  -39.7285 H         1 UNK         0.0600 
    152 H152       -2.4268  -20.1014  -40.0937 H         1 UNK         0.0600 
    153 H153       -0.7406  -20.5727  -39.8880 H         1 UNK         0.0600 
    154 H154       -0.9339  -19.1950  -41.9316 H         1 UNK         0.3000 
    155 H155       -0.1380  -18.7805  -45.3796 H         1 UNK         0.0600 
    156 H156       -2.0627  -17.2238  -43.5883 H         1 UNK         0.0600 
    157 H157       -2.3484  -17.7291  -45.2474 H         1 UNK         0.0600 
    158 H158       -1.1147  -16.5252  -44.9047 H         1 UNK         0.0600 
    159 H159        0.5298  -17.1346  -43.2095 H         1 UNK         0.3000 
    160 H160        3.3831  -18.9635  -41.9984 H         1 UNK         0.0600 
    161 H161        4.3681  -16.7259  -42.4393 H         1 UNK         0.0600 
    162 H162        3.0205  -16.3229  -43.5000 H         1 UNK         0.0600 
    163 H163        4.1291  -17.6134  -43.9384 H         1 UNK         0.0600 
    164 H164        1.8061  -16.5598  -41.3514 H         1 UNK         0.3000 
    165 H165        0.1449  -18.0607  -38.6130 H         1 UNK         0.0600 
    166 H166        1.2173  -16.2837  -37.2525 H         1 UNK         0.0600 
    167 H167        2.3602  -17.5818  -37.5576 H         1 UNK         0.0600 
    168 H168        2.4823  -16.0793  -38.4653 H         1 UNK         0.0600 
    169 H169        0.3584  -15.3456  -39.4945 H         1 UNK         0.3000 
    170 H170       -2.0556  -15.4787  -42.0851 H         1 UNK         0.0600 
    171 H171       -3.4621  -15.3971  -40.0209 H         1 UNK         0.0600 
    172 H172       -2.3185  -14.2838  -39.2796 H         1 UNK         0.0600 
    173 H173       -3.2283  -13.8001  -40.7120 H         1 UNK         0.0600 
    174 H174       -0.8252  -13.2267  -41.0087 H         1 UNK         0.3000 
    175 H175        0.6752  -12.1507  -42.5388 H         1 UNK         0.0600 
    176 H176        2.8060  -13.5782  -40.8436 H         1 UNK         0.0600 
    177 H177        2.7222  -11.8411  -41.1357 H         1 UNK         0.0600 
    178 H178        1.4656  -12.6340  -40.2054 H         1 UNK         0.0600 
    179 H179        3.2605  -13.0329  -43.2166 H         1 UNK         0.3000 
    180 H180        3.8679  -12.4607  -45.4674 H         1 UNK         0.0600 
    181 H181        3.1690  -15.4255  -45.8793 H         1 UNK         0.0600 
    182 H182        4.3367  -14.7637  -44.7364 H         1 UNK         0.0600 
    183 H183        4.6494  -14.6621  -46.4577 H         1 UNK         0.0600 
    184 H184        2.1699  -13.7803  -47.5195 H         1 UNK         0.3000 
    185 H185        1.4467  -10.7948  -49.1947 H         1 UNK         0.0600 
    186 H186        3.5872  -11.4115  -50.3151 H         1 UNK         0.0600 
    187 H187        3.1912  -13.1204  -50.1831 H         1 UNK         0.0600 
    188 H188        2.2153  -12.0597  -51.2001 H         1 UNK         0.0600 
    189 H189        0.8394  -13.5959  -49.5917 H         1 UNK         0.3000 
    190 H190       -1.2768  -22.6373  -45.1923 H         1 UNK         0.3000 
    191 H191       -3.1908  -23.6737  -46.8450 H         1 UNK         0.0600 
    192 H192       -2.9953  -24.0150  -43.8111 H         1 UNK         0.0600 
    193 H193       -4.4711  -24.0796  -44.7634 H         1 UNK         0.0600 
    194 H194       -3.5819  -22.5716  -44.6353 H         1 UNK         0.0600 
    195 H195       -0.6359  -25.5902  -45.5472 H         1 UNK         0.3000 
    196 H196       -1.8523  -28.1906  -45.6913 H         1 UNK         0.0600 
    197 H197        1.0646  -27.2938  -46.0047 H         1 UNK         0.0600 
    198 H198        0.5284  -28.9532  -45.7635 H         1 UNK         0.0600 
    199 H199        0.2849  -27.7620  -44.4946 H         1 UNK         0.0600 
    200 H200       -0.6852  -25.9284  -48.1161 H         1 UNK         0.3000 
    201 H201       -1.1857  -27.9078  -50.3113 H         1 UNK         0.0600 
    202 H202        0.7006  -25.4892  -50.2526 H         1 UNK         0.0600 
    203 H203        0.3501  -26.4781  -51.6664 H         1 UNK         0.0600 
    204 H204        1.1784  -27.1841  -50.2867 H         1 UNK         0.0600 
    205 H205       -1.2878  -24.3886  -49.4704 H         1 UNK         0.3000 
    206 H206       -3.9797  -23.9544  -50.2876 H         1 UNK         0.0600 
    207 H207       -3.3622  -22.4142  -52.2447 H         1 UNK         0.0600 
    208 H208       -1.7633  -23.1368  -52.2548 H         1 UNK         0.0600 
    209 H209       -3.1814  -24.1230  -52.6116 H         1 UNK         0.0600 
    210 H210       -4.5353  -22.3084  -48.9350 H         1 UNK         0.3000 
    211 H211       -2.5984  -21.1850  -47.2197 H         1 UNK         0.0600 
    212 H212       -5.5390  -20.4163  -47.5817 H         1 UNK         0.0600 
    213 H213       -4.5283  -20.0265  -46.1940 H         1 UNK         0.0600 
    214 H214       -4.9320  -21.7001  -46.5381 H         1 UNK         0.0600 
    215 H215       -4.4447  -19.6319  -49.8967 H         1 UNK         0.3000 
    216 H216       -2.4836  -17.6387  -50.3705 H         1 UNK         0.0600 
    217 H217       -3.8535  -15.6489  -49.6568 H         1 UNK         0.0600 
    218 H218       -3.5049  -16.6305  -48.2486 H         1 UNK         0.0600 
    219 H219       -5.0913  -16.7084  -48.9962 H         1 UNK         0.0600 
    220 H220       -3.0641  -16.3479  -52.1435 H         1 UNK         0.3000 
    221 H221       -3.9257  -15.6387  -54.0059 H         1 UNK         0.0600 
    222 H222       -6.6579  -16.6869  -53.0882 H         1 UNK         0.0600 
    223 H223       -5.9747  -15.1205  -52.6547 H         1 UNK         0.0600 
    224 H224       -6.3655  -15.4790  -54.3280 H         1 UNK         0.0600 
    225 H225       -4.5317  -16.1300  -56.1396 H         1 UNK         0.3000 
    226 H226       -3.6448  -18.5912  -57.1322 H         1 UNK         0.0600 
    227 H227       -3.5690  -16.4691  -58.4053 H         1 UNK         0.0600 
    228 H228       -4.4382  -17.6868  -59.3238 H         1 UNK         0.0600 
    229 H229       -5.3309  -16.4212  -58.4886 H         1 UNK         0.0600 
    230 H230       -6.8650  -17.7063  -56.1215 H         1 UNK         0.3000 
    231 H231       -8.4123  -19.6719  -57.4630 H         1 UNK         0.0600 
    232 H232       -9.3977  -17.7129  -56.3001 H         1 UNK         0.0600 
    233 H233       -8.8249  -18.3133  -54.7429 H         1 UNK         0.0600 
    234 H234      -10.0571  -19.1983  -55.6346 H         1 UNK         0.0600 
    235 H235       -6.2686  -19.9145  -54.6598 H         1 UNK         0.3000 
    236 H236       -7.0466  -22.7750  -54.2317 H         1 UNK         0.0600 
    237 H237       -5.9061  -22.5582  -52.0691 H         1 UNK         0.0600 
    238 H238       -5.4371  -20.9004  -52.4255 H         1 UNK         0.0600 
    239 H239       -7.1358  -21.3090  -52.1968 H         1 UNK         0.0600 
    240 H240       -4.2645  -20.5123  -54.6599 H         1 UNK         0.3000 
    241 H241       -2.3069  -22.5691  -54.7481 H         1 UNK         0.0600 
    242 H242       -3.3907  -22.3018  -58.6531 H         1 UNK         0.3800 
    243 H243       -4.3358  -21.4488  -57.4652 H         1 UNK         0.3800 
    244 H244       -0.7459  -20.7353  -55.4482 H         1 UNK         0.0800 
    245 H245       -2.0961  -19.6571  -55.6308 H         1 UNK         0.0800 
    246 H246        0.2190  -21.4607  -52.7430 H         1 UNK         0.0800 
    247 H247        0.7192  -20.1767  -53.8217 H         1 UNK         0.0800 
@<TRIPOS>BOND
     1    1    2 1    
     2    1  127 1    
     3    1  128 1    
     4    1  129 1    
     5    2    3 2    
     6    2    4 am   BACKBONE|DICT|INTERRES
     7    4    5 1    
     8    4  130 1    
     9    5    6 1    
    10    5   65 1    
    11    5  131 1    
    12    6    7 1    
    13    6  132 1    
    14    6  133 1    
    15    7    8 1    
    16    8    9 1    
    17    8  134 1    
    18    8  135 1    
    19    9   10 ar   
    20    9   14 ar   
    21   10   11 ar   
    22   10  136 1    
    23   11   12 ar   
    24   11  126 1    
    25   12   13 ar   
    26   12  137 1    
    27   13   14 ar   
    28   13   15 1    
    29   14  138 1    
    30   15   16 1    
    31   15  139 1    
    32   15  140 1    
    33   16   17 1    
    34   17   18 1    
    35   17  141 1    
    36   17  142 1    
    37   18   19 1    
    38   18   67 1    
    39   18  143 1    
    40   19   20 am   BACKBONE|DICT|INTERRES
    41   19  144 1    
    42   20   21 2    
    43   20   22 1    
    44   22   23 1    
    45   22   24 1    
    46   22  145 1    
    47   23  146 1    
    48   23  147 1    
    49   23  148 1    
    50   24   25 am   BACKBONE|DICT|INTERRES
    51   24  149 1    
    52   25   26 2    
    53   25   27 1    
    54   27   28 1    
    55   27   29 1    
    56   27  150 1    
    57   28  151 1    
    58   28  152 1    
    59   28  153 1    
    60   29   30 am   BACKBONE|DICT|INTERRES
    61   29  154 1    
    62   30   31 2    
    63   30   32 1    
    64   32   33 1    
    65   32   34 1    
    66   32  155 1    
    67   33  156 1    
    68   33  157 1    
    69   33  158 1    
    70   34   35 am   BACKBONE|DICT|INTERRES
    71   34  159 1    
    72   35   36 2    
    73   35   37 1    
    74   37   38 1    
    75   37   39 1    
    76   37  160 1    
    77   38  161 1    
    78   38  162 1    
    79   38  163 1    
    80   39   40 am   BACKBONE|DICT|INTERRES
    81   39  164 1    
    82   40   41 2    
    83   40   42 1    
    84   42   43 1    
    85   42   44 1    
    86   42  165 1    
    87   43  166 1    
    88   43  167 1    
    89   43  168 1    
    90   44   45 am   BACKBONE|DICT|INTERRES
    91   44  169 1    
    92   45   46 2    
    93   45   47 1    
    94   47   48 1    
    95   47   49 1    
    96   47  170 1    
    97   48  171 1    
    98   48  172 1    
    99   48  173 1    
   100   49   50 am   BACKBONE|DICT|INTERRES
   101   49  174 1    
   102   50   51 2    
   103   50   52 1    
   104   52   53 1    
   105   52   54 1    
   106   52  175 1    
   107   53  176 1    
   108   53  177 1    
   109   53  178 1    
   110   54   55 am   BACKBONE|DICT|INTERRES
   111   54  179 1    
   112   55   56 2    
   113   55   57 1    
   114   57   58 1    
   115   57   59 1    
   116   57  180 1    
   117   58  181 1    
   118   58  182 1    
   119   58  183 1    
   120   59   60 am   BACKBONE|DICT|INTERRES
   121   59  184 1    
   122   60   61 2    
   123   60   62 1    
   124   62   63 1    
   125   62   64 1    
   126   62  185 1    
   127   63  186 1    
   128   63  187 1    
   129   63  188 1    
   130   64   65 am   BACKBONE|DICT|INTERRES
   131   64  189 1    
   132   65   66 2    
   133   67   68 2    
   134   67   69 am   BACKBONE|DICT|INTERRES
   135   69   70 1    
   136   69  190 1    
   137   70   71 1    
   138   70   72 1    
   139   70  191 1    
   140   71  192 1    
   141   71  193 1    
   142   71  194 1    
   143   72   73 2    
   144   72   74 am   BACKBONE|DICT|INTERRES
   145   74   75 1    
   146   74  195 1    
   147   75   76 1    
   148   75   77 1    
   149   75  196 1    
   150   76  197 1    
   151   76  198 1    
   152   76  199 1    
   153   77   78 2    
   154   77   79 am   BACKBONE|DICT|INTERRES
   155   79   80 1    
   156   79  200 1    
   157   80   81 1    
   158   80   82 1    
   159   80  201 1    
   160   81  202 1    
   161   81  203 1    
   162   81  204 1    
   163   82   83 2    
   164   82   84 am   BACKBONE|DICT|INTERRES
   165   84   85 1    
   166   84  205 1    
   167   85   86 1    
   168   85   87 1    
   169   85  206 1    
   170   86  207 1    
   171   86  208 1    
   172   86  209 1    
   173   87   88 2    
   174   87   89 am   BACKBONE|DICT|INTERRES
   175   89   90 1    
   176   89  210 1    
   177   90   91 1    
   178   90   92 1    
   179   90  211 1    
   180   91  212 1    
   181   91  213 1    
   182   91  214 1    
   183   92   93 2    
   184   92   94 am   BACKBONE|DICT|INTERRES
   185   94   95 1    
   186   94  215 1    
   187   95   96 1    
   188   95   97 1    
   189   95  216 1    
   190   96  217 1    
   191   96  218 1    
   192   96  219 1    
   193   97   98 2    
   194   97   99 am   BACKBONE|DICT|INTERRES
   195   99  100 1    
   196   99  220 1    
   197  100  101 1    
   198  100  102 1    
   199  100  221 1    
   200  101  222 1    
   201  101  223 1    
   202  101  224 1    
   203  102  103 2    
   204  102  104 am   BACKBONE|DICT|INTERRES
   205  104  105 1    
   206  104  225 1    
   207  105  106 1    
   208  105  107 1    
   209  105  226 1    
   210  106  227 1    
   211  106  228 1    
   212  106  229 1    
   213  107  108 2    
   214  107  109 am   BACKBONE|DICT|INTERRES
   215  109  110 1    
   216  109  230 1    
   217  110  111 1    
   218  110  112 1    
   219  110  231 1    
   220  111  232 1    
   221  111  233 1    
   222  111  234 1    
   223  112  113 2    
   224  112  114 am   BACKBONE|DICT|INTERRES
   225  114  115 1    
   226  114  235 1    
   227  115  116 1    
   228  115  117 1    
   229  115  236 1    
   230  116  237 1    
   231  116  238 1    
   232  116  239 1    
   233  117  118 2    
   234  117  119 am   BACKBONE|DICT|INTERRES
   235  119  120 1    
   236  119  240 1    
   237  120  121 1    
   238  120  124 1    
   239  120  241 1    
   240  121  122 am   BACKBONE|DICT|INTERRES
   241  121  123 2    
   242  122  242 1    
   243  122  243 1    
   244  124  125 1    
   245  124  244 1    
   246  124  245 1    
   247  125  126 1    
   248  126  246 1    
   249  126  247 1    
@<TRIPOS>SUBSTRUCTURE
     1 UNK         1 GROUP             0       ****    0 ROOT    
