@<TRIPOS>MOLECULE
3R540
247   249    1
SMALL
USER_CHARGES


@<TRIPOS>ATOM
      1 CA         -2.7036  -10.2150  -48.6327 C.3       0 UNK        -0.1800 
      2 C          -1.7056  -11.3027  -48.2640 C.2       0 UNK         0.5000 
      3 O          -0.5166  -11.0207  -48.1223 O.2       0 UNK        -0.5000 
      4 N          -2.1839  -12.5424  -48.0869 N.am      1 UNK        -0.5000 
      5 CA         -1.3812  -13.7323  -47.7632 C.3       1 UNK         0.1400 
      6 C6         -2.2396  -15.0176  -47.8743 C.3       23 UNK        -0.0398 
      7 S7         -1.2749  -16.5592  -48.0099 S.3       23 UNK        -0.2404 
      8 C8         -0.7094  -16.4816  -49.7397 C.3       23 UNK        -0.0205 
      9 C9         -0.0059  -17.7686  -50.1366 C.ar      23 UNK        -0.0193 
     10 C10        -0.5829  -18.6324  -51.0720 C.ar      23 UNK        -0.1150 
     11 C11         0.0404  -19.8382  -51.3992 C.ar      23 UNK        -0.0193 
     12 C12         1.2423  -20.1804  -50.7731 C.ar      23 UNK        -0.1150 
     13 C13         1.8314  -19.3307  -49.8313 C.ar      23 UNK        -0.0193 
     14 C14         1.2147  -18.1076  -49.5451 C.ar      23 UNK        -0.1150 
     15 C15         3.1265  -19.7769  -49.1516 C.3       23 UNK        -0.0205 
     16 S16         3.4286  -19.1317  -47.4646 S.3       23 UNK        -0.2404 
     17 C17         1.9011  -19.4952  -46.5305 C.3       23 UNK        -0.0398 
     18 CA          1.6142  -21.0042  -46.2940 C.3       11 UNK         0.1400 
     19 N           1.0145  -21.2467  -44.9804 N.am      11 UNK        -0.5000 
     20 C           0.9756  -22.4377  -44.3674 C.2       10 UNK         0.5000 
     21 O           1.4401  -23.4681  -44.8551 O.2       10 UNK        -0.5000 
     22 CA          0.3141  -22.5046  -42.9827 C.3       10 UNK         0.1400 
     23 CB          1.2926  -22.0694  -41.8815 C.3       10 UNK        -0.1800 
     24 N          -0.9009  -21.6920  -42.9052 N.am      10 UNK        -0.5000 
     25 C          -2.0699  -22.1342  -42.4196 C.2       9 UNK         0.5000 
     26 O          -2.2365  -23.2708  -41.9751 O.2       9 UNK        -0.5000 
     27 CA         -3.2672  -21.1602  -42.4098 C.3       9 UNK         0.1400 
     28 CB         -3.5236  -20.6444  -40.9851 C.3       9 UNK        -0.1800 
     29 N          -3.1300  -20.0092  -43.3016 N.am      9 UNK        -0.5000 
     30 C          -3.0615  -20.0630  -44.6374 C.2       8 UNK         0.5000 
     31 O          -3.0887  -21.1098  -45.2835 O.2       8 UNK        -0.5000 
     32 CA         -2.8649  -18.7208  -45.3698 C.3       8 UNK         0.1400 
     33 CB         -4.2139  -18.1436  -45.8186 C.3       8 UNK        -0.1800 
     34 N          -2.1359  -17.7085  -44.5982 N.am      8 UNK        -0.5000 
     35 C          -0.8865  -17.8573  -44.1384 C.2       7 UNK         0.5000 
     36 O          -0.2546  -18.9100  -44.2538 O.2       7 UNK        -0.5000 
     37 CA         -0.2535  -16.6244  -43.4627 C.3       7 UNK         0.1400 
     38 CB         -1.0950  -16.1167  -42.2734 C.3       7 UNK        -0.1800 
     39 N           1.1425  -16.8327  -43.0629 N.am      7 UNK        -0.5000 
     40 C           1.6260  -17.6800  -42.1392 C.2       6 UNK         0.5000 
     41 O           0.9326  -18.4135  -41.4341 O.2       6 UNK        -0.5000 
     42 CA          3.1581  -17.6926  -41.9626 C.3       6 UNK         0.1400 
     43 CB          3.7999  -18.7707  -42.8503 C.3       6 UNK        -0.1800 
     44 N           3.7732  -16.4025  -42.2767 N.am      6 UNK        -0.5000 
     45 C           3.6337  -15.2807  -41.5606 C.2       5 UNK         0.5000 
     46 O           3.0415  -15.2308  -40.4822 O.2       5 UNK        -0.5000 
     47 CA          4.2139  -13.9877  -42.1638 C.3       5 UNK         0.1400 
     48 CB          5.6932  -13.7980  -41.7781 C.3       5 UNK        -0.1800 
     49 N           4.0030  -13.8541  -43.6130 N.am      5 UNK        -0.5000 
     50 C           4.5647  -14.5349  -44.6262 C.2       4 UNK         0.5000 
     51 O           5.3722  -15.4495  -44.4607 O.2       4 UNK        -0.5000 
     52 CA          4.1255  -14.1788  -46.0638 C.3       4 UNK         0.1400 
     53 CB          3.4401  -15.3838  -46.7299 C.3       4 UNK        -0.1800 
     54 N           3.2247  -13.0253  -46.1234 N.am      4 UNK        -0.5000 
     55 C           3.6114  -11.7467  -45.9897 C.2       3 UNK         0.5000 
     56 O           4.7905  -11.4021  -45.9046 O.2       3 UNK        -0.5000 
     57 CA          2.5076  -10.6715  -45.8951 C.3       3 UNK         0.1400 
     58 CB          2.4035   -9.8936  -47.2152 C.3       3 UNK        -0.1800 
     59 N           1.1884  -11.2048  -45.5400 N.am      3 UNK        -0.5000 
     60 C           0.8854  -11.7896  -44.3692 C.2       2 UNK         0.5000 
     61 O           1.6862  -11.8912  -43.4394 O.2       2 UNK        -0.5000 
     62 CA         -0.5160  -12.4224  -44.2236 C.3       2 UNK         0.1400 
     63 CB         -1.4514  -11.4847  -43.4470 C.3       2 UNK        -0.1800 
     64 N          -1.1496  -12.7806  -45.4961 N.am      2 UNK        -0.5000 
     65 C          -0.6431  -13.6258  -46.4067 C.2       1 UNK         0.5000 
     66 O           0.4029  -14.2497  -46.2292 O.2       1 UNK        -0.5000 
     67 C           0.7217  -21.5980  -47.3984 C.2       11 UNK         0.5000 
     68 O           1.1554  -22.4959  -48.1214 O.2       11 UNK        -0.5000 
     69 N          -0.5174  -21.0924  -47.4945 N.am      12 UNK        -0.5000 
     70 CA         -1.4664  -21.4749  -48.5387 C.3       12 UNK         0.1400 
     71 CB         -2.6136  -20.4612  -48.6270 C.3       12 UNK        -0.1800 
     72 C          -2.0015  -22.8973  -48.3565 C.2       12 UNK         0.5000 
     73 O          -2.1317  -23.6154  -49.3458 O.2       12 UNK        -0.5000 
     74 N          -2.2506  -23.2925  -47.0999 N.am      13 UNK        -0.5000 
     75 CA         -2.7750  -24.5953  -46.6760 C.3       13 UNK         0.1400 
     76 CB         -2.8700  -24.6095  -45.1438 C.3       13 UNK        -0.1800 
     77 C          -1.9993  -25.8303  -47.1810 C.2       13 UNK         0.5000 
     78 O          -2.5707  -26.9202  -47.2200 O.2       13 UNK        -0.5000 
     79 N          -0.7362  -25.6440  -47.5880 N.am      14 UNK        -0.5000 
     80 CA          0.0810  -26.6493  -48.2677 C.3       14 UNK         0.1400 
     81 CB          1.5288  -26.1404  -48.3366 C.3       14 UNK        -0.1800 
     82 C          -0.4313  -27.0103  -49.6804 C.2       14 UNK         0.5000 
     83 O          -0.1489  -28.1125  -50.1524 O.2       14 UNK        -0.5000 
     84 N          -1.1649  -26.0915  -50.3238 N.am      15 UNK        -0.5000 
     85 CA         -1.7740  -26.2609  -51.6416 C.3       15 UNK         0.1400 
     86 CB         -1.2717  -25.1489  -52.5789 C.3       15 UNK        -0.1800 
     87 C          -3.3071  -26.2401  -51.5263 C.2       15 UNK         0.5000 
     88 O          -3.9593  -27.2033  -51.9305 O.2       15 UNK        -0.5000 
     89 N          -3.8490  -25.1579  -50.9558 N.am      16 UNK        -0.5000 
     90 CA         -5.2652  -24.9176  -50.7034 C.3       16 UNK         0.1400 
     91 CB         -6.0444  -24.7128  -52.0176 C.3       16 UNK        -0.1800 
     92 C          -5.3569  -23.6613  -49.8316 C.2       16 UNK         0.5000 
     93 O          -4.8852  -22.6038  -50.2538 O.2       16 UNK        -0.5000 
     94 N          -5.9648  -23.7784  -48.6435 N.am      17 UNK        -0.5000 
     95 CA         -6.0497  -22.7169  -47.6280 C.3       17 UNK         0.1400 
     96 CB         -6.6507  -23.3031  -46.3416 C.3       17 UNK        -0.1800 
     97 C          -6.8189  -21.4515  -48.0651 C.2       17 UNK         0.5000 
     98 O          -6.6830  -20.4099  -47.4249 O.2       17 UNK        -0.5000 
     99 N          -7.5878  -21.5513  -49.1574 N.am      18 UNK        -0.5000 
    100 CA        -8.2375  -20.4298  -49.8364 C.3       18 UNK         0.1400 
    101 CB        -9.2903  -20.9913  -50.8058 C.3       18 UNK        -0.1800 
    102 C         -7.2530  -19.5105  -50.5930 C.2       18 UNK         0.5000 
    103 O         -7.6486  -18.4106  -50.9774 O.2       18 UNK        -0.5000 
    104 N         -6.0169  -19.9833  -50.8300 N.am      19 UNK        -0.5000 
    105 CA        -4.9033  -19.3278  -51.5330 C.3       19 UNK         0.1400 
    106 CB        -4.5268  -17.9834  -50.8754 C.3       19 UNK        -0.1800 
    107 C         -5.0783  -19.2030  -53.0592 C.2       19 UNK         0.5000 
    108 O         -4.1341  -18.7956  -53.7376 O.2       19 UNK        -0.5000 
    109 N         -6.2414  -19.6122  -53.5862 N.am      20 UNK        -0.5000 
    110 CA        -6.6037  -19.5909  -55.0061 C.3       20 UNK         0.1400 
    111 CB        -8.0617  -20.0509  -55.1537 C.3       20 UNK        -0.1800 
    112 C         -5.6768  -20.4384  -55.8984 C.2       20 UNK         0.5000 
    113 O         -5.4742  -20.0930  -57.0631 O.2       20 UNK        -0.5000 
    114 N         -5.0849  -21.4941  -55.3206 N.am      21 UNK        -0.5000 
    115 CA        -4.0792  -22.3565  -55.9469 C.3       21 UNK         0.1400 
    116 CB        -3.7586  -23.5184  -54.9934 C.3       21 UNK        -0.1800 
    117 C         -2.7843  -21.6210  -56.3536 C.2       21 UNK         0.5000 
    118 O         -2.0869  -22.0916  -57.2532 O.2       21 UNK        -0.5000 
    119 N         -2.5014  -20.4837  -55.7059 N.am      22 UNK        -0.5000 
    120 CA        -1.3827  -19.5813  -56.0178 C.3       22 UNK         0.1400 
    121 C         -1.8341  -18.3031  -56.7862 C.2       22 UNK         0.5000 
    122 N         -3.0739  -18.1997  -57.2536 N.am      22 UNK        -0.7600 
    123 O         -1.0381  -17.3902  -56.9885 O.2       22 UNK        -0.5000 
    124 C124       -0.5588  -19.2392  -54.7488 C.3       23 UNK        -0.0398 
    125 S125        0.2064  -20.7267  -54.0140 S.3       23 UNK        -0.2404 
    126 C126       -0.6018  -20.8007  -52.3875 C.3       23 UNK        -0.0205 
    127 H127       -2.4332   -9.7680  -49.5893 H         1 UNK         0.0600 
    128 H128       -2.6997   -9.4309  -47.8756 H         1 UNK         0.0600 
    129 H129       -3.7182  -10.6055  -48.7139 H         1 UNK         0.0600 
    130 H130       -3.1743  -12.7016  -48.2073 H         1 UNK         0.3000 
    131 H131       -0.6024  -13.7809  -48.5262 H         1 UNK         0.0600 
    132 H132       -2.9126  -15.1032  -47.0198 H         1 UNK         0.0800 
    133 H133       -2.8852  -14.9637  -48.7522 H         1 UNK         0.0800 
    134 H134       -1.5617  -16.2913  -50.3935 H         1 UNK         0.0800 
    135 H135       -0.0213  -15.6453  -49.8670 H         1 UNK         0.0800 
    136 H136       -1.5230  -18.3754  -51.5364 H         1 UNK         0.1150 
    137 H137        1.7113  -21.1253  -51.0097 H         1 UNK         0.1150 
    138 H138        1.6575  -17.4298  -48.8292 H         1 UNK         0.1150 
    139 H139        3.1640  -20.8661  -49.1053 H         1 UNK         0.0800 
    140 H140        3.9614  -19.4744  -49.7845 H         1 UNK         0.0800 
    141 H141        2.0489  -19.0039  -45.5690 H         1 UNK         0.0800 
    142 H142        1.0538  -18.9681  -46.9701 H         1 UNK         0.0800 
    143 H143        2.5671  -21.5379  -46.3142 H         1 UNK         0.0600 
    144 H144        0.5958  -20.4317  -44.5366 H         1 UNK         0.3000 
    145 H145        0.0757  -23.5572  -42.8157 H         1 UNK         0.0600 
    146 H146        0.8746  -22.2539  -40.8918 H         1 UNK         0.0600 
    147 H147        2.2322  -22.6194  -41.9469 H         1 UNK         0.0600 
    148 H148        1.5234  -21.0074  -41.9506 H         1 UNK         0.0600 
    149 H149       -0.8443  -20.7420  -43.2509 H         1 UNK         0.3000 
    150 H150       -4.1434  -21.7262  -42.7329 H         1 UNK         0.0600 
    151 H151       -3.6689  -21.4712  -40.2885 H         1 UNK         0.0600 
    152 H152       -4.4207  -20.0264  -40.9435 H         1 UNK         0.0600 
    153 H153       -2.6864  -20.0491  -40.6179 H         1 UNK         0.0600 
    154 H154       -3.0707  -19.1034  -42.8609 H         1 UNK         0.3000 
    155 H155       -2.2707  -18.9233  -46.2607 H         1 UNK         0.0600 
    156 H156       -4.0796  -17.2537  -46.4329 H         1 UNK         0.0600 
    157 H157       -4.8423  -17.8770  -44.9682 H         1 UNK         0.0600 
    158 H158       -4.7646  -18.8664  -46.4206 H         1 UNK         0.0600 
    159 H159       -2.6043  -16.8241  -44.4690 H         1 UNK         0.3000 
    160 H160       -0.2309  -15.8392  -44.2174 H         1 UNK         0.0600 
    161 H161       -1.2641  -16.8977  -41.5314 H         1 UNK         0.0600 
    162 H162       -2.0722  -15.7604  -42.6001 H         1 UNK         0.0600 
    163 H163       -0.6031  -15.2826  -41.7726 H         1 UNK         0.0600 
    164 H164        1.8205  -16.2984  -43.5845 H         1 UNK         0.3000 
    165 H165        3.3708  -17.9320  -40.9187 H         1 UNK         0.0600 
    166 H166        3.6791  -18.5441  -43.9098 H         1 UNK         0.0600 
    167 H167        4.8679  -18.8580  -42.6498 H         1 UNK         0.0600 
    168 H168        3.3568  -19.7498  -42.6701 H         1 UNK         0.0600 
    169 H169        4.3240  -16.3430  -43.1284 H         1 UNK         0.3000 
    170 H170        3.6564  -13.1628  -41.7172 H         1 UNK         0.0600 
    171 H171        5.8087  -13.7674  -40.6940 H         1 UNK         0.0600 
    172 H172        6.3216  -14.6090  -42.1465 H         1 UNK         0.0600 
    173 H173        6.0863  -12.8613  -42.1735 H         1 UNK         0.0600 
    174 H174        3.3121  -13.1532  -43.8569 H         1 UNK         0.3000 
    175 H175        5.0276  -13.9457  -46.6330 H         1 UNK         0.0600 
    176 H176        2.5871  -15.7385  -46.1507 H         1 UNK         0.0600 
    177 H177        3.0867  -15.1393  -47.7317 H         1 UNK         0.0600 
    178 H178        4.1349  -16.2184  -46.8274 H         1 UNK         0.0600 
    179 H179        2.2348  -13.2375  -46.1887 H         1 UNK         0.3000 
    180 H180        2.8028   -9.9714  -45.1110 H         1 UNK         0.0600 
    181 H181        2.1484  -10.5500  -48.0479 H         1 UNK         0.0600 
    182 H182        3.3500   -9.4095  -47.4589 H         1 UNK         0.0600 
    183 H183        1.6446   -9.1132  -47.1573 H         1 UNK         0.0600 
    184 H184        0.4876  -11.1793  -46.2731 H         1 UNK         0.3000 
    185 H185       -0.3953  -13.3401  -43.6451 H         1 UNK         0.0600 
    186 H186       -1.0233  -11.2180  -42.4797 H         1 UNK         0.0600 
    187 H187       -1.6342  -10.5579  -43.9923 H         1 UNK         0.0600 
    188 H188       -2.4144  -11.9581  -43.2543 H         1 UNK         0.0600 
    189 H189       -1.9992  -12.2878  -45.7296 H         1 UNK         0.3000 
    190 H190       -0.8143  -20.3883  -46.8373 H         1 UNK         0.3000 
    191 H191       -0.9367  -21.4604  -49.4896 H         1 UNK         0.0600 
    192 H192       -3.2398  -20.6841  -49.4864 H         1 UNK         0.0600 
    193 H193       -2.2437  -19.4436  -48.7479 H         1 UNK         0.0600 
    194 H194       -3.2637  -20.4911  -47.7556 H         1 UNK         0.0600 
    195 H195       -2.1741  -22.5922  -46.3702 H         1 UNK         0.3000 
    196 H196       -3.7846  -24.6799  -47.0787 H         1 UNK         0.0600 
    197 H197       -3.2723  -25.5562  -44.7811 H         1 UNK         0.0600 
    198 H198       -3.5294  -23.8204  -44.7820 H         1 UNK         0.0600 
    199 H199       -1.8921  -24.4685  -44.6818 H         1 UNK         0.0600 
    200 H200       -0.3447  -24.7143  -47.5241 H         1 UNK         0.3000 
    201 H201        0.0657  -27.5611  -47.6673 H         1 UNK         0.0600 
    202 H202        1.9234  -25.9350  -47.3411 H         1 UNK         0.0600 
    203 H203        1.6036  -25.2227  -48.9217 H         1 UNK         0.0600 
    204 H204        2.1825  -26.8804  -48.7999 H         1 UNK         0.0600 
    205 H205       -1.3821  -25.2201  -49.8464 H         1 UNK         0.3000 
    206 H206       -1.4883  -27.2204  -52.0775 H         1 UNK         0.0600 
    207 H207       -0.1883  -25.1908  -52.6907 H         1 UNK         0.0600 
    208 H208       -1.7044  -25.2551  -53.5737 H         1 UNK         0.0600 
    209 H209       -1.5287  -24.1552  -52.2102 H         1 UNK         0.0600 
    210 H210       -3.2352  -24.4303  -50.5925 H         1 UNK         0.3000 
    211 H211       -5.6771  -25.7722  -50.1634 H         1 UNK         0.0600 
    212 H212       -6.0076  -25.5977  -52.6522 H         1 UNK         0.0600 
    213 H213       -5.6491  -23.8737  -52.5905 H         1 UNK         0.0600 
    214 H214       -7.0962  -24.5051  -51.8175 H         1 UNK         0.0600 
    215 H215       -6.3548  -24.6727  -48.3818 H         1 UNK         0.3000 
    216 H216       -5.0304  -22.3957  -47.4045 H         1 UNK         0.0600 
    217 H217       -6.6857  -22.5536  -45.5497 H         1 UNK         0.0600 
    218 H218       -6.0539  -24.1354  -45.9684 H         1 UNK         0.0600 
    219 H219       -7.6682  -23.6617  -46.5010 H         1 UNK         0.0600 
    220 H220       -7.6506  -22.4513  -49.6089 H         1 UNK         0.3000 
    221 H221       -8.7474  -19.8199  -49.0878 H         1 UNK         0.0600 
    222 H222       -8.8372  -21.6196  -51.5739 H         1 UNK         0.0600 
    223 H223      -10.0333  -21.5893  -50.2778 H         1 UNK         0.0600 
    224 H224       -9.8254  -20.1873  -51.3132 H         1 UNK         0.0600 
    225 H225       -5.7978  -20.9202  -50.5006 H         1 UNK         0.3000 
    226 H226       -4.0510  -19.9959  -51.4171 H         1 UNK         0.0600 
    227 H227       -4.2964  -18.1122  -49.8177 H         1 UNK         0.0600 
    228 H228       -3.6477  -17.5463  -51.3478 H         1 UNK         0.0600 
    229 H229       -5.3261  -17.2476  -50.9581 H         1 UNK         0.0600 
    230 H230       -6.9563  -19.9204  -52.9449 H         1 UNK         0.3000 
    231 H231       -6.5314  -18.5568  -55.3491 H         1 UNK         0.0600 
    232 H232       -8.3769  -20.0228  -56.1977 H         1 UNK         0.0600 
    233 H233       -8.7382  -19.4045  -54.5941 H         1 UNK         0.0600 
    234 H234       -8.2000  -21.0721  -54.7959 H         1 UNK         0.0600 
    235 H235       -5.3097  -21.6913  -54.3571 H         1 UNK         0.3000 
    236 H236       -4.5167  -22.7701  -56.8578 H         1 UNK         0.0600 
    237 H237       -4.6430  -24.1250  -54.7995 H         1 UNK         0.0600 
    238 H238       -3.0052  -24.1794  -55.4237 H         1 UNK         0.0600 
    239 H239       -3.3753  -23.1615  -54.0364 H         1 UNK         0.0600 
    240 H240       -3.1481  -20.1389  -55.0059 H         1 UNK         0.3000 
    241 H241       -0.7011  -20.0818  -56.7075 H         1 UNK         0.0600 
    242 H242       -3.3408  -17.3677  -57.7555 H         1 UNK         0.3800 
    243 H243       -3.7470  -18.9467  -57.1340 H         1 UNK         0.3800 
    244 H244        0.2511  -18.5479  -54.9872 H         1 UNK         0.0800 
    245 H245       -1.1857  -18.7304  -54.0154 H         1 UNK         0.0800 
    246 H246       -1.6701  -20.6047  -52.4925 H         1 UNK         0.0800 
    247 H247       -0.5181  -21.8181  -52.0027 H         1 UNK         0.0800 
@<TRIPOS>BOND
     1    1    2 1    
     2    1  127 1    
     3    1  128 1    
     4    1  129 1    
     5    2    3 2    
     6    2    4 am   BACKBONE|DICT|INTERRES
     7    4    5 1    
     8    4  130 1    
     9    5    6 1    
    10    5   65 1    
    11    5  131 1    
    12    6    7 1    
    13    6  132 1    
    14    6  133 1    
    15    7    8 1    
    16    8    9 1    
    17    8  134 1    
    18    8  135 1    
    19    9   10 ar   
    20    9   14 ar   
    21   10   11 ar   
    22   10  136 1    
    23   11   12 ar   
    24   11  126 1    
    25   12   13 ar   
    26   12  137 1    
    27   13   14 ar   
    28   13   15 1    
    29   14  138 1    
    30   15   16 1    
    31   15  139 1    
    32   15  140 1    
    33   16   17 1    
    34   17   18 1    
    35   17  141 1    
    36   17  142 1    
    37   18   19 1    
    38   18   67 1    
    39   18  143 1    
    40   19   20 am   BACKBONE|DICT|INTERRES
    41   19  144 1    
    42   20   21 2    
    43   20   22 1    
    44   22   23 1    
    45   22   24 1    
    46   22  145 1    
    47   23  146 1    
    48   23  147 1    
    49   23  148 1    
    50   24   25 am   BACKBONE|DICT|INTERRES
    51   24  149 1    
    52   25   26 2    
    53   25   27 1    
    54   27   28 1    
    55   27   29 1    
    56   27  150 1    
    57   28  151 1    
    58   28  152 1    
    59   28  153 1    
    60   29   30 am   BACKBONE|DICT|INTERRES
    61   29  154 1    
    62   30   31 2    
    63   30   32 1    
    64   32   33 1    
    65   32   34 1    
    66   32  155 1    
    67   33  156 1    
    68   33  157 1    
    69   33  158 1    
    70   34   35 am   BACKBONE|DICT|INTERRES
    71   34  159 1    
    72   35   36 2    
    73   35   37 1    
    74   37   38 1    
    75   37   39 1    
    76   37  160 1    
    77   38  161 1    
    78   38  162 1    
    79   38  163 1    
    80   39   40 am   BACKBONE|DICT|INTERRES
    81   39  164 1    
    82   40   41 2    
    83   40   42 1    
    84   42   43 1    
    85   42   44 1    
    86   42  165 1    
    87   43  166 1    
    88   43  167 1    
    89   43  168 1    
    90   44   45 am   BACKBONE|DICT|INTERRES
    91   44  169 1    
    92   45   46 2    
    93   45   47 1    
    94   47   48 1    
    95   47   49 1    
    96   47  170 1    
    97   48  171 1    
    98   48  172 1    
    99   48  173 1    
   100   49   50 am   BACKBONE|DICT|INTERRES
   101   49  174 1    
   102   50   51 2    
   103   50   52 1    
   104   52   53 1    
   105   52   54 1    
   106   52  175 1    
   107   53  176 1    
   108   53  177 1    
   109   53  178 1    
   110   54   55 am   BACKBONE|DICT|INTERRES
   111   54  179 1    
   112   55   56 2    
   113   55   57 1    
   114   57   58 1    
   115   57   59 1    
   116   57  180 1    
   117   58  181 1    
   118   58  182 1    
   119   58  183 1    
   120   59   60 am   BACKBONE|DICT|INTERRES
   121   59  184 1    
   122   60   61 2    
   123   60   62 1    
   124   62   63 1    
   125   62   64 1    
   126   62  185 1    
   127   63  186 1    
   128   63  187 1    
   129   63  188 1    
   130   64   65 am   BACKBONE|DICT|INTERRES
   131   64  189 1    
   132   65   66 2    
   133   67   68 2    
   134   67   69 am   BACKBONE|DICT|INTERRES
   135   69   70 1    
   136   69  190 1    
   137   70   71 1    
   138   70   72 1    
   139   70  191 1    
   140   71  192 1    
   141   71  193 1    
   142   71  194 1    
   143   72   73 2    
   144   72   74 am   BACKBONE|DICT|INTERRES
   145   74   75 1    
   146   74  195 1    
   147   75   76 1    
   148   75   77 1    
   149   75  196 1    
   150   76  197 1    
   151   76  198 1    
   152   76  199 1    
   153   77   78 2    
   154   77   79 am   BACKBONE|DICT|INTERRES
   155   79   80 1    
   156   79  200 1    
   157   80   81 1    
   158   80   82 1    
   159   80  201 1    
   160   81  202 1    
   161   81  203 1    
   162   81  204 1    
   163   82   83 2    
   164   82   84 am   BACKBONE|DICT|INTERRES
   165   84   85 1    
   166   84  205 1    
   167   85   86 1    
   168   85   87 1    
   169   85  206 1    
   170   86  207 1    
   171   86  208 1    
   172   86  209 1    
   173   87   88 2    
   174   87   89 am   BACKBONE|DICT|INTERRES
   175   89   90 1    
   176   89  210 1    
   177   90   91 1    
   178   90   92 1    
   179   90  211 1    
   180   91  212 1    
   181   91  213 1    
   182   91  214 1    
   183   92   93 2    
   184   92   94 am   BACKBONE|DICT|INTERRES
   185   94   95 1    
   186   94  215 1    
   187   95   96 1    
   188   95   97 1    
   189   95  216 1    
   190   96  217 1    
   191   96  218 1    
   192   96  219 1    
   193   97   98 2    
   194   97   99 am   BACKBONE|DICT|INTERRES
   195   99  100 1    
   196   99  220 1    
   197  100  101 1    
   198  100  102 1    
   199  100  221 1    
   200  101  222 1    
   201  101  223 1    
   202  101  224 1    
   203  102  103 2    
   204  102  104 am   BACKBONE|DICT|INTERRES
   205  104  105 1    
   206  104  225 1    
   207  105  106 1    
   208  105  107 1    
   209  105  226 1    
   210  106  227 1    
   211  106  228 1    
   212  106  229 1    
   213  107  108 2    
   214  107  109 am   BACKBONE|DICT|INTERRES
   215  109  110 1    
   216  109  230 1    
   217  110  111 1    
   218  110  112 1    
   219  110  231 1    
   220  111  232 1    
   221  111  233 1    
   222  111  234 1    
   223  112  113 2    
   224  112  114 am   BACKBONE|DICT|INTERRES
   225  114  115 1    
   226  114  235 1    
   227  115  116 1    
   228  115  117 1    
   229  115  236 1    
   230  116  237 1    
   231  116  238 1    
   232  116  239 1    
   233  117  118 2    
   234  117  119 am   BACKBONE|DICT|INTERRES
   235  119  120 1    
   236  119  240 1    
   237  120  121 1    
   238  120  124 1    
   239  120  241 1    
   240  121  122 am   BACKBONE|DICT|INTERRES
   241  121  123 2    
   242  122  242 1    
   243  122  243 1    
   244  124  125 1    
   245  124  244 1    
   246  124  245 1    
   247  125  126 1    
   248  126  246 1    
   249  126  247 1    
@<TRIPOS>SUBSTRUCTURE
     1 UNK         1 GROUP             0       ****    0 ROOT    
