@<TRIPOS>MOLECULE
3R540
247   249    1
SMALL
USER_CHARGES


@<TRIPOS>ATOM
      1 CA          4.1143  -17.5461  -45.9066 C.3       0 UNK        -0.1800 
      2 C           3.8260  -16.5410  -47.0118 C.2       0 UNK         0.5000 
      3 O           2.9397  -15.7031  -46.8593 O.2       0 UNK        -0.5000 
      4 N           4.5856  -16.6139  -48.1132 N.am      1 UNK        -0.5000 
      5 CA          4.4300  -15.8056  -49.3326 C.3       1 UNK         0.1400 
      6 C6          5.4820  -16.2105  -50.3979 C.3       23 UNK        -0.0398 
      7 S7          4.9690  -15.7911  -52.0986 S.3       23 UNK        -0.2404 
      8 C8          4.6321  -17.4351  -52.8041 C.3       23 UNK        -0.0205 
      9 C9          3.4819  -18.1428  -52.1025 C.ar      23 UNK        -0.0193 
     10 C10         2.1707  -17.6926  -52.2762 C.ar      23 UNK        -0.1150 
     11 C11         1.1046  -18.3549  -51.6616 C.ar      23 UNK        -0.0193 
     12 C12         1.3576  -19.4828  -50.8741 C.ar      23 UNK        -0.1150 
     13 C13         2.6669  -19.9360  -50.6826 C.ar      23 UNK        -0.0193 
     14 C14         3.7240  -19.2605  -51.2988 C.ar      23 UNK        -0.1150 
     15 C15         2.9432  -21.1855  -49.8596 C.3       23 UNK        -0.0205 
     16 S16         3.3497  -20.8310  -48.1151 S.3       23 UNK        -0.2404 
     17 C17         1.7498  -20.3440  -47.3799 C.3       23 UNK        -0.0398 
     18 CA          0.8934  -21.5498  -46.9027 C.3       11 UNK         0.1400 
     19 N           0.0379  -21.2223  -45.7561 N.am      11 UNK        -0.5000 
     20 C          -0.7388  -22.0955  -45.0953 C.2       10 UNK         0.5000 
     21 O          -0.7603  -23.3038  -45.3276 O.2       10 UNK        -0.5000 
     22 CA         -1.6970  -21.5226  -44.0333 C.3       10 UNK         0.1400 
     23 CB         -0.9799  -21.3212  -42.6906 C.3       10 UNK        -0.1800 
     24 N          -2.3311  -20.2737  -44.4593 N.am      10 UNK        -0.5000 
     25 C          -3.1683  -20.1742  -45.5027 C.2       9 UNK         0.5000 
     26 O          -3.5415  -21.1364  -46.1713 O.2       9 UNK        -0.5000 
     27 CA         -3.6267  -18.7636  -45.9069 C.3       9 UNK         0.1400 
     28 CB         -4.8078  -18.2999  -45.0426 C.3       9 UNK        -0.1800 
     29 N          -2.5484  -17.7754  -45.8566 N.am      9 UNK        -0.5000 
     30 C          -1.4218  -17.8411  -46.5832 C.2       8 UNK         0.5000 
     31 O          -1.1882  -18.7305  -47.4016 O.2       8 UNK        -0.5000 
     32 CA         -0.3369  -16.7927  -46.2722 C.3       8 UNK         0.1400 
     33 CB         -0.6894  -15.4168  -46.8563 C.3       8 UNK        -0.1800 
     34 N          -0.1120  -16.6582  -44.8342 N.am      8 UNK        -0.5000 
     35 C           0.3296  -17.6334  -44.0307 C.2       7 UNK         0.5000 
     36 O           0.6834  -18.7408  -44.4319 O.2       7 UNK        -0.5000 
     37 CA          0.3183  -17.3437  -42.5203 C.3       7 UNK         0.1400 
     38 CB          1.5980  -16.6221  -42.0781 C.3       7 UNK        -0.1800 
     39 N          -0.8478  -16.5534  -42.1273 N.am      7 UNK        -0.5000 
     40 C          -2.0959  -17.0334  -42.0564 C.2       6 UNK         0.5000 
     41 O          -2.3872  -18.2083  -42.2787 O.2       6 UNK        -0.5000 
     42 CA         -3.2058  -16.0241  -41.7062 C.3       6 UNK         0.1400 
     43 CB         -3.3006  -15.8307  -40.1855 C.3       6 UNK        -0.1800 
     44 N          -3.0131  -14.7223  -42.3490 N.am      6 UNK        -0.5000 
     45 C          -3.1299  -14.5106  -43.6671 C.2       5 UNK         0.5000 
     46 O          -3.4361  -15.3876  -44.4738 O.2       5 UNK        -0.5000 
     47 CA         -2.8128  -13.0921  -44.1807 C.3       5 UNK         0.1400 
     48 CB         -4.0617  -12.2019  -44.0976 C.3       5 UNK        -0.1800 
     49 N          -1.6943  -12.4216  -43.5061 N.am      5 UNK        -0.5000 
     50 C          -0.4574  -12.9187  -43.3711 C.2       4 UNK         0.5000 
     51 O          -0.1464  -14.0673  -43.6898 O.2       4 UNK        -0.5000 
     52 CA          0.5939  -11.9889  -42.7335 C.3       4 UNK         0.1400 
     53 CB          0.4140  -11.9541  -41.2075 C.3       4 UNK        -0.1800 
     54 N           1.9656  -12.4110  -43.0292 N.am      4 UNK        -0.5000 
     55 C           2.5203  -12.4497  -44.2486 C.2       3 UNK         0.5000 
     56 O           1.9672  -12.0177  -45.2641 O.2       3 UNK        -0.5000 
     57 CA          3.9303  -13.0708  -44.3248 C.3       3 UNK         0.1400 
     58 CB          3.9644  -14.4890  -43.7303 C.3       3 UNK        -0.1800 
     59 N           4.4118  -13.1445  -45.7028 N.am      3 UNK        -0.5000 
     60 C           5.1045  -12.1815  -46.3240 C.2       2 UNK         0.5000 
     61 O           5.4251  -11.1224  -45.7813 O.2       2 UNK        -0.5000 
     62 CA          5.5378  -12.4456  -47.7807 C.3       2 UNK         0.1400 
     63 CB          7.0186  -12.0863  -47.9995 C.3       2 UNK        -0.1800 
     64 N           5.3419  -13.8449  -48.1693 N.am      2 UNK        -0.5000 
     65 C           4.4620  -14.2787  -49.0810 C.2       1 UNK         0.5000 
     66 O           3.6948  -13.5397  -49.6997 O.2       1 UNK        -0.5000 
     67 C           0.0620  -22.1284  -48.0621 C.2       11 UNK         0.5000 
     68 O           0.3625  -23.2188  -48.5457 O.2       11 UNK        -0.5000 
     69 N          -0.9879  -21.4010  -48.4639 N.am      12 UNK        -0.5000 
     70 CA         -1.9076  -21.7948  -49.5276 C.3       12 UNK         0.1400 
     71 CB         -2.8603  -20.6317  -49.8241 C.3       12 UNK        -0.1800 
     72 C          -2.6715  -23.0955  -49.2170 C.2       12 UNK         0.5000 
     73 O          -2.8339  -23.9252  -50.1101 O.2       12 UNK        -0.5000 
     74 N          -3.0943  -23.2817  -47.9598 N.am      13 UNK        -0.5000 
     75 CA         -3.7002  -24.5202  -47.4696 C.3       13 UNK         0.1400 
     76 CB         -4.2424  -24.3148  -46.0483 C.3       13 UNK        -0.1800 
     77 C          -2.7336  -25.7177  -47.5301 C.2       13 UNK         0.5000 
     78 O          -3.1232  -26.7771  -48.0216 O.2       13 UNK        -0.5000 
     79 N          -1.4820  -25.5203  -47.0894 N.am      14 UNK        -0.5000 
     80 CA         -0.4063  -26.5157  -47.1622 C.3       14 UNK         0.1400 
     81 CB          0.8134  -26.0171  -46.3727 C.3       14 UNK        -0.1800 
     82 C          -0.0116  -26.8767  -48.6083 C.2       14 UNK         0.5000 
     83 O           0.3082  -28.0338  -48.8820 O.2       14 UNK        -0.5000 
     84 N          -0.0902  -25.8932  -49.5142 N.am      15 UNK        -0.5000 
     85 CA          0.0950  -26.0427  -50.9595 C.3       15 UNK         0.1400 
     86 CB          0.4030  -24.6615  -51.5618 C.3       15 UNK        -0.1800 
     87 C          -1.1056  -26.6992  -51.6787 C.2       15 UNK         0.5000 
     88 O          -1.0318  -26.9049  -52.8908 O.2       15 UNK        -0.5000 
     89 N          -2.1805  -27.0097  -50.9370 N.am      16 UNK        -0.5000 
     90 CA         -3.4349  -27.6264  -51.3808 C.3       16 UNK         0.1400 
     91 CB         -3.1939  -29.0230  -51.9920 C.3       16 UNK        -0.1800 
     92 C          -4.2936  -26.7105  -52.2781 C.2       16 UNK         0.5000 
     93 O          -5.1215  -27.2055  -53.0446 O.2       16 UNK        -0.5000 
     94 N          -4.1181  -25.3898  -52.1370 N.am      17 UNK        -0.5000 
     95 CA         -4.9271  -24.3575  -52.7865 C.3       17 UNK         0.1400 
     96 CB         -4.0217  -23.1787  -53.1769 C.3       17 UNK        -0.1800 
     97 C          -6.0916  -23.8845  -51.8931 C.2       17 UNK         0.5000 
     98 O          -6.8459  -23.0078  -52.3122 O.2       17 UNK        -0.5000 
     99 N          -6.2144  -24.4482  -50.6795 N.am      18 UNK        -0.5000 
    100 CA        -7.3222  -24.2852  -49.7256 C.3       18 UNK         0.1400 
    101 CB        -8.5749  -25.0134  -50.2548 C.3       18 UNK        -0.1800 
    102 C         -7.6136  -22.8198  -49.3306 C.2       18 UNK         0.5000 
    103 O         -8.7715  -22.4557  -49.1197 O.2       18 UNK        -0.5000 
    104 N         -6.5500  -22.0061  -49.2606 N.am      19 UNK        -0.5000 
    105 CA        -6.5570  -20.5636  -48.9852 C.3       19 UNK         0.1400 
    106 CB        -7.0746  -20.2661  -47.5626 C.3       19 UNK        -0.1800 
    107 C         -7.2434  -19.7080  -50.0755 C.2       19 UNK         0.5000 
    108 O         -7.6066  -18.5620  -49.8067 O.2       19 UNK        -0.5000 
    109 N         -7.3943  -20.2513  -51.2939 N.am      20 UNK        -0.5000 
    110 CA        -7.9117  -19.5167  -52.4509 C.3       20 UNK         0.1400 
    111 CB        -8.5934  -20.4936  -53.4209 C.3       20 UNK        -0.1800 
    112 C         -6.8047  -18.7274  -53.1740 C.2       20 UNK         0.5000 
    113 O         -7.0929  -17.6771  -53.7487 O.2       20 UNK        -0.5000 
    114 N         -5.5660  -19.2442  -53.1443 N.am      21 UNK        -0.5000 
    115 CA        -4.3996  -18.6347  -53.7904 C.3       21 UNK         0.1400 
    116 CB        -3.2572  -19.6595  -53.8742 C.3       21 UNK        -0.1800 
    117 C         -3.9254  -17.3518  -53.0859 C.2       21 UNK         0.5000 
    118 O         -3.5812  -16.3803  -53.7596 O.2       21 UNK        -0.5000 
    119 N         -3.9326  -17.3719  -51.7504 N.am      22 UNK        -0.5000 
    120 CA        -3.5987  -16.2535  -50.8638 C.3       22 UNK         0.1400 
    121 C         -4.0775  -16.5446  -49.4141 C.2       22 UNK         0.5000 
    122 N         -3.9836  -15.5786  -48.5094 N.am      22 UNK        -0.7600 
    123 O         -4.5446  -17.6374  -49.1029 O.2       22 UNK        -0.5000 
    124 C124       -2.1092  -15.8104  -50.9571 C.3       23 UNK        -0.0398 
    125 S125       -0.8917  -17.0205  -50.3328 S.3       23 UNK        -0.2404 
    126 C126       -0.3159  -17.8447  -51.8452 C.3       23 UNK        -0.0205 
    127 H127        4.7742  -17.1069  -45.1593 H         1 UNK         0.0600 
    128 H128        4.5882  -18.4462  -46.2986 H         1 UNK         0.0600 
    129 H129        3.1886  -17.8403  -45.4127 H         1 UNK         0.0600 
    130 H130        5.3030  -17.3235  -48.1538 H         1 UNK         0.3000 
    131 H131        3.4376  -16.0474  -49.7206 H         1 UNK         0.0600 
    132 H132        5.6685  -17.2839  -50.3538 H         1 UNK         0.0800 
    133 H133        6.4486  -15.7447  -50.1970 H         1 UNK         0.0800 
    134 H134        5.5414  -18.0370  -52.7670 H         1 UNK         0.0800 
    135 H135        4.3877  -17.3204  -53.8611 H         1 UNK         0.0800 
    136 H136        1.9838  -16.8225  -52.8899 H         1 UNK         0.1150 
    137 H137        0.5322  -20.0000  -50.4068 H         1 UNK         0.1150 
    138 H138        4.7356  -19.6170  -51.1634 H         1 UNK         0.1150 
    139 H139        2.1053  -21.8758  -49.9314 H         1 UNK         0.0800 
    140 H140        3.7879  -21.7189  -50.2981 H         1 UNK         0.0800 
    141 H141        1.2078  -19.6833  -48.0573 H         1 UNK         0.0800 
    142 H142        2.0016  -19.7211  -46.5221 H         1 UNK         0.0800 
    143 H143        1.5679  -22.3366  -46.5581 H         1 UNK         0.0600 
    144 H144        0.0300  -20.2504  -45.4600 H         1 UNK         0.3000 
    145 H145       -2.4916  -22.2551  -43.8779 H         1 UNK         0.0600 
    146 H146       -0.1597  -20.6092  -42.7706 H         1 UNK         0.0600 
    147 H147       -1.6670  -20.9572  -41.9266 H         1 UNK         0.0600 
    148 H148       -0.5610  -22.2615  -42.3303 H         1 UNK         0.0600 
    149 H149       -2.1150  -19.4416  -43.9217 H         1 UNK         0.3000 
    150 H150       -3.9705  -18.8263  -46.9389 H         1 UNK         0.0600 
    151 H151       -5.6140  -19.0340  -45.0547 H         1 UNK         0.0600 
    152 H152       -5.2188  -17.3605  -45.4124 H         1 UNK         0.0600 
    153 H153       -4.5142  -18.1519  -44.0036 H         1 UNK         0.0600 
    154 H154       -2.6841  -16.9898  -45.2270 H         1 UNK         0.3000 
    155 H155        0.5956  -17.1302  -46.7286 H         1 UNK         0.0600 
    156 H156       -0.7871  -15.4628  -47.9391 H         1 UNK         0.0600 
    157 H157        0.0878  -14.6851  -46.6326 H         1 UNK         0.0600 
    158 H158       -1.6307  -15.0387  -46.4609 H         1 UNK         0.0600 
    159 H159       -0.3105  -15.7489  -44.4233 H         1 UNK         0.3000 
    160 H160        0.2791  -18.3030  -42.0005 H         1 UNK         0.0600 
    161 H161        1.6353  -15.6060  -42.4672 H         1 UNK         0.0600 
    162 H162        2.4883  -17.1464  -42.4281 H         1 UNK         0.0600 
    163 H163        1.6592  -16.5634  -40.9915 H         1 UNK         0.0600 
    164 H164       -0.7034  -15.5591  -42.0220 H         1 UNK         0.3000 
    165 H165       -4.1537  -16.4395  -42.0553 H         1 UNK         0.0600 
    166 H166       -4.1349  -15.1803  -39.9222 H         1 UNK         0.0600 
    167 H167       -3.4613  -16.7842  -39.6805 H         1 UNK         0.0600 
    168 H168       -2.3898  -15.3917  -39.7762 H         1 UNK         0.0600 
    169 H169       -2.7518  -13.9485  -41.7562 H         1 UNK         0.3000 
    170 H170       -2.5386  -13.1854  -45.2329 H         1 UNK         0.0600 
    171 H171       -4.9066  -12.6647  -44.6096 H         1 UNK         0.0600 
    172 H172       -4.3613  -12.0241  -43.0641 H         1 UNK         0.0600 
    173 H173       -3.8896  -11.2343  -44.5694 H         1 UNK         0.0600 
    174 H174       -1.8710  -11.4783  -43.1920 H         1 UNK         0.3000 
    175 H175        0.4534  -10.9827  -43.1333 H         1 UNK         0.0600 
    176 H176        0.5484  -12.9418  -40.7640 H         1 UNK         0.0600 
    177 H177        1.1301  -11.2770  -40.7412 H         1 UNK         0.0600 
    178 H178       -0.5826  -11.6050  -40.9344 H         1 UNK         0.0600 
    179 H179        2.4836  -12.7952  -42.2535 H         1 UNK         0.3000 
    180 H180        4.6023  -12.4420  -43.7370 H         1 UNK         0.0600 
    181 H181        3.2223  -15.1359  -44.1991 H         1 UNK         0.0600 
    182 H182        3.7667  -14.4762  -42.6585 H         1 UNK         0.0600 
    183 H183        4.9434  -14.9490  -43.8643 H         1 UNK         0.0600 
    184 H184        4.0852  -13.9354  -46.2450 H         1 UNK         0.3000 
    185 H185        4.9359  -11.7846  -48.4074 H         1 UNK         0.0600 
    186 H186        7.3162  -12.2594  -49.0339 H         1 UNK         0.0600 
    187 H187        7.2064  -11.0339  -47.7833 H         1 UNK         0.0600 
    188 H188        7.6744  -12.6767  -47.3585 H         1 UNK         0.0600 
    189 H189        5.9120  -14.5260  -47.6877 H         1 UNK         0.3000 
    190 H190       -1.1601  -20.5011  -48.0183 H         1 UNK         0.3000 
    191 H191       -1.3165  -21.9772  -50.4269 H         1 UNK         0.0600 
    192 H192       -2.3255  -19.7954  -50.2733 H         1 UNK         0.0600 
    193 H193       -3.6524  -20.9229  -50.5141 H         1 UNK         0.0600 
    194 H194       -3.3195  -20.2628  -48.9080 H         1 UNK         0.0600 
    195 H195       -2.9926  -22.5263  -47.2855 H         1 UNK         0.3000 
    196 H196       -4.5475  -24.7513  -48.1172 H         1 UNK         0.0600 
    197 H197       -4.7117  -25.2249  -45.6731 H         1 UNK         0.0600 
    198 H198       -4.9956  -23.5269  -46.0254 H         1 UNK         0.0600 
    199 H199       -3.4507  -24.0410  -45.3510 H         1 UNK         0.0600 
    200 H200       -1.2407  -24.6255  -46.6713 H         1 UNK         0.3000 
    201 H201       -0.7674  -27.4285  -46.6841 H         1 UNK         0.0600 
    202 H202        0.5604  -25.8422  -45.3269 H         1 UNK         0.0600 
    203 H203        1.2054  -25.0855  -46.7812 H         1 UNK         0.0600 
    204 H204        1.6201  -26.7509  -46.3940 H         1 UNK         0.0600 
    205 H205       -0.2753  -24.9515  -49.1801 H         1 UNK         0.3000 
    206 H206        0.9612  -26.6854  -51.1281 H         1 UNK         0.0600 
    207 H207        1.2640  -24.2009  -51.0769 H         1 UNK         0.0600 
    208 H208        0.6331  -24.7382  -52.6250 H         1 UNK         0.0600 
    209 H209       -0.4430  -23.9825  -51.4591 H         1 UNK         0.0600 
    210 H210       -2.1495  -26.7800  -49.9509 H         1 UNK         0.3000 
    211 H211       -4.0215  -27.7744  -50.4734 H         1 UNK         0.0600 
    212 H212       -2.6945  -28.9643  -52.9593 H         1 UNK         0.0600 
    213 H213       -4.1363  -29.5498  -52.1457 H         1 UNK         0.0600 
    214 H214       -2.5827  -29.6411  -51.3343 H         1 UNK         0.0600 
    215 H215       -3.4382  -25.0501  -51.4594 H         1 UNK         0.3000 
    216 H216       -5.3672  -24.7556  -53.7028 H         1 UNK         0.0600 
    217 H217       -4.5831  -22.4389  -53.7475 H         1 UNK         0.0600 
    218 H218       -3.1919  -23.5085  -53.8021 H         1 UNK         0.0600 
    219 H219       -3.6046  -22.6754  -52.3056 H         1 UNK         0.0600 
    220 H220       -5.5122  -25.1267  -50.4243 H         1 UNK         0.3000 
    221 H221       -7.0145  -24.7869  -48.8072 H         1 UNK         0.0600 
    222 H222       -8.9703  -24.5334  -51.1508 H         1 UNK         0.0600 
    223 H223       -8.3527  -26.0517  -50.5017 H         1 UNK         0.0600 
    224 H224       -9.3706  -25.0232  -49.5089 H         1 UNK         0.0600 
    225 H225       -5.6477  -22.4105  -49.4618 H         1 UNK         0.3000 
    226 H226       -5.5165  -20.2521  -49.0015 H         1 UNK         0.0600 
    227 H227       -6.5429  -20.8609  -46.8195 H         1 UNK         0.0600 
    228 H228       -6.9202  -19.2176  -47.3050 H         1 UNK         0.0600 
    229 H229       -8.1401  -20.4727  -47.4635 H         1 UNK         0.0600 
    230 H230       -7.1369  -21.2208  -51.4516 H         1 UNK         0.3000 
    231 H231       -8.6687  -18.8041  -52.1163 H         1 UNK         0.0600 
    232 H232       -7.8773  -21.1748  -53.8814 H         1 UNK         0.0600 
    233 H233       -9.0914  -19.9539  -54.2273 H         1 UNK         0.0600 
    234 H234       -9.3496  -21.0930  -52.9136 H         1 UNK         0.0600 
    235 H235       -5.4230  -20.1184  -52.6633 H         1 UNK         0.3000 
    236 H236       -4.6791  -18.3625  -54.8106 H         1 UNK         0.0600 
    237 H237       -3.5238  -20.4894  -54.5275 H         1 UNK         0.0600 
    238 H238       -2.3552  -19.2070  -54.2886 H         1 UNK         0.0600 
    239 H239       -3.0007  -20.0656  -52.8956 H         1 UNK         0.0600 
    240 H240       -4.2666  -18.1893  -51.2585 H         1 UNK         0.3000 
    241 H241       -4.2122  -15.4159  -51.2001 H         1 UNK         0.0600 
    242 H242       -4.2948  -15.7695  -47.5708 H         1 UNK         0.3800 
    243 H243       -3.6310  -14.6641  -48.7396 H         1 UNK         0.3800 
    244 H244       -1.8558  -15.5359  -51.9805 H         1 UNK         0.0800 
    245 H245       -1.9673  -14.8923  -50.3861 H         1 UNK         0.0800 
    246 H246       -0.3639  -17.1578  -52.6911 H         1 UNK         0.0800 
    247 H247       -0.9820  -18.6748  -52.0807 H         1 UNK         0.0800 
@<TRIPOS>BOND
     1    1    2 1    
     2    1  127 1    
     3    1  128 1    
     4    1  129 1    
     5    2    3 2    
     6    2    4 am   BACKBONE|DICT|INTERRES
     7    4    5 1    
     8    4  130 1    
     9    5    6 1    
    10    5   65 1    
    11    5  131 1    
    12    6    7 1    
    13    6  132 1    
    14    6  133 1    
    15    7    8 1    
    16    8    9 1    
    17    8  134 1    
    18    8  135 1    
    19    9   10 ar   
    20    9   14 ar   
    21   10   11 ar   
    22   10  136 1    
    23   11   12 ar   
    24   11  126 1    
    25   12   13 ar   
    26   12  137 1    
    27   13   14 ar   
    28   13   15 1    
    29   14  138 1    
    30   15   16 1    
    31   15  139 1    
    32   15  140 1    
    33   16   17 1    
    34   17   18 1    
    35   17  141 1    
    36   17  142 1    
    37   18   19 1    
    38   18   67 1    
    39   18  143 1    
    40   19   20 am   BACKBONE|DICT|INTERRES
    41   19  144 1    
    42   20   21 2    
    43   20   22 1    
    44   22   23 1    
    45   22   24 1    
    46   22  145 1    
    47   23  146 1    
    48   23  147 1    
    49   23  148 1    
    50   24   25 am   BACKBONE|DICT|INTERRES
    51   24  149 1    
    52   25   26 2    
    53   25   27 1    
    54   27   28 1    
    55   27   29 1    
    56   27  150 1    
    57   28  151 1    
    58   28  152 1    
    59   28  153 1    
    60   29   30 am   BACKBONE|DICT|INTERRES
    61   29  154 1    
    62   30   31 2    
    63   30   32 1    
    64   32   33 1    
    65   32   34 1    
    66   32  155 1    
    67   33  156 1    
    68   33  157 1    
    69   33  158 1    
    70   34   35 am   BACKBONE|DICT|INTERRES
    71   34  159 1    
    72   35   36 2    
    73   35   37 1    
    74   37   38 1    
    75   37   39 1    
    76   37  160 1    
    77   38  161 1    
    78   38  162 1    
    79   38  163 1    
    80   39   40 am   BACKBONE|DICT|INTERRES
    81   39  164 1    
    82   40   41 2    
    83   40   42 1    
    84   42   43 1    
    85   42   44 1    
    86   42  165 1    
    87   43  166 1    
    88   43  167 1    
    89   43  168 1    
    90   44   45 am   BACKBONE|DICT|INTERRES
    91   44  169 1    
    92   45   46 2    
    93   45   47 1    
    94   47   48 1    
    95   47   49 1    
    96   47  170 1    
    97   48  171 1    
    98   48  172 1    
    99   48  173 1    
   100   49   50 am   BACKBONE|DICT|INTERRES
   101   49  174 1    
   102   50   51 2    
   103   50   52 1    
   104   52   53 1    
   105   52   54 1    
   106   52  175 1    
   107   53  176 1    
   108   53  177 1    
   109   53  178 1    
   110   54   55 am   BACKBONE|DICT|INTERRES
   111   54  179 1    
   112   55   56 2    
   113   55   57 1    
   114   57   58 1    
   115   57   59 1    
   116   57  180 1    
   117   58  181 1    
   118   58  182 1    
   119   58  183 1    
   120   59   60 am   BACKBONE|DICT|INTERRES
   121   59  184 1    
   122   60   61 2    
   123   60   62 1    
   124   62   63 1    
   125   62   64 1    
   126   62  185 1    
   127   63  186 1    
   128   63  187 1    
   129   63  188 1    
   130   64   65 am   BACKBONE|DICT|INTERRES
   131   64  189 1    
   132   65   66 2    
   133   67   68 2    
   134   67   69 am   BACKBONE|DICT|INTERRES
   135   69   70 1    
   136   69  190 1    
   137   70   71 1    
   138   70   72 1    
   139   70  191 1    
   140   71  192 1    
   141   71  193 1    
   142   71  194 1    
   143   72   73 2    
   144   72   74 am   BACKBONE|DICT|INTERRES
   145   74   75 1    
   146   74  195 1    
   147   75   76 1    
   148   75   77 1    
   149   75  196 1    
   150   76  197 1    
   151   76  198 1    
   152   76  199 1    
   153   77   78 2    
   154   77   79 am   BACKBONE|DICT|INTERRES
   155   79   80 1    
   156   79  200 1    
   157   80   81 1    
   158   80   82 1    
   159   80  201 1    
   160   81  202 1    
   161   81  203 1    
   162   81  204 1    
   163   82   83 2    
   164   82   84 am   BACKBONE|DICT|INTERRES
   165   84   85 1    
   166   84  205 1    
   167   85   86 1    
   168   85   87 1    
   169   85  206 1    
   170   86  207 1    
   171   86  208 1    
   172   86  209 1    
   173   87   88 2    
   174   87   89 am   BACKBONE|DICT|INTERRES
   175   89   90 1    
   176   89  210 1    
   177   90   91 1    
   178   90   92 1    
   179   90  211 1    
   180   91  212 1    
   181   91  213 1    
   182   91  214 1    
   183   92   93 2    
   184   92   94 am   BACKBONE|DICT|INTERRES
   185   94   95 1    
   186   94  215 1    
   187   95   96 1    
   188   95   97 1    
   189   95  216 1    
   190   96  217 1    
   191   96  218 1    
   192   96  219 1    
   193   97   98 2    
   194   97   99 am   BACKBONE|DICT|INTERRES
   195   99  100 1    
   196   99  220 1    
   197  100  101 1    
   198  100  102 1    
   199  100  221 1    
   200  101  222 1    
   201  101  223 1    
   202  101  224 1    
   203  102  103 2    
   204  102  104 am   BACKBONE|DICT|INTERRES
   205  104  105 1    
   206  104  225 1    
   207  105  106 1    
   208  105  107 1    
   209  105  226 1    
   210  106  227 1    
   211  106  228 1    
   212  106  229 1    
   213  107  108 2    
   214  107  109 am   BACKBONE|DICT|INTERRES
   215  109  110 1    
   216  109  230 1    
   217  110  111 1    
   218  110  112 1    
   219  110  231 1    
   220  111  232 1    
   221  111  233 1    
   222  111  234 1    
   223  112  113 2    
   224  112  114 am   BACKBONE|DICT|INTERRES
   225  114  115 1    
   226  114  235 1    
   227  115  116 1    
   228  115  117 1    
   229  115  236 1    
   230  116  237 1    
   231  116  238 1    
   232  116  239 1    
   233  117  118 2    
   234  117  119 am   BACKBONE|DICT|INTERRES
   235  119  120 1    
   236  119  240 1    
   237  120  121 1    
   238  120  124 1    
   239  120  241 1    
   240  121  122 am   BACKBONE|DICT|INTERRES
   241  121  123 2    
   242  122  242 1    
   243  122  243 1    
   244  124  125 1    
   245  124  244 1    
   246  124  245 1    
   247  125  126 1    
   248  126  246 1    
   249  126  247 1    
@<TRIPOS>SUBSTRUCTURE
     1 UNK         1 GROUP             0       ****    0 ROOT    
