@<TRIPOS>MOLECULE
3R540
247   249    1
SMALL
USER_CHARGES


@<TRIPOS>ATOM
      1 CA         -2.9364  -12.8729  -50.1838 C.3       0 UNK        -0.1800 
      2 C          -2.1232  -13.5058  -49.0646 C.2       0 UNK         0.5000 
      3 O          -2.0254  -12.9340  -47.9788 O.2       0 UNK        -0.5000 
      4 N          -1.5569  -14.6946  -49.3176 N.am      1 UNK        -0.5000 
      5 CA         -0.6886  -15.4555  -48.4031 C.3       1 UNK         0.1400 
      6 C6         -0.1230  -16.7360  -49.0672 C.3       23 UNK        -0.0398 
      7 S7          0.8589  -16.3119  -50.5449 S.3       23 UNK        -0.2404 
      8 C8          2.5573  -16.7975  -50.0899 C.3       23 UNK        -0.0205 
      9 C9          2.9128  -18.2008  -50.5666 C.ar      23 UNK        -0.0193 
     10 C10         2.7924  -18.5296  -51.9213 C.ar      23 UNK        -0.1150 
     11 C11         3.1145  -19.8100  -52.3785 C.ar      23 UNK        -0.0193 
     12 C12         3.6213  -20.7481  -51.4763 C.ar      23 UNK        -0.1150 
     13 C13         3.7768  -20.4269  -50.1251 C.ar      23 UNK        -0.0193 
     14 C14         3.4056  -19.1563  -49.6711 C.ar      23 UNK        -0.1150 
     15 C15         4.3812  -21.4508  -49.1761 C.3       23 UNK        -0.0205 
     16 S16         3.1773  -22.7229  -48.6879 S.3       23 UNK        -0.2404 
     17 C17         2.3256  -21.8691  -47.3251 C.3       23 UNK        -0.0398 
     18 CA          1.1737  -22.7130  -46.7281 C.3       11 UNK         0.1400 
     19 N           0.9176  -22.3678  -45.3264 N.am      11 UNK        -0.5000 
     20 C           0.0907  -23.0348  -44.5083 C.2       10 UNK         0.5000 
     21 O          -0.5070  -24.0602  -44.8279 O.2       10 UNK        -0.5000 
     22 CA         -0.1696  -22.4139  -43.1235 C.3       10 UNK         0.1400 
     23 CB          0.9540  -22.7626  -42.1367 C.3       10 UNK        -0.1800 
     24 N          -0.3393  -20.9629  -43.1997 N.am      10 UNK        -0.5000 
     25 C          -1.3299  -20.3606  -43.8725 C.2       9 UNK         0.5000 
     26 O          -2.2586  -20.9675  -44.4049 O.2       9 UNK        -0.5000 
     27 CA         -1.2398  -18.8364  -44.0362 C.3       9 UNK         0.1400 
     28 CB         -1.8524  -18.1105  -42.8310 C.3       9 UNK        -0.1800 
     29 N           0.1273  -18.3719  -44.2539 N.am      9 UNK        -0.5000 
     30 C           0.8484  -18.6214  -45.3547 C.2       8 UNK         0.5000 
     31 O           0.4192  -19.2465  -46.3228 O.2       8 UNK        -0.5000 
     32 CA          2.3130  -18.1489  -45.3519 C.3       8 UNK         0.1400 
     33 CB          2.4346  -16.6752  -45.7614 C.3       8 UNK        -0.1800 
     34 N           2.9450  -18.3438  -44.0489 N.am      8 UNK        -0.5000 
     35 C           3.2293  -19.5409  -43.5198 C.2       7 UNK         0.5000 
     36 O           3.0335  -20.6078  -44.1018 O.2       7 UNK        -0.5000 
     37 CA          3.7853  -19.5401  -42.0844 C.3       7 UNK         0.1400 
     38 CB          5.3055  -19.3219  -42.0929 C.3       7 UNK        -0.1800 
     39 N           3.1524  -18.5219  -41.2423 N.am      7 UNK        -0.5000 
     40 C           1.8744  -18.5658  -40.8391 C.2       6 UNK         0.5000 
     41 O           1.1049  -19.4865  -41.1119 O.2       6 UNK        -0.5000 
     42 CA          1.3595  -17.3528  -40.0402 C.3       6 UNK         0.1400 
     43 CB          1.7398  -17.4781  -38.5574 C.3       6 UNK        -0.1800 
     44 N           1.8448  -16.0715  -40.5645 N.am      6 UNK        -0.5000 
     45 C           1.5524  -15.6013  -41.7836 C.2       5 UNK         0.5000 
     46 O           0.8438  -16.2034  -42.5918 O.2       5 UNK        -0.5000 
     47 CA          2.1956  -14.2709  -42.1920 C.3       5 UNK         0.1400 
     48 CB          3.6849  -14.4894  -42.5319 C.3       5 UNK        -0.1800 
     49 N           1.4752  -13.7496  -43.3518 N.am      5 UNK        -0.5000 
     50 C           1.6321  -12.5413  -43.9024 C.2       4 UNK         0.5000 
     51 O           2.3892  -11.6771  -43.4583 O.2       4 UNK        -0.5000 
     52 CA          0.8053  -12.2453  -45.1654 C.3       4 UNK         0.1400 
     53 CB          1.4609  -12.8727  -46.4046 C.3       4 UNK        -0.1800 
     54 N          -0.5839  -12.6965  -45.0669 N.am      4 UNK        -0.5000 
     55 C          -1.5304  -12.0556  -44.3656 C.2       3 UNK         0.5000 
     56 O          -1.2934  -11.0824  -43.6484 O.2       3 UNK        -0.5000 
     57 CA         -2.9879  -12.5410  -44.4982 C.3       3 UNK         0.1400 
     58 CB         -3.8653  -11.4442  -45.1255 C.3       3 UNK        -0.1800 
     59 N          -3.1078  -13.7443  -45.3222 N.am      3 UNK        -0.5000 
     60 C          -3.5074  -14.9424  -44.8754 C.2       2 UNK         0.5000 
     61 O          -3.8415  -15.1585  -43.7102 O.2       2 UNK        -0.5000 
     62 CA         -3.5504  -16.1071  -45.8887 C.3       2 UNK         0.1400 
     63 CB         -4.9891  -16.3582  -46.3633 C.3       2 UNK        -0.1800 
     64 N          -2.6932  -15.9386  -47.0646 N.am      2 UNK        -0.5000 
     65 C          -1.3629  -15.7709  -47.0515 C.2       1 UNK         0.5000 
     66 O          -0.6864  -15.7649  -46.0253 O.2       1 UNK        -0.5000 
     67 C          -0.1024  -22.6177  -47.5927 C.2       11 UNK         0.5000 
     68 O          -0.3738  -23.5220  -48.3840 O.2       11 UNK        -0.5000 
     69 N          -0.8781  -21.5409  -47.4043 N.am      12 UNK        -0.5000 
     70 CA         -2.1580  -21.3022  -48.0713 C.3       12 UNK         0.1400 
     71 CB         -2.6614  -19.8897  -47.7357 C.3       12 UNK        -0.1800 
     72 C          -3.2119  -22.3723  -47.7381 C.2       12 UNK         0.5000 
     73 O          -3.9013  -22.8512  -48.6398 O.2       12 UNK        -0.5000 
     74 N          -3.2859  -22.7537  -46.4561 N.am      13 UNK        -0.5000 
     75 CA         -4.1469  -23.8208  -45.9519 C.3       13 UNK         0.1400 
     76 CB         -4.1778  -23.7692  -44.4169 C.3       13 UNK        -0.1800 
     77 C          -3.7194  -25.2156  -46.4442 C.2       13 UNK         0.5000 
     78 O          -4.5808  -26.0033  -46.8350 O.2       13 UNK        -0.5000 
     79 N          -2.4072  -25.4929  -46.4283 N.am      14 UNK        -0.5000 
     80 CA         -1.8162  -26.7607  -46.8629 C.3       14 UNK         0.1400 
     81 CB         -0.3335  -26.8095  -46.4634 C.3       14 UNK        -0.1800 
     82 C          -1.9768  -27.0125  -48.3713 C.2       14 UNK         0.5000 
     83 O          -2.3196  -28.1279  -48.7661 O.2       14 UNK        -0.5000 
     84 N          -1.7454  -25.9725  -49.1838 N.am      15 UNK        -0.5000 
     85 CA         -1.9535  -26.0047  -50.6323 C.3       15 UNK         0.1400 
     86 CB         -1.2460  -24.8008  -51.2669 C.3       15 UNK        -0.1800 
     87 C          -3.4444  -26.0018  -51.0174 C.2       15 UNK         0.5000 
     88 O          -3.7943  -26.5308  -52.0730 O.2       15 UNK        -0.5000 
     89 N          -4.2807  -25.3973  -50.1588 N.am      16 UNK        -0.5000 
     90 CA         -5.7211  -25.1766  -50.3150 C.3       16 UNK         0.1400 
     91 CB         -6.4896  -26.5140  -50.3004 C.3       16 UNK        -0.1800 
     92 C          -6.0459  -24.2949  -51.5393 C.2       16 UNK         0.5000 
     93 O          -7.0393  -24.5292  -52.2301 O.2       16 UNK        -0.5000 
     94 N          -5.1864  -23.2987  -51.7859 N.am      17 UNK        -0.5000 
     95 CA         -5.2324  -22.4007  -52.9380 C.3       17 UNK         0.1400 
     96 CB         -4.1725  -22.8384  -53.9658 C.3       17 UNK        -0.1800 
     97 C          -5.0735  -20.9386  -52.4884 C.2       17 UNK         0.5000 
     98 O          -4.4977  -20.1252  -53.2126 O.2       17 UNK        -0.5000 
     99 N          -5.6063  -20.6176  -51.2998 N.am      18 UNK        -0.5000 
    100 CA        -5.5491  -19.2974  -50.6656 C.3       18 UNK         0.1400 
    101 CB        -6.2717  -19.3612  -49.3114 C.3       18 UNK        -0.1800 
    102 C         -6.1299  -18.1631  -51.5318 C.2       18 UNK         0.5000 
    103 O         -5.5765  -17.0641  -51.5421 O.2       18 UNK        -0.5000 
    104 N         -7.1932  -18.4697  -52.2885 N.am      19 UNK        -0.5000 
    105 CA        -7.8354  -17.5644  -53.2456 C.3       19 UNK         0.1400 
    106 CB        -9.1707  -18.1794  -53.6913 C.3       19 UNK        -0.1800 
    107 C         -6.9590  -17.2341  -54.4722 C.2       19 UNK         0.5000 
    108 O         -7.1481  -16.1806  -55.0806 O.2       19 UNK        -0.5000 
    109 N         -6.0128  -18.1235  -54.8030 N.am      20 UNK        -0.5000 
    110 CA        -5.0150  -17.9418  -55.8593 C.3       20 UNK         0.1400 
    111 CB        -4.7981  -19.2893  -56.5682 C.3       20 UNK        -0.1800 
    112 C         -3.6828  -17.3903  -55.3091 C.2       20 UNK         0.5000 
    113 O         -2.7565  -17.1769  -56.0921 O.2       20 UNK        -0.5000 
    114 N         -3.6116  -17.1716  -53.9864 N.am      21 UNK        -0.5000 
    115 CA        -2.4642  -16.6989  -53.2128 C.3       21 UNK         0.1400 
    116 CB        -2.1267  -15.2355  -53.5670 C.3       21 UNK        -0.1800 
    117 C         -1.2534  -17.6479  -53.3087 C.2       21 UNK         0.5000 
    118 O         -0.1605  -17.2223  -53.6867 O.2       21 UNK        -0.5000 
    119 N         -1.4681  -18.9198  -52.9527 N.am      22 UNK        -0.5000 
    120 CA        -0.4062  -19.9169  -52.7818 C.3       22 UNK         0.1400 
    121 C         -0.8291  -21.0158  -51.7755 C.2       22 UNK         0.5000 
    122 N          0.1111  -21.5899  -51.0357 N.am      22 UNK        -0.7600 
    123 O         -2.0023  -21.3517  -51.6554 O.2       22 UNK        -0.5000 
    124 C124        0.0940  -20.4716  -54.1426 C.3       23 UNK        -0.0398 
    125 S125        1.6335  -21.4551  -54.0631 S.3       23 UNK        -0.2404 
    126 C126        2.9234  -20.1830  -53.8430 C.3       23 UNK        -0.0205 
    127 H127       -3.9524  -12.6750  -49.8425 H         1 UNK         0.0600 
    128 H128       -2.9924  -13.5185  -51.0603 H         1 UNK         0.0600 
    129 H129       -2.4861  -11.9270  -50.4844 H         1 UNK         0.0600 
    130 H130       -1.6583  -15.0937  -50.2388 H         1 UNK         0.3000 
    131 H131        0.1585  -14.8073  -48.1747 H         1 UNK         0.0600 
    132 H132        0.4913  -17.3097  -48.3721 H         1 UNK         0.0800 
    133 H133       -0.9319  -17.4006  -49.3743 H         1 UNK         0.0800 
    134 H134        2.7044  -16.6923  -49.0150 H         1 UNK         0.0800 
    135 H135        3.2492  -16.0964  -50.5582 H         1 UNK         0.0800 
    136 H136        2.4152  -17.7920  -52.6166 H         1 UNK         0.1150 
    137 H137        3.8944  -21.7338  -51.8274 H         1 UNK         0.1150 
    138 H138        3.5236  -18.9047  -48.6267 H         1 UNK         0.1150 
    139 H139        5.2229  -21.9399  -49.6686 H         1 UNK         0.0800 
    140 H140        4.7928  -20.9653  -48.2898 H         1 UNK         0.0800 
    141 H141        1.9782  -20.8926  -47.6658 H         1 UNK         0.0800 
    142 H142        3.0781  -21.6720  -46.5608 H         1 UNK         0.0800 
    143 H143        1.4836  -23.7603  -46.7253 H         1 UNK         0.0600 
    144 H144        1.4034  -21.5554  -44.9629 H         1 UNK         0.3000 
    145 H145       -1.0996  -22.8377  -42.7389 H         1 UNK         0.0600 
    146 H146        0.7436  -22.3642  -41.1440 H         1 UNK         0.0600 
    147 H147        1.9160  -22.3653  -42.4587 H         1 UNK         0.0600 
    148 H148        1.0626  -23.8433  -42.0379 H         1 UNK         0.0600 
    149 H149        0.3488  -20.3911  -42.7202 H         1 UNK         0.3000 
    150 H150       -1.8120  -18.5801  -44.9261 H         1 UNK         0.0600 
    151 H151       -2.8933  -18.4019  -42.6865 H         1 UNK         0.0600 
    152 H152       -1.8330  -17.0298  -42.9731 H         1 UNK         0.0600 
    153 H153       -1.3145  -18.3350  -41.9098 H         1 UNK         0.0600 
    154 H154        0.5178  -17.7629  -43.5398 H         1 UNK         0.3000 
    155 H155        2.8547  -18.7486  -46.0865 H         1 UNK         0.0600 
    156 H156        1.9860  -16.5010  -46.7379 H         1 UNK         0.0600 
    157 H157        3.4776  -16.3649  -45.8229 H         1 UNK         0.0600 
    158 H158        1.9300  -16.0200  -45.0529 H         1 UNK         0.0600 
    159 H159        3.0987  -17.5199  -43.4889 H         1 UNK         0.3000 
    160 H160        3.5832  -20.5206  -41.6479 H         1 UNK         0.0600 
    161 H161        5.5720  -18.3450  -42.4984 H         1 UNK         0.0600 
    162 H162        5.8042  -20.0775  -42.7014 H         1 UNK         0.0600 
    163 H163        5.7190  -19.3921  -41.0867 H         1 UNK         0.0600 
    164 H164        3.7191  -17.7320  -40.9712 H         1 UNK         0.3000 
    165 H165        0.2697  -17.3515  -40.1115 H         1 UNK         0.0600 
    166 H166        1.3026  -16.6713  -37.9689 H         1 UNK         0.0600 
    167 H167        1.3753  -18.4176  -38.1394 H         1 UNK         0.0600 
    168 H168        2.8206  -17.4519  -38.4132 H         1 UNK         0.0600 
    169 H169        2.4377  -15.5276  -39.9539 H         1 UNK         0.3000 
    170 H170        2.0980  -13.5657  -41.3645 H         1 UNK         0.0600 
    171 H171        3.8085  -15.1524  -43.3887 H         1 UNK         0.0600 
    172 H172        4.1861  -13.5504  -42.7652 H         1 UNK         0.0600 
    173 H173        4.2227  -14.9325  -41.6930 H         1 UNK         0.0600 
    174 H174        0.8070  -14.4014  -43.7472 H         1 UNK         0.3000 
    175 H175        0.8021  -11.1626  -45.3097 H         1 UNK         0.0600 
    176 H176        1.4855  -13.9598  -46.3398 H         1 UNK         0.0600 
    177 H177        0.9242  -12.5998  -47.3135 H         1 UNK         0.0600 
    178 H178        2.4896  -12.5285  -46.5189 H         1 UNK         0.0600 
    179 H179       -0.8389  -13.5191  -45.5960 H         1 UNK         0.3000 
    180 H180       -3.3500  -12.7257  -43.4851 H         1 UNK         0.0600 
    181 H181       -4.9071  -11.7598  -45.1842 H         1 UNK         0.0600 
    182 H182       -3.5336  -11.1940  -46.1342 H         1 UNK         0.0600 
    183 H183       -3.8377  -10.5289  -44.5328 H         1 UNK         0.0600 
    184 H184       -2.8436  -13.6374  -46.2972 H         1 UNK         0.3000 
    185 H185       -3.2187  -16.9963  -45.3579 H         1 UNK         0.0600 
    186 H186       -5.3731  -15.5196  -46.9455 H         1 UNK         0.0600 
    187 H187       -5.0468  -17.2541  -46.9811 H         1 UNK         0.0600 
    188 H188       -5.6616  -16.5066  -45.5173 H         1 UNK         0.0600 
    189 H189       -3.1660  -15.8784  -47.9542 H         1 UNK         0.3000 
    190 H190       -0.5421  -20.8042  -46.7898 H         1 UNK         0.3000 
    191 H191       -1.9792  -21.3468  -49.1418 H         1 UNK         0.0600 
    192 H192       -3.5328  -19.6366  -48.3363 H         1 UNK         0.0600 
    193 H193       -1.8991  -19.1386  -47.9399 H         1 UNK         0.0600 
    194 H194       -2.9500  -19.7973  -46.6895 H         1 UNK         0.0600 
    195 H195       -2.7179  -22.2638  -45.7703 H         1 UNK         0.3000 
    196 H196       -5.1593  -23.6351  -46.3170 H         1 UNK         0.0600 
    197 H197       -4.5523  -22.8084  -44.0632 H         1 UNK         0.0600 
    198 H198       -3.1861  -23.9178  -43.9885 H         1 UNK         0.0600 
    199 H199       -4.8311  -24.5432  -44.0123 H         1 UNK         0.0600 
    200 H200       -1.7650  -24.8098  -46.0347 H         1 UNK         0.3000 
    201 H201       -2.3330  -27.5660  -46.3368 H         1 UNK         0.0600 
    202 H202       -0.2150  -26.7442  -45.3818 H         1 UNK         0.0600 
    203 H203        0.2311  -25.9918  -46.9127 H         1 UNK         0.0600 
    204 H204        0.1285  -27.7440  -46.7840 H         1 UNK         0.0600 
    205 H205       -1.4102  -25.0971  -48.7890 H         1 UNK         0.3000 
    206 H206       -1.5035  -26.9166  -51.0301 H         1 UNK         0.0600 
    207 H207       -1.6632  -23.8661  -50.8938 H         1 UNK         0.0600 
    208 H208       -0.1780  -24.8049  -51.0480 H         1 UNK         0.0600 
    209 H209       -1.3593  -24.8008  -52.3517 H         1 UNK         0.0600 
    210 H210       -3.8727  -24.9546  -49.3449 H         1 UNK         0.3000 
    211 H211       -6.0360  -24.6083  -49.4387 H         1 UNK         0.0600 
    212 H212       -6.2743  -27.1172  -51.1827 H         1 UNK         0.0600 
    213 H213       -7.5666  -26.3452  -50.2748 H         1 UNK         0.0600 
    214 H214       -6.2330  -27.1032  -49.4196 H         1 UNK         0.0600 
    215 H215       -4.4145  -23.1552  -51.1457 H         1 UNK         0.3000 
    216 H216       -6.2101  -22.4566  -53.4201 H         1 UNK         0.0600 
    217 H217       -4.2063  -22.2159  -54.8599 H         1 UNK         0.0600 
    218 H218       -4.3368  -23.8682  -54.2829 H         1 UNK         0.0600 
    219 H219       -3.1642  -22.7749  -53.5568 H         1 UNK         0.0600 
    220 H220       -6.0524  -21.3526  -50.7709 H         1 UNK         0.3000 
    221 H221       -4.4965  -19.0678  -50.4890 H         1 UNK         0.0600 
    222 H222       -7.3308  -19.5926  -49.4320 H         1 UNK         0.0600 
    223 H223       -5.8383  -20.1227  -48.6629 H         1 UNK         0.0600 
    224 H224       -6.2033  -18.4075  -48.7875 H         1 UNK         0.0600 
    225 H225       -7.5753  -19.4016  -52.2204 H         1 UNK         0.3000 
    226 H226       -8.0462  -16.6242  -52.7316 H         1 UNK         0.0600 
    227 H227       -9.8325  -18.3454  -52.8411 H         1 UNK         0.0600 
    228 H228       -9.6938  -17.5184  -54.3838 H         1 UNK         0.0600 
    229 H229       -9.0249  -19.1350  -54.1966 H         1 UNK         0.0600 
    230 H230       -5.8805  -18.9415  -54.2198 H         1 UNK         0.3000 
    231 H231       -5.3819  -17.2278  -56.5993 H         1 UNK         0.0600 
    232 H232       -4.1244  -19.1798  -57.4189 H         1 UNK         0.0600 
    233 H233       -5.7370  -19.6921  -56.9485 H         1 UNK         0.0600 
    234 H234       -4.3602  -20.0300  -55.8994 H         1 UNK         0.0600 
    235 H235       -4.4348  -17.3840  -53.4383 H         1 UNK         0.3000 
    236 H236       -2.7772  -16.7132  -52.1678 H         1 UNK         0.0600 
    237 H237       -1.7788  -15.1352  -54.5954 H         1 UNK         0.0600 
    238 H238       -2.9961  -14.5900  -53.4433 H         1 UNK         0.0600 
    239 H239       -1.3392  -14.8499  -52.9182 H         1 UNK         0.0600 
    240 H240       -2.3990  -19.2413  -52.7097 H         1 UNK         0.3000 
    241 H241        0.4100  -19.3883  -52.2994 H         1 UNK         0.0600 
    242 H242       -0.1509  -22.3116  -50.3809 H         1 UNK         0.3800 
    243 H243        1.0827  -21.3427  -51.1453 H         1 UNK         0.3800 
    244 H244        0.2649  -19.6545  -54.8442 H         1 UNK         0.0800 
    245 H245       -0.6829  -21.0889  -54.5964 H         1 UNK         0.0800 
    246 H246        3.8664  -20.5715  -54.2299 H         1 UNK         0.0800 
    247 H247        2.6846  -19.3054  -54.4459 H         1 UNK         0.0800 
@<TRIPOS>BOND
     1    1    2 1    
     2    1  127 1    
     3    1  128 1    
     4    1  129 1    
     5    2    3 2    
     6    2    4 am   BACKBONE|DICT|INTERRES
     7    4    5 1    
     8    4  130 1    
     9    5    6 1    
    10    5   65 1    
    11    5  131 1    
    12    6    7 1    
    13    6  132 1    
    14    6  133 1    
    15    7    8 1    
    16    8    9 1    
    17    8  134 1    
    18    8  135 1    
    19    9   10 ar   
    20    9   14 ar   
    21   10   11 ar   
    22   10  136 1    
    23   11   12 ar   
    24   11  126 1    
    25   12   13 ar   
    26   12  137 1    
    27   13   14 ar   
    28   13   15 1    
    29   14  138 1    
    30   15   16 1    
    31   15  139 1    
    32   15  140 1    
    33   16   17 1    
    34   17   18 1    
    35   17  141 1    
    36   17  142 1    
    37   18   19 1    
    38   18   67 1    
    39   18  143 1    
    40   19   20 am   BACKBONE|DICT|INTERRES
    41   19  144 1    
    42   20   21 2    
    43   20   22 1    
    44   22   23 1    
    45   22   24 1    
    46   22  145 1    
    47   23  146 1    
    48   23  147 1    
    49   23  148 1    
    50   24   25 am   BACKBONE|DICT|INTERRES
    51   24  149 1    
    52   25   26 2    
    53   25   27 1    
    54   27   28 1    
    55   27   29 1    
    56   27  150 1    
    57   28  151 1    
    58   28  152 1    
    59   28  153 1    
    60   29   30 am   BACKBONE|DICT|INTERRES
    61   29  154 1    
    62   30   31 2    
    63   30   32 1    
    64   32   33 1    
    65   32   34 1    
    66   32  155 1    
    67   33  156 1    
    68   33  157 1    
    69   33  158 1    
    70   34   35 am   BACKBONE|DICT|INTERRES
    71   34  159 1    
    72   35   36 2    
    73   35   37 1    
    74   37   38 1    
    75   37   39 1    
    76   37  160 1    
    77   38  161 1    
    78   38  162 1    
    79   38  163 1    
    80   39   40 am   BACKBONE|DICT|INTERRES
    81   39  164 1    
    82   40   41 2    
    83   40   42 1    
    84   42   43 1    
    85   42   44 1    
    86   42  165 1    
    87   43  166 1    
    88   43  167 1    
    89   43  168 1    
    90   44   45 am   BACKBONE|DICT|INTERRES
    91   44  169 1    
    92   45   46 2    
    93   45   47 1    
    94   47   48 1    
    95   47   49 1    
    96   47  170 1    
    97   48  171 1    
    98   48  172 1    
    99   48  173 1    
   100   49   50 am   BACKBONE|DICT|INTERRES
   101   49  174 1    
   102   50   51 2    
   103   50   52 1    
   104   52   53 1    
   105   52   54 1    
   106   52  175 1    
   107   53  176 1    
   108   53  177 1    
   109   53  178 1    
   110   54   55 am   BACKBONE|DICT|INTERRES
   111   54  179 1    
   112   55   56 2    
   113   55   57 1    
   114   57   58 1    
   115   57   59 1    
   116   57  180 1    
   117   58  181 1    
   118   58  182 1    
   119   58  183 1    
   120   59   60 am   BACKBONE|DICT|INTERRES
   121   59  184 1    
   122   60   61 2    
   123   60   62 1    
   124   62   63 1    
   125   62   64 1    
   126   62  185 1    
   127   63  186 1    
   128   63  187 1    
   129   63  188 1    
   130   64   65 am   BACKBONE|DICT|INTERRES
   131   64  189 1    
   132   65   66 2    
   133   67   68 2    
   134   67   69 am   BACKBONE|DICT|INTERRES
   135   69   70 1    
   136   69  190 1    
   137   70   71 1    
   138   70   72 1    
   139   70  191 1    
   140   71  192 1    
   141   71  193 1    
   142   71  194 1    
   143   72   73 2    
   144   72   74 am   BACKBONE|DICT|INTERRES
   145   74   75 1    
   146   74  195 1    
   147   75   76 1    
   148   75   77 1    
   149   75  196 1    
   150   76  197 1    
   151   76  198 1    
   152   76  199 1    
   153   77   78 2    
   154   77   79 am   BACKBONE|DICT|INTERRES
   155   79   80 1    
   156   79  200 1    
   157   80   81 1    
   158   80   82 1    
   159   80  201 1    
   160   81  202 1    
   161   81  203 1    
   162   81  204 1    
   163   82   83 2    
   164   82   84 am   BACKBONE|DICT|INTERRES
   165   84   85 1    
   166   84  205 1    
   167   85   86 1    
   168   85   87 1    
   169   85  206 1    
   170   86  207 1    
   171   86  208 1    
   172   86  209 1    
   173   87   88 2    
   174   87   89 am   BACKBONE|DICT|INTERRES
   175   89   90 1    
   176   89  210 1    
   177   90   91 1    
   178   90   92 1    
   179   90  211 1    
   180   91  212 1    
   181   91  213 1    
   182   91  214 1    
   183   92   93 2    
   184   92   94 am   BACKBONE|DICT|INTERRES
   185   94   95 1    
   186   94  215 1    
   187   95   96 1    
   188   95   97 1    
   189   95  216 1    
   190   96  217 1    
   191   96  218 1    
   192   96  219 1    
   193   97   98 2    
   194   97   99 am   BACKBONE|DICT|INTERRES
   195   99  100 1    
   196   99  220 1    
   197  100  101 1    
   198  100  102 1    
   199  100  221 1    
   200  101  222 1    
   201  101  223 1    
   202  101  224 1    
   203  102  103 2    
   204  102  104 am   BACKBONE|DICT|INTERRES
   205  104  105 1    
   206  104  225 1    
   207  105  106 1    
   208  105  107 1    
   209  105  226 1    
   210  106  227 1    
   211  106  228 1    
   212  106  229 1    
   213  107  108 2    
   214  107  109 am   BACKBONE|DICT|INTERRES
   215  109  110 1    
   216  109  230 1    
   217  110  111 1    
   218  110  112 1    
   219  110  231 1    
   220  111  232 1    
   221  111  233 1    
   222  111  234 1    
   223  112  113 2    
   224  112  114 am   BACKBONE|DICT|INTERRES
   225  114  115 1    
   226  114  235 1    
   227  115  116 1    
   228  115  117 1    
   229  115  236 1    
   230  116  237 1    
   231  116  238 1    
   232  116  239 1    
   233  117  118 2    
   234  117  119 am   BACKBONE|DICT|INTERRES
   235  119  120 1    
   236  119  240 1    
   237  120  121 1    
   238  120  124 1    
   239  120  241 1    
   240  121  122 am   BACKBONE|DICT|INTERRES
   241  121  123 2    
   242  122  242 1    
   243  122  243 1    
   244  124  125 1    
   245  124  244 1    
   246  124  245 1    
   247  125  126 1    
   248  126  246 1    
   249  126  247 1    
@<TRIPOS>SUBSTRUCTURE
     1 UNK         1 GROUP             0       ****    0 ROOT    
