@<TRIPOS>MOLECULE
3R540
247   249    1
SMALL
USER_CHARGES


@<TRIPOS>ATOM
      1 CA         -4.0081  -11.0785  -52.6317 C.3       0 UNK        -0.1800 
      2 C          -2.9591  -11.5583  -51.6388 C.2       0 UNK         0.5000 
      3 O          -1.9846  -12.1955  -52.0377 O.2       0 UNK        -0.5000 
      4 N          -3.1560  -11.2581  -50.3497 N.am      1 UNK        -0.5000 
      5 CA         -2.2540  -11.6106  -49.2509 C.3       1 UNK         0.1400 
      6 C6         -2.9646  -11.5556  -47.8738 C.3       23 UNK        -0.0398 
      7 S7         -4.3912  -12.6893  -47.7442 S.3       23 UNK        -0.2404 
      8 C8         -3.7736  -13.9607  -46.5959 C.3       23 UNK        -0.0205 
      9 C9         -3.0234  -15.0644  -47.3244 C.ar      23 UNK        -0.0193 
     10 C10        -1.6695  -14.9177  -47.6350 C.ar      23 UNK        -0.1150 
     11 C11        -0.9818  -15.9338  -48.3044 C.ar      23 UNK        -0.0193 
     12 C12        -1.6494  -17.1163  -48.6361 C.ar      23 UNK        -0.1150 
     13 C13        -3.0014  -17.2777  -48.3248 C.ar      23 UNK        -0.0193 
     14 C14        -3.6849  -16.2437  -47.6790 C.ar      23 UNK        -0.1150 
     15 C15        -3.7342  -18.5542  -48.7079 C.3       23 UNK        -0.0205 
     16 S16        -4.1849  -19.5533  -47.2556 S.3       23 UNK        -0.2404 
     17 C17        -2.5954  -20.3190  -46.7858 C.3       23 UNK        -0.0398 
     18 CA         -2.7186  -21.8484  -46.5769 C.3       11 UNK         0.1400 
     19 N          -1.4158  -22.5153  -46.6321 N.am      11 UNK        -0.5000 
     20 C          -1.2305  -23.8441  -46.6824 C.2       10 UNK         0.5000 
     21 O          -2.1491  -24.6600  -46.7471 O.2       10 UNK        -0.5000 
     22 CA          0.2220  -24.3580  -46.5958 C.3       10 UNK         0.1400 
     23 CB          0.8396  -24.4695  -47.9964 C.3       10 UNK        -0.1800 
     24 N           1.0804  -23.5209  -45.7580 N.am      10 UNK        -0.5000 
     25 C           0.8586  -23.2497  -44.4651 C.2       9 UNK         0.5000 
     26 O          -0.0232  -23.7943  -43.8023 O.2       9 UNK        -0.5000 
     27 CA          1.7229  -22.1586  -43.8063 C.3       9 UNK         0.1400 
     28 CB          2.8067  -22.7978  -42.9261 C.3       9 UNK        -0.1800 
     29 N           2.3596  -21.1927  -44.7098 N.am      9 UNK        -0.5000 
     30 C           1.7761  -20.4534  -45.6652 C.2       8 UNK         0.5000 
     31 O           0.6259  -20.6236  -46.0729 O.2       8 UNK        -0.5000 
     32 CA          2.6295  -19.3005  -46.2206 C.3       8 UNK         0.1400 
     33 CB          1.9503  -18.5810  -47.3945 C.3       8 UNK        -0.1800 
     34 N           2.8711  -18.3331  -45.1537 N.am      8 UNK        -0.5000 
     35 C           3.8508  -18.4152  -44.2448 C.2       7 UNK         0.5000 
     36 O           4.7505  -19.2553  -44.2827 O.2       7 UNK        -0.5000 
     37 CA          3.7486  -17.4526  -43.0521 C.3       7 UNK         0.1400 
     38 CB          4.0897  -16.0101  -43.4613 C.3       7 UNK        -0.1800 
     39 N           2.4062  -17.5029  -42.4710 N.am      7 UNK        -0.5000 
     40 C           1.9647  -18.4820  -41.6661 C.2       6 UNK         0.5000 
     41 O           2.6684  -19.4127  -41.2741 O.2       6 UNK        -0.5000 
     42 CA          0.4922  -18.4133  -41.2181 C.3       6 UNK         0.1400 
     43 CB          0.3722  -17.6671  -39.8808 C.3       6 UNK        -0.1800 
     44 N          -0.3590  -17.7551  -42.2083 N.am      6 UNK        -0.5000 
     45 C          -0.8398  -18.3515  -43.3075 C.2       5 UNK         0.5000 
     46 O          -0.7098  -19.5510  -43.5444 O.2       5 UNK        -0.5000 
     47 CA         -1.5934  -17.4575  -44.3119 C.3       5 UNK         0.1400 
     48 CB         -3.1107  -17.5982  -44.1140 C.3       5 UNK        -0.1800 
     49 N          -1.2317  -16.0391  -44.2335 N.am      5 UNK        -0.5000 
     50 C          -0.0308  -15.5425  -44.5532 C.2       4 UNK         0.5000 
     51 O           0.9315  -16.2331  -44.8985 O.2       4 UNK        -0.5000 
     52 CA          0.1356  -14.0266  -44.4133 C.3       4 UNK         0.1400 
     53 CB          0.4717  -13.6506  -42.9606 C.3       4 UNK        -0.1800 
     54 N           1.2154  -13.5845  -45.2888 N.am      4 UNK        -0.5000 
     55 C           1.2337  -12.4329  -45.9665 C.2       3 UNK         0.5000 
     56 O           0.3227  -11.6048  -45.9104 O.2       3 UNK        -0.5000 
     57 CA          2.4510  -12.1473  -46.8670 C.3       3 UNK         0.1400 
     58 CB          3.4381  -13.3255  -47.0015 C.3       3 UNK        -0.1800 
     59 N           1.9501  -11.7880  -48.1880 N.am      3 UNK        -0.5000 
     60 C           2.1259  -10.6186  -48.8131 C.2       2 UNK         0.5000 
     61 O           2.8624   -9.7188  -48.4068 O.2       2 UNK        -0.5000 
     62 CA          1.3112  -10.4159  -50.1070 C.3       2 UNK         0.1400 
     63 CB          2.0882  -10.9357  -51.3256 C.3       2 UNK        -0.1800 
     64 N           0.0057  -11.0801  -50.0518 N.am      2 UNK        -0.5000 
     65 C          -1.0129  -10.6929  -49.2738 C.2       1 UNK         0.5000 
     66 O          -1.0062   -9.6510  -48.6153 O.2       1 UNK        -0.5000 
     67 C          -3.4627  -22.1774  -45.2661 C.2       11 UNK         0.5000 
     68 O          -4.6418  -22.5279  -45.3080 O.2       11 UNK        -0.5000 
     69 N          -2.7519  -22.0914  -44.1318 N.am      12 UNK        -0.5000 
     70 CA         -3.2689  -22.4527  -42.8113 C.3       12 UNK         0.1400 
     71 CB         -2.2993  -21.9639  -41.7238 C.3       12 UNK        -0.1800 
     72 C          -3.5391  -23.9628  -42.6709 C.2       12 UNK         0.5000 
     73 O          -4.5125  -24.3433  -42.0191 O.2       12 UNK        -0.5000 
     74 N          -2.6841  -24.7902  -43.2888 N.am      13 UNK        -0.5000 
     75 CA         -2.8050  -26.2468  -43.3133 C.3       13 UNK         0.1400 
     76 CB         -1.5130  -26.8673  -43.8656 C.3       13 UNK        -0.1800 
     77 C          -4.0284  -26.7355  -44.1096 C.2       13 UNK         0.5000 
     78 O          -4.7492  -27.6069  -43.6200 O.2       13 UNK        -0.5000 
     79 N          -4.2509  -26.1713  -45.3049 N.am      14 UNK        -0.5000 
     80 CA         -5.3795  -26.5127  -46.1682 C.3       14 UNK         0.1400 
     81 CB         -5.1465  -27.8701  -46.8645 C.3       14 UNK        -0.1800 
     82 C          -5.6576  -25.3979  -47.1847 C.2       14 UNK         0.5000 
     83 O          -6.7073  -24.7580  -47.1144 O.2       14 UNK        -0.5000 
     84 N          -4.7270  -25.2095  -48.1256 N.am      15 UNK        -0.5000 
     85 CA         -4.8244  -24.3057  -49.2654 C.3       15 UNK         0.1400 
     86 CB         -5.8856  -24.8226  -50.2564 C.3       15 UNK        -0.1800 
     87 C          -3.4384  -24.2420  -49.9211 C.2       15 UNK         0.5000 
     88 O          -2.8839  -25.2916  -50.2581 O.2       15 UNK        -0.5000 
     89 N          -2.8886  -23.0316  -50.0802 N.am      16 UNK        -0.5000 
     90 CA         -1.5527  -22.8040  -50.6322 C.3       16 UNK         0.1400 
     91 CB         -1.0991  -21.3693  -50.3385 C.3       16 UNK        -0.1800 
     92 C          -1.5224  -23.1016  -52.1370 C.2       16 UNK         0.5000 
     93 O          -2.1980  -22.4108  -52.9020 O.2       16 UNK        -0.5000 
     94 N          -0.7814  -24.1535  -52.5138 N.am      17 UNK        -0.5000 
     95 CA         -0.7056  -24.7437  -53.8574 C.3       17 UNK         0.1400 
     96 CB         -0.0521  -23.7632  -54.8526 C.3       17 UNK        -0.1800 
     97 C          -2.0705  -25.2731  -54.3523 C.2       17 UNK         0.5000 
     98 O          -2.3435  -25.2432  -55.5532 O.2       17 UNK        -0.5000 
     99 N          -2.9105  -25.7202  -53.4037 N.am      18 UNK        -0.5000 
    100 CA        -4.3073  -26.1368  -53.5759 C.3       18 UNK         0.1400 
    101 CB        -4.4151  -27.3801  -54.4836 C.3       18 UNK        -0.1800 
    102 C         -5.2453  -24.9879  -54.0145 C.2       18 UNK         0.5000 
    103 O         -6.3244  -25.2509  -54.5481 O.2       18 UNK        -0.5000 
    104 N         -4.8341  -23.7388  -53.7647 N.am      19 UNK        -0.5000 
    105 CA        -5.5744  -22.5203  -54.0627 C.3       19 UNK         0.1400 
    106 CB        -5.2410  -22.0554  -55.4966 C.3       19 UNK        -0.1800 
    107 C         -5.2607  -21.4903  -52.9632 C.2       19 UNK         0.5000 
    108 O         -5.4238  -21.8000  -51.7816 O.2       19 UNK        -0.5000 
    109 N         -4.8026  -20.2970  -53.3504 N.am      20 UNK        -0.5000 
    110 CA        -4.3994  -19.2271  -52.4450 C.3       20 UNK         0.1400 
    111 CB        -5.5795  -18.2635  -52.2171 C.3       20 UNK        -0.1800 
    112 C         -3.1410  -18.5409  -52.9952 C.2       20 UNK         0.5000 
    113 O         -3.1235  -17.3200  -53.1596 O.2       20 UNK        -0.5000 
    114 N         -2.1154  -19.3469  -53.3061 N.am      21 UNK        -0.5000 
    115 CA        -0.8057  -18.8716  -53.7552 C.3       21 UNK         0.1400 
    116 CB         0.0550  -20.0708  -54.1763 C.3       21 UNK        -0.1800 
    117 C         -0.0962  -18.0423  -52.6675 C.2       21 UNK         0.5000 
    118 O         -0.0662  -18.4534  -51.5064 O.2       21 UNK        -0.5000 
    119 N          0.4584  -16.8949  -53.0632 N.am      22 UNK        -0.5000 
    120 CA         1.1187  -15.9282  -52.1823 C.3       22 UNK         0.1400 
    121 C          2.0856  -15.0305  -52.9993 C.2       22 UNK         0.5000 
    122 N          3.1355  -14.5112  -52.3792 N.am      22 UNK        -0.7600 
    123 O          1.8888  -14.7928  -54.1899 O.2       22 UNK        -0.5000 
    124 C124        0.0827  -15.1025  -51.3702 C.3       23 UNK        -0.0398 
    125 S125        0.7725  -14.4051  -49.8333 S.3       23 UNK        -0.2404 
    126 C126        0.4862  -15.7615  -48.6569 C.3       23 UNK        -0.0205 
    127 H127       -4.4419  -11.9287  -53.1580 H         1 UNK         0.0600 
    128 H128       -3.5521  -10.4167  -53.3680 H         1 UNK         0.0600 
    129 H129       -4.8151  -10.5356  -52.1390 H         1 UNK         0.0600 
    130 H130       -3.9738  -10.7278  -50.0853 H         1 UNK         0.3000 
    131 H131       -1.9138  -12.6370  -49.4037 H         1 UNK         0.0600 
    132 H132       -2.2549  -11.7729  -47.0739 H         1 UNK         0.0800 
    133 H133       -3.3322  -10.5473  -47.6750 H         1 UNK         0.0800 
    134 H134       -4.6262  -14.3865  -46.0646 H         1 UNK         0.0800 
    135 H135       -3.1423  -13.5109  -45.8289 H         1 UNK         0.0800 
    136 H136       -1.1501  -14.0096  -47.3657 H         1 UNK         0.1150 
    137 H137       -1.1178  -17.9083  -49.1449 H         1 UNK         0.1150 
    138 H138       -4.7330  -16.3644  -47.4434 H         1 UNK         0.1150 
    139 H139       -4.6464  -18.2895  -49.2436 H         1 UNK         0.0800 
    140 H140       -3.1370  -19.1544  -49.3934 H         1 UNK         0.0800 
    141 H141       -2.2132  -19.8378  -45.8874 H         1 UNK         0.0800 
    142 H142       -1.8609  -20.0990  -47.5587 H         1 UNK         0.0800 
    143 H143       -3.3118  -22.2559  -47.3967 H         1 UNK         0.0600 
    144 H144       -0.6032  -21.9111  -46.5190 H         1 UNK         0.3000 
    145 H145        0.1978  -25.3551  -46.1539 H         1 UNK         0.0600 
    146 H146        1.8325  -24.9177  -47.9539 H         1 UNK         0.0600 
    147 H147        0.2278  -25.1008  -48.6424 H         1 UNK         0.0600 
    148 H148        0.9329  -23.4930  -48.4732 H         1 UNK         0.0600 
    149 H149        1.8163  -23.0127  -46.2251 H         1 UNK         0.3000 
    150 H150        1.0582  -21.5864  -43.1567 H         1 UNK         0.0600 
    151 H151        2.3709  -23.4981  -42.2120 H         1 UNK         0.0600 
    152 H152        3.3426  -22.0427  -42.3503 H         1 UNK         0.0600 
    153 H153        3.5358  -23.3467  -43.5232 H         1 UNK         0.0600 
    154 H154        3.3085  -20.9375  -44.4651 H         1 UNK         0.3000 
    155 H155        3.5753  -19.7141  -46.5760 H         1 UNK         0.0600 
    156 H156        0.9959  -18.1462  -47.0939 H         1 UNK         0.0600 
    157 H157        1.7546  -19.2674  -48.2193 H         1 UNK         0.0600 
    158 H158        2.5834  -17.7807  -47.7771 H         1 UNK         0.0600 
    159 H159        2.1537  -17.6219  -45.0313 H         1 UNK         0.3000 
    160 H160        4.4726  -17.7677  -42.2975 H         1 UNK         0.0600 
    161 H161        3.4177  -15.6302  -44.2299 H         1 UNK         0.0600 
    162 H162        5.1039  -15.9502  -43.8577 H         1 UNK         0.0600 
    163 H163        4.0350  -15.3356  -42.6067 H         1 UNK         0.0600 
    164 H164        1.7472  -16.8142  -42.8014 H         1 UNK         0.3000 
    165 H165        0.1403  -19.4367  -41.0691 H         1 UNK         0.0600 
    166 H166       -0.6578  -17.6620  -39.5238 H         1 UNK         0.0600 
    167 H167        0.9794  -18.1458  -39.1113 H         1 UNK         0.0600 
    168 H168        0.7046  -16.6315  -39.9645 H         1 UNK         0.0600 
    169 H169       -0.5497  -16.7742  -42.0708 H         1 UNK         0.3000 
    170 H170       -1.3375  -17.8041  -45.3152 H         1 UNK         0.0600 
    171 H171       -3.4200  -18.6434  -44.1572 H         1 UNK         0.0600 
    172 H172       -3.4285  -17.2050  -43.1478 H         1 UNK         0.0600 
    173 H173       -3.6608  -17.0677  -44.8907 H         1 UNK         0.0600 
    174 H174       -1.9641  -15.4094  -43.9400 H         1 UNK         0.3000 
    175 H175       -0.8046  -13.5542  -44.7052 H         1 UNK         0.0600 
    176 H176        1.4025  -14.1134  -42.6297 H         1 UNK         0.0600 
    177 H177        0.5795  -12.5714  -42.8504 H         1 UNK         0.0600 
    178 H178       -0.3168  -13.9675  -42.2771 H         1 UNK         0.0600 
    179 H179        1.9500  -14.2648  -45.4304 H         1 UNK         0.3000 
    180 H180        2.9818  -11.3065  -46.4166 H         1 UNK         0.0600 
    181 H181        2.9658  -14.2122  -47.4240 H         1 UNK         0.0600 
    182 H182        3.8677  -13.5973  -46.0366 H         1 UNK         0.0600 
    183 H183        4.2696  -13.0580  -47.6538 H         1 UNK         0.0600 
    184 H184        1.3140  -12.4518  -48.6089 H         1 UNK         0.3000 
    185 H185        1.1474   -9.3441  -50.2365 H         1 UNK         0.0600 
    186 H186        3.0549  -10.4385  -51.4134 H         1 UNK         0.0600 
    187 H187        2.2753  -12.0073  -51.2557 H         1 UNK         0.0600 
    188 H188        1.5417  -10.7512  -52.2507 H         1 UNK         0.0600 
    189 H189       -0.1148  -11.9025  -50.6292 H         1 UNK         0.3000 
    190 H190       -1.7886  -21.7866  -44.1736 H         1 UNK         0.3000 
    191 H191       -4.2201  -21.9352  -42.6696 H         1 UNK         0.0600 
    192 H192       -1.3000  -22.3799  -41.8541 H         1 UNK         0.0600 
    193 H193       -2.6479  -22.2512  -40.7311 H         1 UNK         0.0600 
    194 H194       -2.2145  -20.8776  -41.7325 H         1 UNK         0.0600 
    195 H195       -1.8586  -24.3919  -43.7267 H         1 UNK         0.3000 
    196 H196       -2.9223  -26.5847  -42.2816 H         1 UNK         0.0600 
    197 H197       -1.5522  -27.9559  -43.8135 H         1 UNK         0.0600 
    198 H198       -0.6421  -26.5447  -43.2948 H         1 UNK         0.0600 
    199 H199       -1.3515  -26.5972  -44.9084 H         1 UNK         0.0600 
    200 H200       -3.6123  -25.4614  -45.6537 H         1 UNK         0.3000 
    201 H201       -6.2748  -26.5996  -45.5486 H         1 UNK         0.0600 
    202 H202       -5.1384  -28.6892  -46.1456 H         1 UNK         0.0600 
    203 H203       -4.1982  -27.8927  -47.4025 H         1 UNK         0.0600 
    204 H204       -5.9390  -28.0827  -47.5832 H         1 UNK         0.0600 
    205 H205       -3.8597  -25.7305  -48.0782 H         1 UNK         0.3000 
    206 H206       -5.1067  -23.3112  -48.9142 H         1 UNK         0.0600 
    207 H207       -5.7086  -25.8641  -50.5247 H         1 UNK         0.0600 
    208 H208       -6.8890  -24.7545  -49.8372 H         1 UNK         0.0600 
    209 H209       -5.8882  -24.2414  -51.1756 H         1 UNK         0.0600 
    210 H210       -3.4398  -22.2116  -49.8749 H         1 UNK         0.3000 
    211 H211       -0.8577  -23.4776  -50.1299 H         1 UNK         0.0600 
    212 H212       -1.8138  -20.6330  -50.7042 H         1 UNK         0.0600 
    213 H213       -0.1406  -21.1579  -50.8139 H         1 UNK         0.0600 
    214 H214       -0.9607  -21.2146  -49.2709 H         1 UNK         0.0600 
    215 H215       -0.2841  -24.6640  -51.7972 H         1 UNK         0.3000 
    216 H216       -0.0531  -25.6138  -53.7736 H         1 UNK         0.0600 
    217 H217        0.1920  -24.2648  -55.7896 H         1 UNK         0.0600 
    218 H218        0.8742  -23.3491  -54.4546 H         1 UNK         0.0600 
    219 H219       -0.7175  -22.9346  -55.0935 H         1 UNK         0.0600 
    220 H220       -2.5926  -25.6899  -52.4415 H         1 UNK         0.3000 
    221 H221       -4.6472  -26.4352  -52.5842 H         1 UNK         0.0600 
    222 H222       -4.1833  -27.1475  -55.5231 H         1 UNK         0.0600 
    223 H223       -3.7376  -28.1684  -54.1557 H         1 UNK         0.0600 
    224 H224       -5.4243  -27.7928  -54.4616 H         1 UNK         0.0600 
    225 H225       -3.9358  -23.5891  -53.3197 H         1 UNK         0.3000 
    226 H226       -6.6463  -22.7182  -54.0002 H         1 UNK         0.0600 
    227 H227       -5.5069  -22.8217  -56.2250 H         1 UNK         0.0600 
    228 H228       -5.7984  -21.1573  -55.7650 H         1 UNK         0.0600 
    229 H229       -4.1769  -21.8465  -55.6163 H         1 UNK         0.0600 
    230 H230       -4.6547  -20.1245  -54.3351 H         1 UNK         0.3000 
    231 H231       -4.1129  -19.6492  -51.4809 H         1 UNK         0.0600 
    232 H232       -6.4260  -18.7797  -51.7643 H         1 UNK         0.0600 
    233 H233       -5.9194  -17.8180  -53.1526 H         1 UNK         0.0600 
    234 H234       -5.2996  -17.4501  -51.5464 H         1 UNK         0.0600 
    235 H235       -2.2073  -20.3459  -53.1532 H         1 UNK         0.3000 
    236 H236       -0.9631  -18.2408  -54.6326 H         1 UNK         0.0600 
    237 H237        0.2024  -20.7710  -53.3536 H         1 UNK         0.0600 
    238 H238       -0.4081  -20.6107  -55.0014 H         1 UNK         0.0600 
    239 H239        1.0405  -19.7471  -54.5131 H         1 UNK         0.0600 
    240 H240        0.4363  -16.6228  -54.0373 H         1 UNK         0.3000 
    241 H241        1.7337  -16.5060  -51.4891 H         1 UNK         0.0600 
    242 H242        3.3023  -14.6791  -51.3994 H         1 UNK         0.3800 
    243 H243        3.7715  -13.9269  -52.8987 H         1 UNK         0.3800 
    244 H244       -0.3238  -14.2919  -51.9763 H         1 UNK         0.0800 
    245 H245       -0.7779  -15.7163  -51.1024 H         1 UNK         0.0800 
    246 H246        1.0482  -15.5755  -47.7417 H         1 UNK         0.0800 
    247 H247        0.8868  -16.6773  -49.0918 H         1 UNK         0.0800 
@<TRIPOS>BOND
     1    1    2 1    
     2    1  127 1    
     3    1  128 1    
     4    1  129 1    
     5    2    3 2    
     6    2    4 am   BACKBONE|DICT|INTERRES
     7    4    5 1    
     8    4  130 1    
     9    5    6 1    
    10    5   65 1    
    11    5  131 1    
    12    6    7 1    
    13    6  132 1    
    14    6  133 1    
    15    7    8 1    
    16    8    9 1    
    17    8  134 1    
    18    8  135 1    
    19    9   10 ar   
    20    9   14 ar   
    21   10   11 ar   
    22   10  136 1    
    23   11   12 ar   
    24   11  126 1    
    25   12   13 ar   
    26   12  137 1    
    27   13   14 ar   
    28   13   15 1    
    29   14  138 1    
    30   15   16 1    
    31   15  139 1    
    32   15  140 1    
    33   16   17 1    
    34   17   18 1    
    35   17  141 1    
    36   17  142 1    
    37   18   19 1    
    38   18   67 1    
    39   18  143 1    
    40   19   20 am   BACKBONE|DICT|INTERRES
    41   19  144 1    
    42   20   21 2    
    43   20   22 1    
    44   22   23 1    
    45   22   24 1    
    46   22  145 1    
    47   23  146 1    
    48   23  147 1    
    49   23  148 1    
    50   24   25 am   BACKBONE|DICT|INTERRES
    51   24  149 1    
    52   25   26 2    
    53   25   27 1    
    54   27   28 1    
    55   27   29 1    
    56   27  150 1    
    57   28  151 1    
    58   28  152 1    
    59   28  153 1    
    60   29   30 am   BACKBONE|DICT|INTERRES
    61   29  154 1    
    62   30   31 2    
    63   30   32 1    
    64   32   33 1    
    65   32   34 1    
    66   32  155 1    
    67   33  156 1    
    68   33  157 1    
    69   33  158 1    
    70   34   35 am   BACKBONE|DICT|INTERRES
    71   34  159 1    
    72   35   36 2    
    73   35   37 1    
    74   37   38 1    
    75   37   39 1    
    76   37  160 1    
    77   38  161 1    
    78   38  162 1    
    79   38  163 1    
    80   39   40 am   BACKBONE|DICT|INTERRES
    81   39  164 1    
    82   40   41 2    
    83   40   42 1    
    84   42   43 1    
    85   42   44 1    
    86   42  165 1    
    87   43  166 1    
    88   43  167 1    
    89   43  168 1    
    90   44   45 am   BACKBONE|DICT|INTERRES
    91   44  169 1    
    92   45   46 2    
    93   45   47 1    
    94   47   48 1    
    95   47   49 1    
    96   47  170 1    
    97   48  171 1    
    98   48  172 1    
    99   48  173 1    
   100   49   50 am   BACKBONE|DICT|INTERRES
   101   49  174 1    
   102   50   51 2    
   103   50   52 1    
   104   52   53 1    
   105   52   54 1    
   106   52  175 1    
   107   53  176 1    
   108   53  177 1    
   109   53  178 1    
   110   54   55 am   BACKBONE|DICT|INTERRES
   111   54  179 1    
   112   55   56 2    
   113   55   57 1    
   114   57   58 1    
   115   57   59 1    
   116   57  180 1    
   117   58  181 1    
   118   58  182 1    
   119   58  183 1    
   120   59   60 am   BACKBONE|DICT|INTERRES
   121   59  184 1    
   122   60   61 2    
   123   60   62 1    
   124   62   63 1    
   125   62   64 1    
   126   62  185 1    
   127   63  186 1    
   128   63  187 1    
   129   63  188 1    
   130   64   65 am   BACKBONE|DICT|INTERRES
   131   64  189 1    
   132   65   66 2    
   133   67   68 2    
   134   67   69 am   BACKBONE|DICT|INTERRES
   135   69   70 1    
   136   69  190 1    
   137   70   71 1    
   138   70   72 1    
   139   70  191 1    
   140   71  192 1    
   141   71  193 1    
   142   71  194 1    
   143   72   73 2    
   144   72   74 am   BACKBONE|DICT|INTERRES
   145   74   75 1    
   146   74  195 1    
   147   75   76 1    
   148   75   77 1    
   149   75  196 1    
   150   76  197 1    
   151   76  198 1    
   152   76  199 1    
   153   77   78 2    
   154   77   79 am   BACKBONE|DICT|INTERRES
   155   79   80 1    
   156   79  200 1    
   157   80   81 1    
   158   80   82 1    
   159   80  201 1    
   160   81  202 1    
   161   81  203 1    
   162   81  204 1    
   163   82   83 2    
   164   82   84 am   BACKBONE|DICT|INTERRES
   165   84   85 1    
   166   84  205 1    
   167   85   86 1    
   168   85   87 1    
   169   85  206 1    
   170   86  207 1    
   171   86  208 1    
   172   86  209 1    
   173   87   88 2    
   174   87   89 am   BACKBONE|DICT|INTERRES
   175   89   90 1    
   176   89  210 1    
   177   90   91 1    
   178   90   92 1    
   179   90  211 1    
   180   91  212 1    
   181   91  213 1    
   182   91  214 1    
   183   92   93 2    
   184   92   94 am   BACKBONE|DICT|INTERRES
   185   94   95 1    
   186   94  215 1    
   187   95   96 1    
   188   95   97 1    
   189   95  216 1    
   190   96  217 1    
   191   96  218 1    
   192   96  219 1    
   193   97   98 2    
   194   97   99 am   BACKBONE|DICT|INTERRES
   195   99  100 1    
   196   99  220 1    
   197  100  101 1    
   198  100  102 1    
   199  100  221 1    
   200  101  222 1    
   201  101  223 1    
   202  101  224 1    
   203  102  103 2    
   204  102  104 am   BACKBONE|DICT|INTERRES
   205  104  105 1    
   206  104  225 1    
   207  105  106 1    
   208  105  107 1    
   209  105  226 1    
   210  106  227 1    
   211  106  228 1    
   212  106  229 1    
   213  107  108 2    
   214  107  109 am   BACKBONE|DICT|INTERRES
   215  109  110 1    
   216  109  230 1    
   217  110  111 1    
   218  110  112 1    
   219  110  231 1    
   220  111  232 1    
   221  111  233 1    
   222  111  234 1    
   223  112  113 2    
   224  112  114 am   BACKBONE|DICT|INTERRES
   225  114  115 1    
   226  114  235 1    
   227  115  116 1    
   228  115  117 1    
   229  115  236 1    
   230  116  237 1    
   231  116  238 1    
   232  116  239 1    
   233  117  118 2    
   234  117  119 am   BACKBONE|DICT|INTERRES
   235  119  120 1    
   236  119  240 1    
   237  120  121 1    
   238  120  124 1    
   239  120  241 1    
   240  121  122 am   BACKBONE|DICT|INTERRES
   241  121  123 2    
   242  122  242 1    
   243  122  243 1    
   244  124  125 1    
   245  124  244 1    
   246  124  245 1    
   247  125  126 1    
   248  126  246 1    
   249  126  247 1    
@<TRIPOS>SUBSTRUCTURE
     1 UNK         1 GROUP             0       ****    0 ROOT    
