@<TRIPOS>MOLECULE
3R540
247   249    1
SMALL
USER_CHARGES


@<TRIPOS>ATOM
      1 CA          5.2218  -17.7014  -47.7689 C.3       0 UNK        -0.1800 
      2 C           4.4091  -16.5540  -48.3516 C.2       0 UNK         0.5000 
      3 O           4.9865  -15.5993  -48.8659 O.2       0 UNK        -0.5000 
      4 N           3.0793  -16.6423  -48.2316 N.am      1 UNK        -0.5000 
      5 CA          2.0312  -15.7427  -48.7346 C.3       1 UNK         0.1400 
      6 C6          1.7653  -15.8673  -50.2605 C.3       23 UNK        -0.0398 
      7 S7          2.8713  -14.9503  -51.4052 S.3       23 UNK        -0.2404 
      8 C8          4.0618  -16.1802  -52.0588 C.3       23 UNK        -0.0205 
      9 C9          3.4629  -17.5616  -52.2681 C.ar      23 UNK        -0.0193 
     10 C10         2.5022  -17.7743  -53.2597 C.ar      23 UNK        -0.1150 
     11 C11         1.8716  -19.0162  -53.3763 C.ar      23 UNK        -0.0193 
     12 C12         2.2454  -20.0622  -52.5274 C.ar      23 UNK        -0.1150 
     13 C13         3.2056  -19.8595  -51.5322 C.ar      23 UNK        -0.0193 
     14 C14         3.8216  -18.6120  -51.4190 C.ar      23 UNK        -0.1150 
     15 C15         3.5408  -20.9648  -50.5413 C.3       23 UNK        -0.0205 
     16 S16         2.6615  -20.7296  -48.9596 S.3       23 UNK        -0.2404 
     17 C17         0.9277  -20.9961  -49.4631 C.3       23 UNK        -0.0398 
     18 CA          0.1659  -21.9575  -48.5254 C.3       11 UNK         0.1400 
     19 N           0.0161  -21.4186  -47.1701 N.am      11 UNK        -0.5000 
     20 C          -0.5767  -22.0554  -46.1499 C.2       10 UNK         0.5000 
     21 O          -0.9466  -23.2283  -46.2142 O.2       10 UNK        -0.5000 
     22 CA         -0.8624  -21.2532  -44.8633 C.3       10 UNK         0.1400 
     23 CB          0.0413  -21.7372  -43.7198 C.3       10 UNK        -0.1800 
     24 N          -0.7210  -19.8000  -44.9882 N.am      10 UNK        -0.5000 
     25 C          -1.3805  -18.9857  -45.8269 C.2       9 UNK         0.5000 
     26 O          -2.2383  -19.3760  -46.6214 O.2       9 UNK        -0.5000 
     27 CA         -1.0112  -17.4857  -45.7888 C.3       9 UNK         0.1400 
     28 CB         -2.2145  -16.6461  -45.3347 C.3       9 UNK        -0.1800 
     29 N           0.1447  -17.1672  -44.9426 N.am      9 UNK        -0.5000 
     30 C           1.4124  -17.5330  -45.1830 C.2       8 UNK         0.5000 
     31 O           1.7619  -18.1515  -46.1880 O.2       8 UNK        -0.5000 
     32 CA          2.4584  -17.1889  -44.1087 C.3       8 UNK         0.1400 
     33 CB          3.3460  -16.0199  -44.5497 C.3       8 UNK        -0.1800 
     34 N           1.8549  -16.8400  -42.8255 N.am      8 UNK        -0.5000 
     35 C           1.4974  -17.7173  -41.8787 C.2       7 UNK         0.5000 
     36 O           1.5344  -18.9373  -42.0429 O.2       7 UNK        -0.5000 
     37 CA          1.0083  -17.1304  -40.5349 C.3       7 UNK         0.1400 
     38 CB          1.4005  -18.0048  -39.3265 C.3       7 UNK        -0.1800 
     39 N           1.4108  -15.7314  -40.3314 N.am      7 UNK        -0.5000 
     40 C           2.6559  -15.2353  -40.2278 C.2       6 UNK         0.5000 
     41 O           3.6669  -15.9350  -40.1628 O.2       6 UNK        -0.5000 
     42 CA          2.8107  -13.7005  -40.2652 C.3       6 UNK         0.1400 
     43 CB          3.6692  -13.2849  -41.4715 C.3       6 UNK        -0.1800 
     44 N           1.5215  -13.0138  -40.3652 N.am      6 UNK        -0.5000 
     45 C           0.8083  -12.5630  -39.3246 C.2       5 UNK         0.5000 
     46 O           1.1946  -12.6086  -38.1564 O.2       5 UNK        -0.5000 
     47 CA         -0.5909  -11.9972  -39.6417 C.3       5 UNK         0.1400 
     48 CB         -0.5148  -10.4835  -39.8924 C.3       5 UNK        -0.1800 
     49 N          -1.2315  -12.6398  -40.7935 N.am      5 UNK        -0.5000 
     50 C          -1.5710  -13.9354  -40.8674 C.2       4 UNK         0.5000 
     51 O          -1.4008  -14.7360  -39.9494 O.2       4 UNK        -0.5000 
     52 CA         -2.1493  -14.4393  -42.2023 C.3       4 UNK         0.1400 
     53 CB         -3.6791  -14.5458  -42.1254 C.3       4 UNK        -0.1800 
     54 N          -1.7843  -13.5967  -43.3425 N.am      4 UNK        -0.5000 
     55 C          -0.5579  -13.5123  -43.8742 C.2       3 UNK         0.5000 
     56 O           0.4010  -14.1781  -43.4716 O.2       3 UNK        -0.5000 
     57 CA         -0.4288  -12.5116  -45.0410 C.3       3 UNK         0.1400 
     58 CB         -0.5937  -11.0581  -44.5488 C.3       3 UNK        -0.1800 
     59 N           0.7898  -12.6616  -45.8415 N.am      3 UNK        -0.5000 
     60 C           2.0603  -12.4100  -45.5005 C.2       2 UNK         0.5000 
     61 O           2.4032  -11.9721  -44.4016 O.2       2 UNK        -0.5000 
     62 CA          3.1258  -12.6895  -46.5878 C.3       2 UNK         0.1400 
     63 CB          4.5619  -12.6207  -46.0364 C.3       2 UNK        -0.1800 
     64 N           2.9522  -13.9833  -47.2553 N.am      2 UNK        -0.5000 
     65 C           2.0520  -14.2909  -48.1979 C.2       1 UNK         0.5000 
     66 O           1.2030  -13.4888  -48.5901 O.2       1 UNK        -0.5000 
     67 C          -1.1885  -22.3508  -49.1587 C.2       11 UNK         0.5000 
     68 O          -1.2337  -23.3361  -49.8932 O.2       11 UNK        -0.5000 
     69 N          -2.2711  -21.6261  -48.8310 N.am      12 UNK        -0.5000 
     70 CA         -3.6345  -21.9688  -49.2446 C.3       12 UNK         0.1400 
     71 CB         -4.5990  -20.8352  -48.8737 C.3       12 UNK        -0.1800 
     72 C          -4.1296  -23.2940  -48.6435 C.2       12 UNK         0.5000 
     73 O          -4.7646  -24.0785  -49.3482 O.2       12 UNK        -0.5000 
     74 N          -3.8144  -23.5280  -47.3625 N.am      13 UNK        -0.5000 
     75 CA         -4.1430  -24.7604  -46.6475 C.3       13 UNK         0.1400 
     76 CB         -3.9606  -24.5541  -45.1360 C.3       13 UNK        -0.1800 
     77 C          -3.3091  -25.9483  -47.1540 C.2       13 UNK         0.5000 
     78 O          -3.8604  -27.0300  -47.3565 O.2       13 UNK        -0.5000 
     79 N          -2.0140  -25.7104  -47.4094 N.am      14 UNK        -0.5000 
     80 CA         -1.0879  -26.6782  -48.0047 C.3       14 UNK         0.1400 
     81 CB          0.3336  -26.0974  -47.9939 C.3       14 UNK        -0.1800 
     82 C          -1.4957  -27.0985  -49.4313 C.2       14 UNK         0.5000 
     83 O          -1.3706  -28.2724  -49.7807 O.2       14 UNK        -0.5000 
     84 N          -2.0168  -26.1410  -50.2099 N.am      15 UNK        -0.5000 
     85 CA         -2.5774  -26.3471  -51.5459 C.3       15 UNK         0.1400 
     86 CB         -2.5601  -25.0060  -52.2979 C.3       15 UNK        -0.1800 
     87 C          -4.0042  -26.9337  -51.5375 C.2       15 UNK         0.5000 
     88 O          -4.5445  -27.1834  -52.6140 O.2       15 UNK        -0.5000 
     89 N          -4.6121  -27.1082  -50.3536 N.am      16 UNK        -0.5000 
     90 CA         -5.9821  -27.5853  -50.1273 C.3       16 UNK         0.1400 
     91 CB         -6.1040  -29.0786  -50.4946 C.3       16 UNK        -0.1800 
     92 C          -7.0419  -26.7001  -50.8202 C.2       16 UNK         0.5000 
     93 O          -7.9820  -27.2120  -51.4301 O.2       16 UNK        -0.5000 
     94 N          -6.8385  -25.3782  -50.7282 N.am      17 UNK        -0.5000 
     95 CA         -7.6350  -24.2920  -51.3065 C.3       17 UNK         0.1400 
     96 CB         -9.0921  -24.3244  -50.8015 C.3       17 UNK        -0.1800 
     97 C          -7.5444  -24.1678  -52.8424 C.2       17 UNK         0.5000 
     98 O          -8.2669  -23.3515  -53.4152 O.2       17 UNK        -0.5000 
     99 N          -6.6342  -24.9103  -53.4941 N.am      18 UNK        -0.5000 
    100 CA        -6.3505  -24.7730  -54.9293 C.3       18 UNK         0.1400 
    101 CB        -5.5546  -25.9905  -55.4208 C.3       18 UNK        -0.1800 
    102 C         -5.6003  -23.4674  -55.2667 C.2       18 UNK         0.5000 
    103 O         -5.6768  -22.9981  -56.4024 O.2       18 UNK        -0.5000 
    104 N         -4.9125  -22.9003  -54.2682 N.am      19 UNK        -0.5000 
    105 CA        -4.2303  -21.6115  -54.3156 C.3       19 UNK         0.1400 
    106 CB        -2.7068  -21.8374  -54.3014 C.3       19 UNK        -0.1800 
    107 C         -4.7196  -20.7617  -53.1317 C.2       19 UNK         0.5000 
    108 O         -3.9120  -20.2838  -52.3362 O.2       19 UNK        -0.5000 
    109 N         -6.0478  -20.6096  -53.0147 N.am      20 UNK        -0.5000 
    110 CA        -6.7353  -19.9133  -51.9184 C.3       20 UNK         0.1400 
    111 CB        -8.2520  -19.9688  -52.1534 C.3       20 UNK        -0.1800 
    112 C         -6.2820  -18.4564  -51.6906 C.2       20 UNK         0.5000 
    113 O         -6.2740  -17.9921  -50.5502 O.2       20 UNK        -0.5000 
    114 N         -5.8788  -17.7764  -52.7720 N.am      21 UNK        -0.5000 
    115 CA        -5.3344  -16.4173  -52.7546 C.3       21 UNK         0.1400 
    116 CB        -5.2920  -15.8871  -54.1964 C.3       21 UNK        -0.1800 
    117 C         -3.9395  -16.3084  -52.1023 C.2       21 UNK         0.5000 
    118 O         -3.5525  -15.2100  -51.7016 O.2       21 UNK        -0.5000 
    119 N         -3.2106  -17.4281  -52.0128 N.am      22 UNK        -0.5000 
    120 CA        -1.8625  -17.5120  -51.4314 C.3       22 UNK         0.1400 
    121 C         -1.8460  -17.7282  -49.8905 C.2       22 UNK         0.5000 
    122 N         -2.9780  -17.8480  -49.2099 N.am      22 UNK        -0.7600 
    123 O         -0.7758  -17.7817  -49.2952 O.2       22 UNK        -0.5000 
    124 C124       -0.9999  -18.5797  -52.1522 C.3       23 UNK        -0.0398 
    125 S125       -0.7298  -18.1798  -53.9179 S.3       23 UNK        -0.2404 
    126 C126        0.7198  -19.2042  -54.3526 C.3       23 UNK        -0.0205 
    127 H127        4.5811  -18.4919  -47.3759 H         1 UNK         0.0600 
    128 H128        5.8543  -17.3405  -46.9580 H         1 UNK         0.0600 
    129 H129        5.8633  -18.1357  -48.5355 H         1 UNK         0.0600 
    130 H130        2.7038  -17.4358  -47.7174 H         1 UNK         0.3000 
    131 H131        1.1372  -16.1527  -48.2628 H         1 UNK         0.0600 
    132 H132        1.7068  -16.9209  -50.5263 H         1 UNK         0.0800 
    133 H133        0.7604  -15.4931  -50.4614 H         1 UNK         0.0800 
    134 H134        4.4528  -15.8145  -53.0091 H         1 UNK         0.0800 
    135 H135        4.9201  -16.2356  -51.3894 H         1 UNK         0.0800 
    136 H136        2.1984  -16.9554  -53.8969 H         1 UNK         0.1150 
    137 H137        1.7528  -21.0204  -52.6109 H         1 UNK         0.1150 
    138 H138        4.5500  -18.4494  -50.6385 H         1 UNK         0.1150 
    139 H139        3.2996  -21.9450  -50.9557 H         1 UNK         0.0800 
    140 H140        4.6150  -20.9697  -50.3510 H         1 UNK         0.0800 
    141 H141        0.4319  -20.0275  -49.5119 H         1 UNK         0.0800 
    142 H142        0.9161  -21.3948  -50.4775 H         1 UNK         0.0800 
    143 H143        0.7514  -22.8744  -48.4386 H         1 UNK         0.0600 
    144 H144        0.3135  -20.4626  -47.0334 H         1 UNK         0.3000 
    145 H145       -1.8995  -21.4560  -44.5895 H         1 UNK         0.0600 
    146 H146       -0.2200  -21.2540  -42.7779 H         1 UNK         0.0600 
    147 H147       -0.0562  -22.8132  -43.5689 H         1 UNK         0.0600 
    148 H148        1.0921  -21.5266  -43.9232 H         1 UNK         0.0600 
    149 H149       -0.0330  -19.3769  -44.3826 H         1 UNK         0.3000 
    150 H150       -0.7621  -17.1911  -46.8080 H         1 UNK         0.0600 
    151 H151       -3.0946  -16.8559  -45.9441 H         1 UNK         0.0600 
    152 H152       -2.0096  -15.5813  -45.4332 H         1 UNK         0.0600 
    153 H153       -2.4795  -16.8498  -44.2970 H         1 UNK         0.0600 
    154 H154       -0.0367  -16.6372  -44.1026 H         1 UNK         0.3000 
    155 H155        3.0953  -18.0665  -43.9787 H         1 UNK         0.0600 
    156 H156        4.1088  -15.8012  -43.8020 H         1 UNK         0.0600 
    157 H157        2.7589  -15.1151  -44.6992 H         1 UNK         0.0600 
    158 H158        3.8643  -16.2478  -45.4790 H         1 UNK         0.0600 
    159 H159        1.7279  -15.8521  -42.6456 H         1 UNK         0.3000 
    160 H160       -0.0808  -17.1246  -40.5927 H         1 UNK         0.0600 
    161 H161        2.4803  -18.1344  -39.2507 H         1 UNK         0.0600 
    162 H162        0.9592  -18.9991  -39.4042 H         1 UNK         0.0600 
    163 H163        1.0476  -17.5671  -38.3927 H         1 UNK         0.0600 
    164 H164        0.6422  -15.0725  -40.3134 H         1 UNK         0.3000 
    165 H165        3.3291  -13.3963  -39.3538 H         1 UNK         0.0600 
    166 H166        3.2284  -13.6212  -42.4108 H         1 UNK         0.0600 
    167 H167        3.7810  -12.2018  -41.5247 H         1 UNK         0.0600 
    168 H168        4.6710  -13.7114  -41.4090 H         1 UNK         0.0600 
    169 H169        1.1288  -12.9378  -41.2940 H         1 UNK         0.3000 
    170 H170       -1.2225  -12.1701  -38.7678 H         1 UNK         0.0600 
    171 H171       -0.0612   -9.9693  -39.0440 H         1 UNK         0.0600 
    172 H172        0.0827  -10.2510  -40.7750 H         1 UNK         0.0600 
    173 H173       -1.5075  -10.0565  -40.0361 H         1 UNK         0.0600 
    174 H174       -1.4103  -12.0543  -41.5953 H         1 UNK         0.3000 
    175 H175       -1.7460  -15.4396  -42.3723 H         1 UNK         0.0600 
    176 H176       -4.1436  -13.5717  -41.9678 H         1 UNK         0.0600 
    177 H177       -4.0911  -14.9712  -43.0407 H         1 UNK         0.0600 
    178 H178       -3.9850  -15.1928  -41.3020 H         1 UNK         0.0600 
    179 H179       -2.5256  -13.0314  -43.7312 H         1 UNK         0.3000 
    180 H180       -1.2487  -12.7256  -45.7283 H         1 UNK         0.0600 
    181 H181        0.1320  -10.8028  -43.7760 H         1 UNK         0.0600 
    182 H182       -1.5854  -10.8924  -44.1269 H         1 UNK         0.0600 
    183 H183       -0.4731  -10.3489  -45.3678 H         1 UNK         0.0600 
    184 H184        0.6475  -13.0059  -46.7860 H         1 UNK         0.3000 
    185 H185        3.0225  -11.9031  -47.3380 H         1 UNK         0.0600 
    186 H186        5.2959  -12.7894  -46.8248 H         1 UNK         0.0600 
    187 H187        4.7715  -11.6405  -45.6062 H         1 UNK         0.0600 
    188 H188        4.7297  -13.3646  -45.2567 H         1 UNK         0.0600 
    189 H189        3.6154  -14.7013  -47.0061 H         1 UNK         0.3000 
    190 H190       -2.1676  -20.8325  -48.2078 H         1 UNK         0.3000 
    191 H191       -3.6433  -22.0841  -50.3301 H         1 UNK         0.0600 
    192 H192       -4.4658  -19.9867  -49.5408 H         1 UNK         0.0600 
    193 H193       -5.6388  -21.1511  -48.9642 H         1 UNK         0.0600 
    194 H194       -4.4530  -20.4930  -47.8489 H         1 UNK         0.0600 
    195 H195       -3.2430  -22.8560  -46.8720 H         1 UNK         0.3000 
    196 H196       -5.1952  -24.9890  -46.8309 H         1 UNK         0.0600 
    197 H197       -4.2546  -25.4484  -44.5853 H         1 UNK         0.0600 
    198 H198       -4.5779  -23.7322  -44.7731 H         1 UNK         0.0600 
    199 H199       -2.9252  -24.3369  -44.8740 H         1 UNK         0.0600 
    200 H200       -1.6350  -24.7988  -47.1694 H         1 UNK         0.3000 
    201 H201       -1.0962  -27.5724  -47.3781 H         1 UNK         0.0600 
    202 H202        0.6352  -25.8051  -46.9878 H         1 UNK         0.0600 
    203 H203        0.4137  -25.2210  -48.6365 H         1 UNK         0.0600 
    204 H204        1.0563  -26.8317  -48.3516 H         1 UNK         0.0600 
    205 H205       -2.0089  -25.1833  -49.8734 H         1 UNK         0.3000 
    206 H206       -1.9415  -27.0494  -52.0884 H         1 UNK         0.0600 
    207 H207       -1.5492  -24.6026  -52.3587 H         1 UNK         0.0600 
    208 H208       -2.9213  -25.1184  -53.3206 H         1 UNK         0.0600 
    209 H209       -3.1873  -24.2624  -51.8049 H         1 UNK         0.0600 
    210 H210       -4.0981  -26.8650  -49.5161 H         1 UNK         0.3000 
    211 H211       -6.1642  -27.4938  -49.0556 H         1 UNK         0.0600 
    212 H212       -5.9789  -29.2453  -51.5650 H         1 UNK         0.0600 
    213 H213       -7.0821  -29.4713  -50.2145 H         1 UNK         0.0600 
    214 H214       -5.3546  -29.6738  -49.9728 H         1 UNK         0.0600 
    215 H215       -6.0194  -25.0619  -50.2093 H         1 UNK         0.3000 
    216 H216       -7.1858  -23.3759  -50.9198 H         1 UNK         0.0600 
    217 H217       -9.1316  -24.3933  -49.7144 H         1 UNK         0.0600 
    218 H218       -9.6477  -25.1669  -51.2134 H         1 UNK         0.0600 
    219 H219       -9.6245  -23.4161  -51.0861 H         1 UNK         0.0600 
    220 H220       -6.0902  -25.5958  -52.9841 H         1 UNK         0.3000 
    221 H221       -7.3022  -24.7559  -55.4648 H         1 UNK         0.0600 
    222 H222       -4.5530  -26.0181  -54.9917 H         1 UNK         0.0600 
    223 H223       -6.0572  -26.9235  -55.1647 H         1 UNK         0.0600 
    224 H224       -5.4420  -25.9681  -56.5053 H         1 UNK         0.0600 
    225 H225       -4.9342  -23.3539  -53.3670 H         1 UNK         0.3000 
    226 H226       -4.4903  -21.0695  -55.2270 H         1 UNK         0.0600 
    227 H227       -2.3946  -22.4755  -55.1280 H         1 UNK         0.0600 
    228 H228       -2.1740  -20.8916  -54.4018 H         1 UNK         0.0600 
    229 H229       -2.3743  -22.3030  -53.3733 H         1 UNK         0.0600 
    230 H230       -6.6421  -21.0502  -53.7032 H         1 UNK         0.3000 
    231 H231       -6.5205  -20.4653  -51.0038 H         1 UNK         0.0600 
    232 H232       -8.7913  -19.4514  -51.3587 H         1 UNK         0.0600 
    233 H233       -8.6134  -20.9965  -52.1677 H         1 UNK         0.0600 
    234 H234       -8.5303  -19.5006  -53.0983 H         1 UNK         0.0600 
    235 H235       -5.9139  -18.2393  -53.6680 H         1 UNK         0.3000 
    236 H236       -6.0143  -15.7866  -52.1780 H         1 UNK         0.0600 
    237 H237       -6.2844  -15.8881  -54.6476 H         1 UNK         0.0600 
    238 H238       -4.9249  -14.8602  -54.2251 H         1 UNK         0.0600 
    239 H239       -4.6342  -16.4880  -54.8258 H         1 UNK         0.0600 
    240 H240       -3.6072  -18.3112  -52.3160 H         1 UNK         0.3000 
    241 H241       -1.3666  -16.5517  -51.5844 H         1 UNK         0.0600 
    242 H242       -2.9302  -18.0563  -48.2233 H         1 UNK         0.3800 
    243 H243       -3.8706  -17.7936  -49.6764 H         1 UNK         0.3800 
    244 H244       -1.4490  -19.5699  -52.0725 H         1 UNK         0.0800 
    245 H245       -0.0318  -18.6488  -51.6578 H         1 UNK         0.0800 
    246 H246        0.4119  -20.2502  -54.3925 H         1 UNK         0.0800 
    247 H247        1.0529  -18.9425  -55.3577 H         1 UNK         0.0800 
@<TRIPOS>BOND
     1    1    2 1    
     2    1  127 1    
     3    1  128 1    
     4    1  129 1    
     5    2    3 2    
     6    2    4 am   BACKBONE|DICT|INTERRES
     7    4    5 1    
     8    4  130 1    
     9    5    6 1    
    10    5   65 1    
    11    5  131 1    
    12    6    7 1    
    13    6  132 1    
    14    6  133 1    
    15    7    8 1    
    16    8    9 1    
    17    8  134 1    
    18    8  135 1    
    19    9   10 ar   
    20    9   14 ar   
    21   10   11 ar   
    22   10  136 1    
    23   11   12 ar   
    24   11  126 1    
    25   12   13 ar   
    26   12  137 1    
    27   13   14 ar   
    28   13   15 1    
    29   14  138 1    
    30   15   16 1    
    31   15  139 1    
    32   15  140 1    
    33   16   17 1    
    34   17   18 1    
    35   17  141 1    
    36   17  142 1    
    37   18   19 1    
    38   18   67 1    
    39   18  143 1    
    40   19   20 am   BACKBONE|DICT|INTERRES
    41   19  144 1    
    42   20   21 2    
    43   20   22 1    
    44   22   23 1    
    45   22   24 1    
    46   22  145 1    
    47   23  146 1    
    48   23  147 1    
    49   23  148 1    
    50   24   25 am   BACKBONE|DICT|INTERRES
    51   24  149 1    
    52   25   26 2    
    53   25   27 1    
    54   27   28 1    
    55   27   29 1    
    56   27  150 1    
    57   28  151 1    
    58   28  152 1    
    59   28  153 1    
    60   29   30 am   BACKBONE|DICT|INTERRES
    61   29  154 1    
    62   30   31 2    
    63   30   32 1    
    64   32   33 1    
    65   32   34 1    
    66   32  155 1    
    67   33  156 1    
    68   33  157 1    
    69   33  158 1    
    70   34   35 am   BACKBONE|DICT|INTERRES
    71   34  159 1    
    72   35   36 2    
    73   35   37 1    
    74   37   38 1    
    75   37   39 1    
    76   37  160 1    
    77   38  161 1    
    78   38  162 1    
    79   38  163 1    
    80   39   40 am   BACKBONE|DICT|INTERRES
    81   39  164 1    
    82   40   41 2    
    83   40   42 1    
    84   42   43 1    
    85   42   44 1    
    86   42  165 1    
    87   43  166 1    
    88   43  167 1    
    89   43  168 1    
    90   44   45 am   BACKBONE|DICT|INTERRES
    91   44  169 1    
    92   45   46 2    
    93   45   47 1    
    94   47   48 1    
    95   47   49 1    
    96   47  170 1    
    97   48  171 1    
    98   48  172 1    
    99   48  173 1    
   100   49   50 am   BACKBONE|DICT|INTERRES
   101   49  174 1    
   102   50   51 2    
   103   50   52 1    
   104   52   53 1    
   105   52   54 1    
   106   52  175 1    
   107   53  176 1    
   108   53  177 1    
   109   53  178 1    
   110   54   55 am   BACKBONE|DICT|INTERRES
   111   54  179 1    
   112   55   56 2    
   113   55   57 1    
   114   57   58 1    
   115   57   59 1    
   116   57  180 1    
   117   58  181 1    
   118   58  182 1    
   119   58  183 1    
   120   59   60 am   BACKBONE|DICT|INTERRES
   121   59  184 1    
   122   60   61 2    
   123   60   62 1    
   124   62   63 1    
   125   62   64 1    
   126   62  185 1    
   127   63  186 1    
   128   63  187 1    
   129   63  188 1    
   130   64   65 am   BACKBONE|DICT|INTERRES
   131   64  189 1    
   132   65   66 2    
   133   67   68 2    
   134   67   69 am   BACKBONE|DICT|INTERRES
   135   69   70 1    
   136   69  190 1    
   137   70   71 1    
   138   70   72 1    
   139   70  191 1    
   140   71  192 1    
   141   71  193 1    
   142   71  194 1    
   143   72   73 2    
   144   72   74 am   BACKBONE|DICT|INTERRES
   145   74   75 1    
   146   74  195 1    
   147   75   76 1    
   148   75   77 1    
   149   75  196 1    
   150   76  197 1    
   151   76  198 1    
   152   76  199 1    
   153   77   78 2    
   154   77   79 am   BACKBONE|DICT|INTERRES
   155   79   80 1    
   156   79  200 1    
   157   80   81 1    
   158   80   82 1    
   159   80  201 1    
   160   81  202 1    
   161   81  203 1    
   162   81  204 1    
   163   82   83 2    
   164   82   84 am   BACKBONE|DICT|INTERRES
   165   84   85 1    
   166   84  205 1    
   167   85   86 1    
   168   85   87 1    
   169   85  206 1    
   170   86  207 1    
   171   86  208 1    
   172   86  209 1    
   173   87   88 2    
   174   87   89 am   BACKBONE|DICT|INTERRES
   175   89   90 1    
   176   89  210 1    
   177   90   91 1    
   178   90   92 1    
   179   90  211 1    
   180   91  212 1    
   181   91  213 1    
   182   91  214 1    
   183   92   93 2    
   184   92   94 am   BACKBONE|DICT|INTERRES
   185   94   95 1    
   186   94  215 1    
   187   95   96 1    
   188   95   97 1    
   189   95  216 1    
   190   96  217 1    
   191   96  218 1    
   192   96  219 1    
   193   97   98 2    
   194   97   99 am   BACKBONE|DICT|INTERRES
   195   99  100 1    
   196   99  220 1    
   197  100  101 1    
   198  100  102 1    
   199  100  221 1    
   200  101  222 1    
   201  101  223 1    
   202  101  224 1    
   203  102  103 2    
   204  102  104 am   BACKBONE|DICT|INTERRES
   205  104  105 1    
   206  104  225 1    
   207  105  106 1    
   208  105  107 1    
   209  105  226 1    
   210  106  227 1    
   211  106  228 1    
   212  106  229 1    
   213  107  108 2    
   214  107  109 am   BACKBONE|DICT|INTERRES
   215  109  110 1    
   216  109  230 1    
   217  110  111 1    
   218  110  112 1    
   219  110  231 1    
   220  111  232 1    
   221  111  233 1    
   222  111  234 1    
   223  112  113 2    
   224  112  114 am   BACKBONE|DICT|INTERRES
   225  114  115 1    
   226  114  235 1    
   227  115  116 1    
   228  115  117 1    
   229  115  236 1    
   230  116  237 1    
   231  116  238 1    
   232  116  239 1    
   233  117  118 2    
   234  117  119 am   BACKBONE|DICT|INTERRES
   235  119  120 1    
   236  119  240 1    
   237  120  121 1    
   238  120  124 1    
   239  120  241 1    
   240  121  122 am   BACKBONE|DICT|INTERRES
   241  121  123 2    
   242  122  242 1    
   243  122  243 1    
   244  124  125 1    
   245  124  244 1    
   246  124  245 1    
   247  125  126 1    
   248  126  246 1    
   249  126  247 1    
@<TRIPOS>SUBSTRUCTURE
     1 UNK         1 GROUP             0       ****    0 ROOT    
