@<TRIPOS>MOLECULE
3R540
247   249    1
SMALL
USER_CHARGES


@<TRIPOS>ATOM
      1 CA          6.7274  -10.4867  -46.3468 C.3       0 UNK        -0.1800 
      2 C           5.5822  -11.4843  -46.2470 C.2       0 UNK         0.5000 
      3 O           5.4345  -12.1455  -45.2193 O.2       0 UNK        -0.5000 
      4 N           4.7724  -11.5937  -47.3091 N.am      1 UNK        -0.5000 
      5 CA          3.6085  -12.4878  -47.3886 C.3       1 UNK         0.1400 
      6 C6          3.1954  -12.7402  -48.8636 C.3       23 UNK        -0.0398 
      7 S7          2.5853  -14.4353  -49.1421 S.3       23 UNK        -0.2404 
      8 C8          4.1213  -15.2830  -49.6315 C.3       23 UNK        -0.0205 
      9 C9          3.9412  -16.7886  -49.7928 C.ar      23 UNK        -0.0193 
     10 C10         2.9618  -17.2997  -50.6495 C.ar      23 UNK        -0.1150 
     11 C11         2.8306  -18.6778  -50.8431 C.ar      23 UNK        -0.0193 
     12 C12         3.6936  -19.5532  -50.1769 C.ar      23 UNK        -0.1150 
     13 C13         4.6897  -19.0556  -49.3307 C.ar      23 UNK        -0.0193 
     14 C14         4.7980  -17.6750  -49.1322 C.ar      23 UNK        -0.1150 
     15 C15         5.6939  -19.9969  -48.6803 C.3       23 UNK        -0.0205 
     16 S16         5.1731  -20.5297  -47.0220 S.3       23 UNK        -0.2404 
     17 C17         4.0320  -21.8981  -47.4163 C.3       23 UNK        -0.0398 
     18 CA          3.8488  -22.8573  -46.2128 C.3       11 UNK         0.1400 
     19 N           3.1519  -22.1939  -45.1042 N.am      11 UNK        -0.5000 
     20 C           3.1966  -22.5660  -43.8190 C.2       10 UNK         0.5000 
     21 O           3.8618  -23.5156  -43.4044 O.2       10 UNK        -0.5000 
     22 CA          2.3172  -21.7637  -42.8383 C.3       10 UNK         0.1400 
     23 CB          3.0399  -20.4948  -42.3612 C.3       10 UNK        -0.1800 
     24 N           1.0163  -21.4029  -43.4090 N.am      10 UNK        -0.5000 
     25 C           0.0599  -22.2875  -43.7256 C.2       9 UNK         0.5000 
     26 O           0.1575  -23.4989  -43.5286 O.2       9 UNK        -0.5000 
     27 CA         -1.1935  -21.7422  -44.4328 C.3       9 UNK         0.1400 
     28 CB         -2.1909  -21.1549  -43.4240 C.3       9 UNK        -0.1800 
     29 N          -0.8798  -20.7513  -45.4635 N.am      9 UNK        -0.5000 
     30 C          -0.1748  -21.0175  -46.5717 C.2       8 UNK         0.5000 
     31 O           0.2337  -22.1394  -46.8584 O.2       8 UNK        -0.5000 
     32 CA          0.1809  -19.8427  -47.4965 C.3       8 UNK         0.1400 
     33 CB         -0.9662  -19.5432  -48.4700 C.3       8 UNK        -0.1800 
     34 N           0.5452  -18.6356  -46.7593 N.am      8 UNK        -0.5000 
     35 C           1.5741  -18.5568  -45.9037 C.2       7 UNK         0.5000 
     36 O           2.3350  -19.4918  -45.6653 O.2       7 UNK        -0.5000 
     37 CA          1.7307  -17.2440  -45.1231 C.3       7 UNK         0.1400 
     38 CB          2.3442  -16.1460  -45.9992 C.3       7 UNK        -0.1800 
     39 N           0.4542  -16.7878  -44.5764 N.am      7 UNK        -0.5000 
     40 C          -0.2160  -17.4184  -43.6020 C.2       6 UNK         0.5000 
     41 O           0.1978  -18.4250  -43.0255 O.2       6 UNK        -0.5000 
     42 CA         -1.5969  -16.8430  -43.2388 C.3       6 UNK         0.1400 
     43 CB         -1.4523  -15.6459  -42.2868 C.3       6 UNK        -0.1800 
     44 N          -2.3621  -16.4326  -44.4175 N.am      6 UNK        -0.5000 
     45 C          -2.8410  -17.2748  -45.3447 C.2       5 UNK         0.5000 
     46 O          -2.6986  -18.4954  -45.2987 O.2       5 UNK        -0.5000 
     47 CA         -3.5567  -16.6342  -46.5478 C.3       5 UNK         0.1400 
     48 CB         -5.0103  -16.2878  -46.1928 C.3       5 UNK        -0.1800 
     49 N          -2.8782  -15.4294  -47.0297 N.am      5 UNK        -0.5000 
     50 C          -1.6342  -15.3902  -47.5216 C.2       4 UNK         0.5000 
     51 O          -0.9185  -16.3829  -47.6349 O.2       4 UNK        -0.5000 
     52 CA         -1.0668  -14.0145  -47.9032 C.3       4 UNK         0.1400 
     53 CB         -1.5899  -13.5361  -49.2698 C.3       4 UNK        -0.1800 
     54 N          -1.2238  -12.9965  -46.8597 N.am      4 UNK        -0.5000 
     55 C          -2.3374  -12.3893  -46.4240 C.2       3 UNK         0.5000 
     56 O          -3.4638  -12.6401  -46.8549 O.2       3 UNK        -0.5000 
     57 CA         -2.1845  -11.3544  -45.2893 C.3       3 UNK         0.1400 
     58 CB         -2.8008  -11.8963  -43.9891 C.3       3 UNK        -0.1800 
     59 N          -0.7977  -10.9672  -45.0190 N.am      3 UNK        -0.5000 
     60 C          -0.0318  -10.2050  -45.8113 C.2       2 UNK         0.5000 
     61 O          -0.4258   -9.7007  -46.8638 O.2       2 UNK        -0.5000 
     62 CA          1.4306   -9.9828  -45.3705 C.3       2 UNK         0.1400 
     63 CB          1.7040  -10.3417  -43.8920 C.3       2 UNK        -0.1800 
     64 N           2.3832  -10.6813  -46.2396 N.am      2 UNK        -0.5000 
     65 C           2.4227  -11.9942  -46.5235 C.2       1 UNK         0.5000 
     66 O           1.5901  -12.8048  -46.1142 O.2       1 UNK        -0.5000 
     67 C           3.1672  -24.1727  -46.6610 C.2       11 UNK         0.5000 
     68 O           3.7529  -24.8975  -47.4664 O.2       11 UNK        -0.5000 
     69 N           1.9554  -24.4546  -46.1564 N.am      12 UNK        -0.5000 
     70 CA          1.0747  -25.5760  -46.5100 C.3       12 UNK         0.1400 
     71 CB          1.7038  -26.9268  -46.1103 C.3       12 UNK        -0.1800 
     72 C           0.6027  -25.5334  -47.9821 C.2       12 UNK         0.5000 
     73 O           0.4029  -26.5774  -48.6053 O.2       12 UNK        -0.5000 
     74 N           0.4247  -24.3135  -48.5003 N.am      13 UNK        -0.5000 
     75 CA         -0.0498  -23.9973  -49.8456 C.3       13 UNK         0.1400 
     76 CB          0.8697  -22.9167  -50.4398 C.3       13 UNK        -0.1800 
     77 C          -1.5106  -23.5075  -49.8429 C.2       13 UNK         0.5000 
     78 O          -2.0721  -23.3013  -50.9176 O.2       13 UNK        -0.5000 
     79 N          -2.1050  -23.2959  -48.6607 N.am      14 UNK        -0.5000 
     80 CA         -3.5046  -22.9036  -48.5080 C.3       14 UNK         0.1400 
     81 CB         -3.7388  -22.3619  -47.0915 C.3       14 UNK        -0.1800 
     82 C          -4.4498  -24.0814  -48.8040 C.2       14 UNK         0.5000 
     83 O          -4.2408  -25.1790  -48.2813 O.2       14 UNK        -0.5000 
     84 N          -5.4738  -23.8168  -49.6170 N.am      15 UNK        -0.5000 
     85 CA         -6.5572  -24.7277  -49.9659 C.3       15 UNK         0.1400 
     86 CB         -6.6800  -24.7643  -51.5026 C.3       15 UNK        -0.1800 
     87 C          -7.8513  -24.2779  -49.2553 C.2       15 UNK         0.5000 
     88 O          -7.7899  -23.7741  -48.1295 O.2       15 UNK        -0.5000 
     89 N          -9.0050  -24.4809  -49.9077 N.am      16 UNK        -0.5000 
     90 CA        -10.3369  -24.1072  -49.4259 C.3       16 UNK         0.1400 
     91 CB        -11.3854  -24.5507  -50.4570 C.3       16 UNK        -0.1800 
     92 C         -10.4602  -22.5974  -49.1475 C.2       16 UNK         0.5000 
     93 O          -9.9332  -21.7888  -49.9146 O.2       16 UNK        -0.5000 
     94 N         -11.1270  -22.2531  -48.0358 N.am      17 UNK        -0.5000 
     95 CA        -11.3184  -20.8933  -47.5054 C.3       17 UNK         0.1400 
     96 CB        -12.2335  -20.0733  -48.4391 C.3       17 UNK        -0.1800 
     97 C          -9.9973  -20.1556  -47.1795 C.2       17 UNK         0.5000 
     98 O          -9.9798  -18.9252  -47.1249 O.2       17 UNK        -0.5000 
     99 N          -8.9154  -20.9266  -46.9873 N.am      18 UNK        -0.5000 
    100 CA        -7.5247  -20.5037  -46.8020 C.3       18 UNK         0.1400 
    101 CB        -7.3502  -19.7050  -45.4935 C.3       18 UNK        -0.1800 
    102 C         -6.9163  -19.7827  -48.0261 C.2       18 UNK         0.5000 
    103 O         -5.8974  -19.1061  -47.8811 O.2       18 UNK        -0.5000 
    104 N         -7.5234  -19.9421  -49.2127 N.am      19 UNK        -0.5000 
    105 CA        -7.0213  -19.3953  -50.4727 C.3       19 UNK         0.1400 
    106 CB        -8.1025  -19.5305  -51.5546 C.3       19 UNK        -0.1800 
    107 C         -5.7358  -20.1219  -50.8980 C.2       19 UNK         0.5000 
    108 O         -5.6865  -21.3506  -50.8276 O.2       19 UNK        -0.5000 
    109 N         -4.7179  -19.3623  -51.3130 N.am      20 UNK        -0.5000 
    110 CA        -3.4149  -19.8940  -51.6995 C.3       20 UNK         0.1400 
    111 CB        -2.3915  -18.7480  -51.7219 C.3       20 UNK        -0.1800 
    112 C         -3.4751  -20.6022  -53.0640 C.2       20 UNK         0.5000 
    113 O         -3.8126  -19.9679  -54.0654 O.2       20 UNK        -0.5000 
    114 N         -3.0900  -21.8810  -53.0875 N.am      21 UNK        -0.5000 
    115 CA        -2.8356  -22.6730  -54.2874 C.3       21 UNK         0.1400 
    116 CB        -3.4310  -24.0790  -54.0935 C.3       21 UNK        -0.1800 
    117 C         -1.3137  -22.6876  -54.5218 C.2       21 UNK         0.5000 
    118 O         -0.6759  -23.7404  -54.4716 O.2       21 UNK        -0.5000 
    119 N         -0.7554  -21.4854  -54.7078 N.am      22 UNK        -0.5000 
    120 CA         0.6884  -21.2126  -54.7869 C.3       22 UNK         0.1400 
    121 C          1.3768  -21.6599  -56.1127 C.2       22 UNK         0.5000 
    122 N          0.6396  -22.0288  -57.1534 N.am      22 UNK        -0.7600 
    123 O          2.6011  -21.6821  -56.1984 O.2       22 UNK        -0.5000 
    124 C124        0.9737  -19.7203  -54.4577 C.3       23 UNK        -0.0398 
    125 S125        2.4799  -19.4729  -53.4584 S.3       23 UNK        -0.2404 
    126 C126        1.7764  -19.2089  -51.7998 C.3       23 UNK        -0.0205 
    127 H127        7.6820  -10.9978  -46.2216 H         1 UNK         0.0600 
    128 H128        6.6377   -9.7333  -45.5643 H         1 UNK         0.0600 
    129 H129        6.7390   -9.9766  -47.3103 H         1 UNK         0.0600 
    130 H130        4.9516  -11.0246  -48.1247 H         1 UNK         0.3000 
    131 H131        3.9249  -13.4408  -46.9581 H         1 UNK         0.0600 
    132 H132        2.4344  -12.0311  -49.1951 H         1 UNK         0.0800 
    133 H133        4.0425  -12.5848  -49.5334 H         1 UNK         0.0800 
    134 H134        4.4757  -14.8685  -50.5762 H         1 UNK         0.0800 
    135 H135        4.8910  -15.0694  -48.8881 H         1 UNK         0.0800 
    136 H136        2.3087  -16.6195  -51.1782 H         1 UNK         0.1150 
    137 H137        3.6094  -20.6181  -50.3426 H         1 UNK         0.1150 
    138 H138        5.5732  -17.2907  -48.4841 H         1 UNK         0.1150 
    139 H139        5.8734  -20.8645  -49.3169 H         1 UNK         0.0800 
    140 H140        6.6571  -19.4921  -48.5914 H         1 UNK         0.0800 
    141 H141        3.0737  -21.4835  -47.7318 H         1 UNK         0.0800 
    142 H142        4.4351  -22.4340  -48.2774 H         1 UNK         0.0800 
    143 H143        4.8424  -23.1426  -45.8605 H         1 UNK         0.0600 
    144 H144        2.6522  -21.3396  -45.3403 H         1 UNK         0.3000 
    145 H145        2.1351  -22.3947  -41.9659 H         1 UNK         0.0600 
    146 H146        2.4420  -19.9530  -41.6281 H         1 UNK         0.0600 
    147 H147        3.2522  -19.8145  -43.1860 H         1 UNK         0.0600 
    148 H148        3.9908  -20.7427  -41.8882 H         1 UNK         0.0600 
    149 H149        0.8529  -20.4188  -43.5901 H         1 UNK         0.3000 
    150 H150       -1.6754  -22.5890  -44.9233 H         1 UNK         0.0600 
    151 H151       -2.4391  -21.8824  -42.6503 H         1 UNK         0.0600 
    152 H152       -3.1227  -20.8716  -43.9138 H         1 UNK         0.0600 
    153 H153       -1.7910  -20.2705  -42.9284 H         1 UNK         0.0600 
    154 H154       -1.2513  -19.8159  -45.3263 H         1 UNK         0.3000 
    155 H155        1.0514  -20.1371  -48.0857 H         1 UNK         0.0600 
    156 H156       -1.2299  -20.4268  -49.0518 H         1 UNK         0.0600 
    157 H157       -0.6785  -18.7626  -49.1739 H         1 UNK         0.0600 
    158 H158       -1.8640  -19.2113  -47.9477 H         1 UNK         0.0600 
    159 H159       -0.0234  -17.8092  -46.9333 H         1 UNK         0.3000 
    160 H160        2.4128  -17.4320  -44.2911 H         1 UNK         0.0600 
    161 H161        1.6599  -15.8433  -46.7908 H         1 UNK         0.0600 
    162 H162        3.2661  -16.4866  -46.4727 H         1 UNK         0.0600 
    163 H163        2.5871  -15.2624  -45.4095 H         1 UNK         0.0600 
    164 H164        0.0296  -15.9885  -45.0208 H         1 UNK         0.3000 
    165 H165       -2.1595  -17.6248  -42.7241 H         1 UNK         0.0600 
    166 H166       -2.4267  -15.2702  -41.9739 H         1 UNK         0.0600 
    167 H167       -0.9097  -15.9301  -41.3842 H         1 UNK         0.0600 
    168 H168       -0.9077  -14.8227  -42.7509 H         1 UNK         0.0600 
    169 H169       -2.5226  -15.4444  -44.5392 H         1 UNK         0.3000 
    170 H170       -3.5655  -17.3657  -47.3587 H         1 UNK         0.0600 
    171 H171       -5.5392  -17.1642  -45.8167 H         1 UNK         0.0600 
    172 H172       -5.0675  -15.5139  -45.4265 H         1 UNK         0.0600 
    173 H173       -5.5545  -15.9350  -47.0690 H         1 UNK         0.0600 
    174 H174       -3.3813  -14.5489  -46.9640 H         1 UNK         0.3000 
    175 H175        0.0089  -14.1481  -48.0013 H         1 UNK         0.0600 
    176 H176       -1.1301  -12.5901  -49.5560 H         1 UNK         0.0600 
    177 H177       -1.3520  -14.2617  -50.0486 H         1 UNK         0.0600 
    178 H178       -2.6714  -13.3997  -49.2727 H         1 UNK         0.0600 
    179 H179       -0.3490  -12.7425  -46.4088 H         1 UNK         0.3000 
    180 H180       -2.7386  -10.4621  -45.5873 H         1 UNK         0.0600 
    181 H181       -2.7654  -11.1503  -43.1950 H         1 UNK         0.0600 
    182 H182       -2.2796  -12.7870  -43.6366 H         1 UNK         0.0600 
    183 H183       -3.8486  -12.1643  -44.1321 H         1 UNK         0.0600 
    184 H184       -0.3781  -11.3540  -44.1860 H         1 UNK         0.3000 
    185 H185        1.6242   -8.9157  -45.4895 H         1 UNK         0.0600 
    186 H186        2.7208  -10.0673  -43.6105 H         1 UNK         0.0600 
    187 H187        1.0318   -9.8022  -43.2234 H         1 UNK         0.0600 
    188 H188        1.5895  -11.4082  -43.6949 H         1 UNK         0.0600 
    189 H189        3.1024  -10.1002  -46.6456 H         1 UNK         0.3000 
    190 H190        1.5536  -23.7769  -45.5218 H         1 UNK         0.3000 
    191 H191        0.1754  -25.4459  -45.9063 H         1 UNK         0.0600 
    192 H192        0.9863  -27.7401  -46.2244 H         1 UNK         0.0600 
    193 H193        2.0212  -26.9196  -45.0675 H         1 UNK         0.0600 
    194 H194        2.5712  -27.1699  -46.7242 H         1 UNK         0.0600 
    195 H195        0.5628  -23.5133  -47.8833 H         1 UNK         0.3000 
    196 H196       -0.0018  -24.8819  -50.4836 H         1 UNK         0.0600 
    197 H197        0.5698  -22.6602  -51.4570 H         1 UNK         0.0600 
    198 H198        1.9032  -23.2607  -50.4838 H         1 UNK         0.0600 
    199 H199        0.8478  -22.0019  -49.8470 H         1 UNK         0.0600 
    200 H200       -1.5880  -23.4946  -47.8174 H         1 UNK         0.3000 
    201 H201       -3.7128  -22.0940  -49.2085 H         1 UNK         0.0600 
    202 H202       -3.4844  -23.0999  -46.3308 H         1 UNK         0.0600 
    203 H203       -4.7845  -22.0952  -46.9477 H         1 UNK         0.0600 
    204 H204       -3.1548  -21.4606  -46.9108 H         1 UNK         0.0600 
    205 H205       -5.5653  -22.8762  -50.0032 H         1 UNK         0.3000 
    206 H206       -6.3335  -25.7373  -49.6166 H         1 UNK         0.0600 
    207 H207       -5.7242  -25.0194  -51.9608 H         1 UNK         0.0600 
    208 H208       -7.3975  -25.5162  -51.8321 H         1 UNK         0.0600 
    209 H209       -6.9907  -23.7989  -51.9055 H         1 UNK         0.0600 
    210 H210       -8.9638  -24.8713  -50.8372 H         1 UNK         0.3000 
    211 H211      -10.5130  -24.6521  -48.4962 H         1 UNK         0.0600 
    212 H212      -11.2363  -24.0574  -51.4185 H         1 UNK         0.0600 
    213 H213      -12.3938  -24.3096  -50.1178 H         1 UNK         0.0600 
    214 H214      -11.3481  -25.6277  -50.6217 H         1 UNK         0.0600 
    215 H215      -11.5156  -22.9921  -47.4657 H         1 UNK         0.3000 
    216 H216      -11.8384  -21.0085  -46.5534 H         1 UNK         0.0600 
    217 H217      -12.5096  -19.1222  -47.9824 H         1 UNK         0.0600 
    218 H218      -13.1588  -20.6079  -48.6538 H         1 UNK         0.0600 
    219 H219      -11.7470  -19.8494  -49.3890 H         1 UNK         0.0600 
    220 H220       -9.0382  -21.9261  -47.0855 H         1 UNK         0.3000 
    221 H221       -6.9603  -21.4292  -46.6929 H         1 UNK         0.0600 
    222 H222       -6.2939  -19.5561  -45.2659 H         1 UNK         0.0600 
    223 H223       -7.8121  -18.7194  -45.5551 H         1 UNK         0.0600 
    224 H224       -7.7907  -20.2316  -44.6470 H         1 UNK         0.0600 
    225 H225       -8.3345  -20.5470  -49.2771 H         1 UNK         0.3000 
    226 H226       -6.8073  -18.3346  -50.3256 H         1 UNK         0.0600 
    227 H227       -9.0283  -19.0404  -51.2524 H         1 UNK         0.0600 
    228 H228       -7.7783  -19.0713  -52.4891 H         1 UNK         0.0600 
    229 H229       -8.3310  -20.5761  -51.7656 H         1 UNK         0.0600 
    230 H230       -4.8363  -18.3622  -51.3794 H         1 UNK         0.3000 
    231 H231       -3.0944  -20.6083  -50.9388 H         1 UNK         0.0600 
    232 H232       -1.3887  -19.1325  -51.9065 H         1 UNK         0.0600 
    233 H233       -2.3689  -18.2183  -50.7696 H         1 UNK         0.0600 
    234 H234       -2.6148  -18.0181  -52.5011 H         1 UNK         0.0600 
    235 H235       -2.7959  -22.3296  -52.2196 H         1 UNK         0.3000 
    236 H236       -3.3081  -22.2211  -55.1618 H         1 UNK         0.0600 
    237 H237       -2.9988  -24.5867  -53.2303 H         1 UNK         0.0600 
    238 H238       -4.5095  -24.0282  -53.9444 H         1 UNK         0.0600 
    239 H239       -3.2522  -24.7039  -54.9691 H         1 UNK         0.0600 
    240 H240       -1.3651  -20.6820  -54.7596 H         1 UNK         0.3000 
    241 H241        1.1456  -21.8216  -54.0042 H         1 UNK         0.0600 
    242 H242        1.0937  -22.3221  -58.0044 H         1 UNK         0.3800 
    243 H243       -0.3661  -22.0241  -57.0983 H         1 UNK         0.3800 
    244 H244        0.1383  -19.2783  -53.9139 H         1 UNK         0.0800 
    245 H245        1.0580  -19.1236  -55.3678 H         1 UNK         0.0800 
    246 H246        0.9501  -18.4992  -51.8573 H         1 UNK         0.0800 
    247 H247        1.3592  -20.1436  -51.4247 H         1 UNK         0.0800 
@<TRIPOS>BOND
     1    1    2 1    
     2    1  127 1    
     3    1  128 1    
     4    1  129 1    
     5    2    3 2    
     6    2    4 am   BACKBONE|DICT|INTERRES
     7    4    5 1    
     8    4  130 1    
     9    5    6 1    
    10    5   65 1    
    11    5  131 1    
    12    6    7 1    
    13    6  132 1    
    14    6  133 1    
    15    7    8 1    
    16    8    9 1    
    17    8  134 1    
    18    8  135 1    
    19    9   10 ar   
    20    9   14 ar   
    21   10   11 ar   
    22   10  136 1    
    23   11   12 ar   
    24   11  126 1    
    25   12   13 ar   
    26   12  137 1    
    27   13   14 ar   
    28   13   15 1    
    29   14  138 1    
    30   15   16 1    
    31   15  139 1    
    32   15  140 1    
    33   16   17 1    
    34   17   18 1    
    35   17  141 1    
    36   17  142 1    
    37   18   19 1    
    38   18   67 1    
    39   18  143 1    
    40   19   20 am   BACKBONE|DICT|INTERRES
    41   19  144 1    
    42   20   21 2    
    43   20   22 1    
    44   22   23 1    
    45   22   24 1    
    46   22  145 1    
    47   23  146 1    
    48   23  147 1    
    49   23  148 1    
    50   24   25 am   BACKBONE|DICT|INTERRES
    51   24  149 1    
    52   25   26 2    
    53   25   27 1    
    54   27   28 1    
    55   27   29 1    
    56   27  150 1    
    57   28  151 1    
    58   28  152 1    
    59   28  153 1    
    60   29   30 am   BACKBONE|DICT|INTERRES
    61   29  154 1    
    62   30   31 2    
    63   30   32 1    
    64   32   33 1    
    65   32   34 1    
    66   32  155 1    
    67   33  156 1    
    68   33  157 1    
    69   33  158 1    
    70   34   35 am   BACKBONE|DICT|INTERRES
    71   34  159 1    
    72   35   36 2    
    73   35   37 1    
    74   37   38 1    
    75   37   39 1    
    76   37  160 1    
    77   38  161 1    
    78   38  162 1    
    79   38  163 1    
    80   39   40 am   BACKBONE|DICT|INTERRES
    81   39  164 1    
    82   40   41 2    
    83   40   42 1    
    84   42   43 1    
    85   42   44 1    
    86   42  165 1    
    87   43  166 1    
    88   43  167 1    
    89   43  168 1    
    90   44   45 am   BACKBONE|DICT|INTERRES
    91   44  169 1    
    92   45   46 2    
    93   45   47 1    
    94   47   48 1    
    95   47   49 1    
    96   47  170 1    
    97   48  171 1    
    98   48  172 1    
    99   48  173 1    
   100   49   50 am   BACKBONE|DICT|INTERRES
   101   49  174 1    
   102   50   51 2    
   103   50   52 1    
   104   52   53 1    
   105   52   54 1    
   106   52  175 1    
   107   53  176 1    
   108   53  177 1    
   109   53  178 1    
   110   54   55 am   BACKBONE|DICT|INTERRES
   111   54  179 1    
   112   55   56 2    
   113   55   57 1    
   114   57   58 1    
   115   57   59 1    
   116   57  180 1    
   117   58  181 1    
   118   58  182 1    
   119   58  183 1    
   120   59   60 am   BACKBONE|DICT|INTERRES
   121   59  184 1    
   122   60   61 2    
   123   60   62 1    
   124   62   63 1    
   125   62   64 1    
   126   62  185 1    
   127   63  186 1    
   128   63  187 1    
   129   63  188 1    
   130   64   65 am   BACKBONE|DICT|INTERRES
   131   64  189 1    
   132   65   66 2    
   133   67   68 2    
   134   67   69 am   BACKBONE|DICT|INTERRES
   135   69   70 1    
   136   69  190 1    
   137   70   71 1    
   138   70   72 1    
   139   70  191 1    
   140   71  192 1    
   141   71  193 1    
   142   71  194 1    
   143   72   73 2    
   144   72   74 am   BACKBONE|DICT|INTERRES
   145   74   75 1    
   146   74  195 1    
   147   75   76 1    
   148   75   77 1    
   149   75  196 1    
   150   76  197 1    
   151   76  198 1    
   152   76  199 1    
   153   77   78 2    
   154   77   79 am   BACKBONE|DICT|INTERRES
   155   79   80 1    
   156   79  200 1    
   157   80   81 1    
   158   80   82 1    
   159   80  201 1    
   160   81  202 1    
   161   81  203 1    
   162   81  204 1    
   163   82   83 2    
   164   82   84 am   BACKBONE|DICT|INTERRES
   165   84   85 1    
   166   84  205 1    
   167   85   86 1    
   168   85   87 1    
   169   85  206 1    
   170   86  207 1    
   171   86  208 1    
   172   86  209 1    
   173   87   88 2    
   174   87   89 am   BACKBONE|DICT|INTERRES
   175   89   90 1    
   176   89  210 1    
   177   90   91 1    
   178   90   92 1    
   179   90  211 1    
   180   91  212 1    
   181   91  213 1    
   182   91  214 1    
   183   92   93 2    
   184   92   94 am   BACKBONE|DICT|INTERRES
   185   94   95 1    
   186   94  215 1    
   187   95   96 1    
   188   95   97 1    
   189   95  216 1    
   190   96  217 1    
   191   96  218 1    
   192   96  219 1    
   193   97   98 2    
   194   97   99 am   BACKBONE|DICT|INTERRES
   195   99  100 1    
   196   99  220 1    
   197  100  101 1    
   198  100  102 1    
   199  100  221 1    
   200  101  222 1    
   201  101  223 1    
   202  101  224 1    
   203  102  103 2    
   204  102  104 am   BACKBONE|DICT|INTERRES
   205  104  105 1    
   206  104  225 1    
   207  105  106 1    
   208  105  107 1    
   209  105  226 1    
   210  106  227 1    
   211  106  228 1    
   212  106  229 1    
   213  107  108 2    
   214  107  109 am   BACKBONE|DICT|INTERRES
   215  109  110 1    
   216  109  230 1    
   217  110  111 1    
   218  110  112 1    
   219  110  231 1    
   220  111  232 1    
   221  111  233 1    
   222  111  234 1    
   223  112  113 2    
   224  112  114 am   BACKBONE|DICT|INTERRES
   225  114  115 1    
   226  114  235 1    
   227  115  116 1    
   228  115  117 1    
   229  115  236 1    
   230  116  237 1    
   231  116  238 1    
   232  116  239 1    
   233  117  118 2    
   234  117  119 am   BACKBONE|DICT|INTERRES
   235  119  120 1    
   236  119  240 1    
   237  120  121 1    
   238  120  124 1    
   239  120  241 1    
   240  121  122 am   BACKBONE|DICT|INTERRES
   241  121  123 2    
   242  122  242 1    
   243  122  243 1    
   244  124  125 1    
   245  124  244 1    
   246  124  245 1    
   247  125  126 1    
   248  126  246 1    
   249  126  247 1    
@<TRIPOS>SUBSTRUCTURE
     1 UNK         1 GROUP             0       ****    0 ROOT    
