@<TRIPOS>MOLECULE
3R540
247   249    1
SMALL
USER_CHARGES


@<TRIPOS>ATOM
      1 CA         -0.7665  -11.8184  -46.2671 C.3       0 UNK        -0.1800 
      2 C           0.5024  -12.6393  -46.4426 C.2       0 UNK         0.5000 
      3 O           0.7382  -13.5554  -45.6590 O.2       0 UNK        -0.5000 
      4 N           1.3097  -12.3055  -47.4595 N.am      1 UNK        -0.5000 
      5 CA          2.5976  -12.9186  -47.8364 C.3       1 UNK         0.1400 
      6 C6          2.5520  -14.4536  -48.0715 C.3       23 UNK        -0.0398 
      7 S7          1.4077  -14.9355  -49.4057 S.3       23 UNK        -0.2404 
      8 C8          2.4902  -15.9230  -50.4843 C.3       23 UNK        -0.0205 
      9 C9          1.6816  -16.8701  -51.3572 C.ar      23 UNK        -0.0193 
     10 C10         1.1821  -16.4478  -52.5913 C.ar      23 UNK        -0.1150 
     11 C11         0.4394  -17.3222  -53.3899 C.ar      23 UNK        -0.0193 
     12 C12         0.2126  -18.6305  -52.9509 C.ar      23 UNK        -0.1150 
     13 C13         0.7073  -19.0733  -51.7196 C.ar      23 UNK        -0.0193 
     14 C14         1.4385  -18.1774  -50.9271 C.ar      23 UNK        -0.1150 
     15 C15         0.4120  -20.5144  -51.2919 C.3       23 UNK        -0.0205 
     16 S16         1.5159  -21.2021  -50.0061 S.3       23 UNK        -0.2404 
     17 C17         0.7543  -20.5295  -48.4873 C.3       23 UNK        -0.0398 
     18 CA          0.1288  -21.6067  -47.5691 C.3       11 UNK         0.1400 
     19 N          -0.2796  -21.0354  -46.2849 N.am      11 UNK        -0.5000 
     20 C          -0.7128  -21.7324  -45.2255 C.2       10 UNK         0.5000 
     21 O          -0.7625  -22.9602  -45.1873 O.2       10 UNK        -0.5000 
     22 CA         -1.2337  -20.9193  -44.0263 C.3       10 UNK         0.1400 
     23 CB         -0.0722  -20.4364  -43.1463 C.3       10 UNK        -0.1800 
     24 N          -2.0554  -19.7802  -44.4395 N.am      10 UNK        -0.5000 
     25 C          -3.2096  -19.8897  -45.1143 C.2       9 UNK         0.5000 
     26 O          -3.7246  -20.9639  -45.4196 O.2       9 UNK        -0.5000 
     27 CA         -3.8828  -18.5842  -45.5611 C.3       9 UNK         0.1400 
     28 CB         -4.7321  -17.9941  -44.4264 C.3       9 UNK        -0.1800 
     29 N          -2.9089  -17.5946  -46.0139 N.am      9 UNK        -0.5000 
     30 C          -2.2088  -17.6821  -47.1538 C.2       8 UNK         0.5000 
     31 O          -2.3068  -18.6154  -47.9547 O.2       8 UNK        -0.5000 
     32 CA         -1.2110  -16.5366  -47.4103 C.3       8 UNK         0.1400 
     33 CB         -1.9751  -15.2365  -47.7188 C.3       8 UNK        -0.1800 
     34 N          -0.3188  -16.2841  -46.2766 N.am      8 UNK        -0.5000 
     35 C           0.4543  -17.1835  -45.6542 C.2       7 UNK         0.5000 
     36 O           0.6105  -18.3403  -46.0400 O.2       7 UNK        -0.5000 
     37 CA          1.0951  -16.7348  -44.3242 C.3       7 UNK         0.1400 
     38 CB          2.5295  -16.2177  -44.5273 C.3       7 UNK        -0.1800 
     39 N           0.2823  -15.7447  -43.6042 N.am      7 UNK        -0.5000 
     40 C          -0.9532  -15.9912  -43.1386 C.2       6 UNK         0.5000 
     41 O          -1.4853  -17.1017  -43.1981 O.2       6 UNK        -0.5000 
     42 CA         -1.7180  -14.8024  -42.5329 C.3       6 UNK         0.1400 
     43 CB         -3.0078  -15.2147  -41.7979 C.3       6 UNK        -0.1800 
     44 N          -0.8477  -14.0617  -41.6279 N.am      6 UNK        -0.5000 
     45 C          -0.8901  -12.7399  -41.4216 C.2       5 UNK         0.5000 
     46 O          -1.7111  -11.9894  -41.9505 O.2       5 UNK        -0.5000 
     47 CA          0.1704  -12.1503  -40.4673 C.3       5 UNK         0.1400 
     48 CB         -0.4308  -11.9254  -39.0713 C.3       5 UNK        -0.1800 
     49 N           1.3804  -12.9712  -40.3378 N.am      5 UNK        -0.5000 
     50 C           2.2274  -13.2348  -41.3400 C.2       4 UNK         0.5000 
     51 O           2.0764  -12.8112  -42.4908 O.2       4 UNK        -0.5000 
     52 CA          3.4183  -14.1478  -41.0124 C.3       4 UNK         0.1400 
     53 CB          2.9650  -15.5793  -40.6701 C.3       4 UNK        -0.1800 
     54 N           4.2720  -14.1557  -42.1887 N.am      4 UNK        -0.5000 
     55 C           5.5909  -14.3501  -42.2332 C.2       3 UNK         0.5000 
     56 O           6.2662  -14.7231  -41.2731 O.2       3 UNK        -0.5000 
     57 CA          6.2721  -14.0409  -43.5824 C.3       3 UNK         0.1400 
     58 CB          6.4630  -15.3288  -44.3978 C.3       3 UNK        -0.1800 
     59 N           5.5390  -13.0669  -44.4011 N.am      3 UNK        -0.5000 
     60 C           5.3128  -11.7854  -44.0839 C.2       2 UNK         0.5000 
     61 O           5.7250  -11.2678  -43.0449 O.2       2 UNK        -0.5000 
     62 CA          4.4844  -10.9227  -45.0622 C.3       2 UNK         0.1400 
     63 CB          5.4082  -10.0103  -45.8918 C.3       2 UNK        -0.1800 
     64 N           3.5347  -11.6284  -45.9399 N.am      2 UNK        -0.5000 
     65 C           3.7764  -12.5115  -46.9203 C.2       1 UNK         0.5000 
     66 O           4.8936  -12.9784  -47.1441 O.2       1 UNK        -0.5000 
     67 C          -1.0347  -22.3581  -48.2492 C.2       11 UNK         0.5000 
     68 O          -0.8560  -23.5070  -48.6540 O.2       11 UNK        -0.5000 
     69 N          -2.2146  -21.7233  -48.3190 N.am      12 UNK        -0.5000 
     70 CA         -3.4318  -22.3246  -48.8685 C.3       12 UNK         0.1400 
     71 CB         -4.5390  -21.2644  -48.9555 C.3       12 UNK        -0.1800 
     72 C          -3.9031  -23.5609  -48.0766 C.2       12 UNK         0.5000 
     73 O          -4.2948  -24.5568  -48.6863 O.2       12 UNK        -0.5000 
     74 N          -3.8187  -23.4932  -46.7407 N.am      13 UNK        -0.5000 
     75 CA         -4.1185  -24.5962  -45.8282 C.3       13 UNK         0.1400 
     76 CB         -4.1517  -24.0817  -44.3815 C.3       13 UNK        -0.1800 
     77 C          -3.1325  -25.7689  -45.9725 C.2       13 UNK         0.5000 
     78 O          -3.5718  -26.9158  -46.0537 O.2       13 UNK        -0.5000 
     79 N          -1.8276  -25.4680  -46.0487 N.am      14 UNK        -0.5000 
     80 CA         -0.7546  -26.4437  -46.2682 C.3       14 UNK         0.1400 
     81 CB          0.6098  -25.7553  -46.1134 C.3       14 UNK        -0.1800 
     82 C          -0.8535  -27.1489  -47.6338 C.2       14 UNK         0.5000 
     83 O          -0.5610  -28.3413  -47.7276 O.2       14 UNK        -0.5000 
     84 N          -1.3102  -26.4113  -48.6537 N.am      15 UNK        -0.5000 
     85 CA         -1.6260  -26.9196  -49.9881 C.3       15 UNK         0.1400 
     86 CB         -1.6524  -25.7379  -50.9705 C.3       15 UNK        -0.1800 
     87 C          -2.9555  -27.7005  -50.0549 C.2       15 UNK         0.5000 
     88 O          -3.2780  -28.2259  -51.1191 O.2       15 UNK        -0.5000 
     89 N          -3.7234  -27.7421  -48.9541 N.am      16 UNK        -0.5000 
     90 CA         -5.0485  -28.3596  -48.8215 C.3       16 UNK         0.1400 
     91 CB         -4.9445  -29.8964  -48.9086 C.3       16 UNK        -0.1800 
     92 C          -6.0766  -27.7624  -49.8060 C.2       16 UNK         0.5000 
     93 O          -6.8716  -28.4940  -50.3978 O.2       16 UNK        -0.5000 
     94 N          -6.0013  -26.4353  -49.9826 N.am      17 UNK        -0.5000 
     95 CA         -6.7677  -25.5885  -50.9010 C.3       17 UNK         0.1400 
     96 CB         -8.2849  -25.7018  -50.6478 C.3       17 UNK        -0.1800 
     97 C          -6.4126  -25.7625  -52.3932 C.2       17 UNK         0.5000 
     98 O          -6.9747  -25.0429  -53.2208 O.2       17 UNK        -0.5000 
     99 N          -5.4605  -26.6443  -52.7351 N.am      18 UNK        -0.5000 
    100 CA        -4.9532  -26.8444  -54.0963 C.3       18 UNK         0.1400 
    101 CB        -4.4739  -28.2978  -54.2592 C.3       18 UNK        -0.1800 
    102 C         -3.8623  -25.8067  -54.4349 C.2       18 UNK         0.5000 
    103 O         -2.7368  -26.1664  -54.7852 O.2       18 UNK        -0.5000 
    104 N         -4.2238  -24.5287  -54.3003 N.am      19 UNK        -0.5000 
    105 CA        -3.3985  -23.3615  -54.5771 C.3       19 UNK         0.1400 
    106 CB        -2.6911  -22.9030  -53.2824 C.3       19 UNK        -0.1800 
    107 C         -4.3059  -22.3046  -55.2267 C.2       19 UNK         0.5000 
    108 O         -4.8843  -22.5766  -56.2807 O.2       19 UNK        -0.5000 
    109 N         -4.4382  -21.1372  -54.5934 N.am      20 UNK        -0.5000 
    110 CA        -5.2820  -20.0243  -55.0082 C.3       20 UNK         0.1400 
    111 CB        -4.5973  -19.2439  -56.1469 C.3       20 UNK        -0.1800 
    112 C         -5.5524  -19.1373  -53.7834 C.2       20 UNK         0.5000 
    113 O         -4.9812  -19.3714  -52.7129 O.2       20 UNK        -0.5000 
    114 N         -6.4014  -18.1170  -53.9668 N.am      21 UNK        -0.5000 
    115 CA        -6.8198  -17.1525  -52.9407 C.3       21 UNK         0.1400 
    116 CB        -7.8791  -16.2171  -53.5445 C.3       21 UNK        -0.1800 
    117 C         -5.6720  -16.3330  -52.3121 C.2       21 UNK         0.5000 
    118 O         -5.8454  -15.7927  -51.2190 O.2       21 UNK        -0.5000 
    119 N         -4.5240  -16.2717  -52.9976 N.am      22 UNK        -0.5000 
    120 CA        -3.2539  -15.7478  -52.4777 C.3       22 UNK         0.1400 
    121 C         -2.5836  -16.6204  -51.3742 C.2       22 UNK         0.5000 
    122 N         -3.0282  -17.8430  -51.1021 N.am      22 UNK        -0.7600 
    123 O         -1.6565  -16.1546  -50.7260 O.2       22 UNK        -0.5000 
    124 C124       -2.2713  -15.3853  -53.6227 C.3       23 UNK        -0.0398 
    125 S125       -1.9230  -16.7700  -54.7657 S.3       23 UNK        -0.2404 
    126 C126       -0.1034  -16.8607  -54.7349 C.3       23 UNK        -0.0205 
    127 H127       -0.7812  -11.3621  -45.2771 H         1 UNK         0.0600 
    128 H128       -0.8441  -11.0248  -47.0105 H         1 UNK         0.0600 
    129 H129       -1.6436  -12.4582  -46.3589 H         1 UNK         0.0600 
    130 H130        1.0289  -11.5397  -48.0563 H         1 UNK         0.3000 
    131 H131        2.8448  -12.4668  -48.7983 H         1 UNK         0.0600 
    132 H132        3.5458  -14.8282  -48.3205 H         1 UNK         0.0800 
    133 H133        2.2591  -14.9823  -47.1668 H         1 UNK         0.0800 
    134 H134        3.0926  -15.2561  -51.1028 H         1 UNK         0.0800 
    135 H135        3.1904  -16.5014  -49.8797 H         1 UNK         0.0800 
    136 H136        1.3641  -15.4352  -52.9221 H         1 UNK         0.1150 
    137 H137       -0.3630  -19.3036  -53.5709 H         1 UNK         0.1150 
    138 H138        1.8263  -18.4815  -49.9675 H         1 UNK         0.1150 
    139 H139       -0.6251  -20.5826  -50.9600 H         1 UNK         0.0800 
    140 H140        0.4930  -21.1624  -52.1660 H         1 UNK         0.0800 
    141 H141        0.0190  -19.7642  -48.7410 H         1 UNK         0.0800 
    142 H142        1.5440  -20.0087  -47.9444 H         1 UNK         0.0800 
    143 H143        0.9035  -22.3447  -47.3502 H         1 UNK         0.0600 
    144 H144       -0.2153  -20.0234  -46.2059 H         1 UNK         0.3000 
    145 H145       -1.8642  -21.5761  -43.4236 H         1 UNK         0.0600 
    146 H146       -0.4267  -19.8169  -42.3222 H         1 UNK         0.0600 
    147 H147        0.4612  -21.2834  -42.7134 H         1 UNK         0.0600 
    148 H148        0.6513  -19.8575  -43.7185 H         1 UNK         0.0600 
    149 H149       -1.7256  -18.8544  -44.1860 H         1 UNK         0.3000 
    150 H150       -4.5456  -18.8156  -46.3977 H         1 UNK         0.0600 
    151 H151       -5.5201  -18.6884  -44.1320 H         1 UNK         0.0600 
    152 H152       -5.2142  -17.0654  -44.7321 H         1 UNK         0.0600 
    153 H153       -4.1326  -17.7886  -43.5396 H         1 UNK         0.0600 
    154 H154       -2.7197  -16.8276  -45.3865 H         1 UNK         0.3000 
    155 H155       -0.6033  -16.8129  -48.2736 H         1 UNK         0.0600 
    156 H156       -1.3075  -14.4757  -48.1217 H         1 UNK         0.0600 
    157 H157       -2.4558  -14.8265  -46.8302 H         1 UNK         0.0600 
    158 H158       -2.7577  -15.4019  -48.4598 H         1 UNK         0.0600 
    159 H159       -0.2917  -15.3350  -45.9225 H         1 UNK         0.3000 
    160 H160        1.1606  -17.6223  -43.6938 H         1 UNK         0.0600 
    161 H161        3.0666  -16.8160  -45.2645 H         1 UNK         0.0600 
    162 H162        3.0984  -16.2791  -43.6017 H         1 UNK         0.0600 
    163 H163        2.5557  -15.1818  -44.8605 H         1 UNK         0.0600 
    164 H164        0.6286  -14.7927  -43.5998 H         1 UNK         0.3000 
    165 H165       -1.9923  -14.1616  -43.3738 H         1 UNK         0.0600 
    166 H166       -2.7994  -15.9031  -40.9782 H         1 UNK         0.0600 
    167 H167       -3.5223  -14.3474  -41.3841 H         1 UNK         0.0600 
    168 H168       -3.7051  -15.7062  -42.4758 H         1 UNK         0.0600 
    169 H169       -0.1347  -14.6007  -41.1577 H         1 UNK         0.3000 
    170 H170        0.4667  -11.1804  -40.8724 H         1 UNK         0.0600 
    171 H171       -1.3179  -11.2927  -39.1248 H         1 UNK         0.0600 
    172 H172       -0.7265  -12.8658  -38.6046 H         1 UNK         0.0600 
    173 H173        0.2799  -11.4295  -38.4099 H         1 UNK         0.0600 
    174 H174        1.5674  -13.3533  -39.4217 H         1 UNK         0.3000 
    175 H175        3.9653  -13.7170  -40.1713 H         1 UNK         0.0600 
    176 H176        3.8170  -16.2512  -40.5652 H         1 UNK         0.0600 
    177 H177        2.4211  -15.6016  -39.7255 H         1 UNK         0.0600 
    178 H178        2.3060  -15.9917  -41.4337 H         1 UNK         0.0600 
    179 H179        3.8130  -13.7811  -43.0108 H         1 UNK         0.3000 
    180 H180        7.2562  -13.6215  -43.3644 H         1 UNK         0.0600 
    181 H181        5.5074  -15.7762  -44.6726 H         1 UNK         0.0600 
    182 H182        7.0235  -16.0726  -43.8299 H         1 UNK         0.0600 
    183 H183        7.0182  -15.1353  -45.3159 H         1 UNK         0.0600 
    184 H184        5.2365  -13.3703  -45.3215 H         1 UNK         0.3000 
    185 H185        3.8671  -10.2766  -44.4361 H         1 UNK         0.0600 
    186 H186        4.8318   -9.3273  -46.5157 H         1 UNK         0.0600 
    187 H187        6.0403   -9.4014  -45.2440 H         1 UNK         0.0600 
    188 H188        6.0683  -10.5844  -46.5427 H         1 UNK         0.0600 
    189 H189        2.5684  -11.3625  -45.8130 H         1 UNK         0.3000 
    190 H190       -2.2880  -20.7741  -47.9703 H         1 UNK         0.3000 
    191 H191       -3.2045  -22.6556  -49.8838 H         1 UNK         0.0600 
    192 H192       -4.2345  -20.4270  -49.5840 H         1 UNK         0.0600 
    193 H193       -5.4470  -21.6835  -49.3909 H         1 UNK         0.0600 
    194 H194       -4.7969  -20.8686  -47.9730 H         1 UNK         0.0600 
    195 H195       -3.5471  -22.6115  -46.3126 H         1 UNK         0.3000 
    196 H196       -5.1147  -24.9692  -46.0752 H         1 UNK         0.0600 
    197 H197       -4.3950  -24.8859  -43.6861 H         1 UNK         0.0600 
    198 H198       -4.9064  -23.3048  -44.2576 H         1 UNK         0.0600 
    199 H199       -3.1912  -23.6646  -44.0789 H         1 UNK         0.0600 
    200 H200       -1.5375  -24.5003  -45.9274 H         1 UNK         0.3000 
    201 H201       -0.8388  -27.2097  -45.4947 H         1 UNK         0.0600 
    202 H202        0.7271  -25.3341  -45.1149 H         1 UNK         0.0600 
    203 H203        0.7361  -24.9471  -46.8345 H         1 UNK         0.0600 
    204 H204        1.4256  -26.4631  -46.2653 H         1 UNK         0.0600 
    205 H205       -1.4527  -25.4166  -48.5057 H         1 UNK         0.3000 
    206 H206       -0.8320  -27.6021  -50.2974 H         1 UNK         0.0600 
    207 H207       -0.7075  -25.1944  -50.9618 H         1 UNK         0.0600 
    208 H208       -1.8187  -26.0803  -51.9926 H         1 UNK         0.0600 
    209 H209       -2.4468  -25.0317  -50.7276 H         1 UNK         0.0600 
    210 H210       -3.3881  -27.2717  -48.1218 H         1 UNK         0.3000 
    211 H211       -5.4053  -28.1095  -47.8216 H         1 UNK         0.0600 
    212 H212       -4.6434  -30.2278  -49.9028 H         1 UNK         0.0600 
    213 H213       -5.9027  -30.3660  -48.6838 H         1 UNK         0.0600 
    214 H214       -4.2189  -30.2821  -48.1925 H         1 UNK         0.0600 
    215 H215       -5.2934  -25.9292  -49.4523 H         1 UNK         0.3000 
    216 H216       -6.4770  -24.5670  -50.6517 H         1 UNK         0.0600 
    217 H217       -8.5212  -25.5589  -49.5934 H         1 UNK         0.0600 
    218 H218       -8.6793  -26.6707  -50.9541 H         1 UNK         0.0600 
    219 H219       -8.8306  -24.9409  -51.2070 H         1 UNK         0.0600 
    220 H220       -4.9980  -27.1765  -52.0078 H         1 UNK         0.3000 
    221 H221       -5.7698  -26.6961  -54.8062 H         1 UNK         0.0600 
    222 H222       -3.5929  -28.5078  -53.6537 H         1 UNK         0.0600 
    223 H223       -5.2529  -29.0058  -53.9759 H         1 UNK         0.0600 
    224 H224       -4.2092  -28.5035  -55.2970 H         1 UNK         0.0600 
    225 H225       -5.1890  -24.3389  -54.0517 H         1 UNK         0.3000 
    226 H226       -2.6368  -23.6122  -55.3182 H         1 UNK         0.0600 
    227 H227       -2.0108  -23.6734  -52.9218 H         1 UNK         0.0600 
    228 H228       -2.0900  -22.0085  -53.4516 H         1 UNK         0.0600 
    229 H229       -3.4010  -22.6887  -52.4825 H         1 UNK         0.0600 
    230 H230       -3.9931  -20.9948  -53.6948 H         1 UNK         0.3000 
    231 H231       -6.2428  -20.4107  -55.3546 H         1 UNK         0.0600 
    232 H232       -5.1749  -18.3676  -56.4422 H         1 UNK         0.0600 
    233 H233       -4.4834  -19.8637  -57.0363 H         1 UNK         0.0600 
    234 H234       -3.6047  -18.9039  -55.8544 H         1 UNK         0.0600 
    235 H235       -6.8167  -17.9941  -54.8790 H         1 UNK         0.3000 
    236 H236       -7.2856  -17.7189  -52.1317 H         1 UNK         0.0600 
    237 H237       -8.2413  -15.5041  -52.8025 H         1 UNK         0.0600 
    238 H238       -7.4780  -15.6442  -54.3815 H         1 UNK         0.0600 
    239 H239       -8.7435  -16.7767  -53.9022 H         1 UNK         0.0600 
    240 H240       -4.4661  -16.7539  -53.8819 H         1 UNK         0.3000 
    241 H241       -3.4931  -14.8083  -51.9756 H         1 UNK         0.0600 
    242 H242       -3.7738  -18.2694  -51.6420 H         1 UNK         0.3800 
    243 H243       -2.6009  -18.3485  -50.3417 H         1 UNK         0.3800 
    244 H244       -2.6958  -14.5736  -54.2145 H         1 UNK         0.0800 
    245 H245       -1.3397  -14.9885  -53.2162 H         1 UNK         0.0800 
    246 H246        0.2245  -17.5599  -55.5053 H         1 UNK         0.0800 
    247 H247        0.3090  -15.8890  -55.0110 H         1 UNK         0.0800 
@<TRIPOS>BOND
     1    1    2 1    
     2    1  127 1    
     3    1  128 1    
     4    1  129 1    
     5    2    3 2    
     6    2    4 am   BACKBONE|DICT|INTERRES
     7    4    5 1    
     8    4  130 1    
     9    5    6 1    
    10    5   65 1    
    11    5  131 1    
    12    6    7 1    
    13    6  132 1    
    14    6  133 1    
    15    7    8 1    
    16    8    9 1    
    17    8  134 1    
    18    8  135 1    
    19    9   10 ar   
    20    9   14 ar   
    21   10   11 ar   
    22   10  136 1    
    23   11   12 ar   
    24   11  126 1    
    25   12   13 ar   
    26   12  137 1    
    27   13   14 ar   
    28   13   15 1    
    29   14  138 1    
    30   15   16 1    
    31   15  139 1    
    32   15  140 1    
    33   16   17 1    
    34   17   18 1    
    35   17  141 1    
    36   17  142 1    
    37   18   19 1    
    38   18   67 1    
    39   18  143 1    
    40   19   20 am   BACKBONE|DICT|INTERRES
    41   19  144 1    
    42   20   21 2    
    43   20   22 1    
    44   22   23 1    
    45   22   24 1    
    46   22  145 1    
    47   23  146 1    
    48   23  147 1    
    49   23  148 1    
    50   24   25 am   BACKBONE|DICT|INTERRES
    51   24  149 1    
    52   25   26 2    
    53   25   27 1    
    54   27   28 1    
    55   27   29 1    
    56   27  150 1    
    57   28  151 1    
    58   28  152 1    
    59   28  153 1    
    60   29   30 am   BACKBONE|DICT|INTERRES
    61   29  154 1    
    62   30   31 2    
    63   30   32 1    
    64   32   33 1    
    65   32   34 1    
    66   32  155 1    
    67   33  156 1    
    68   33  157 1    
    69   33  158 1    
    70   34   35 am   BACKBONE|DICT|INTERRES
    71   34  159 1    
    72   35   36 2    
    73   35   37 1    
    74   37   38 1    
    75   37   39 1    
    76   37  160 1    
    77   38  161 1    
    78   38  162 1    
    79   38  163 1    
    80   39   40 am   BACKBONE|DICT|INTERRES
    81   39  164 1    
    82   40   41 2    
    83   40   42 1    
    84   42   43 1    
    85   42   44 1    
    86   42  165 1    
    87   43  166 1    
    88   43  167 1    
    89   43  168 1    
    90   44   45 am   BACKBONE|DICT|INTERRES
    91   44  169 1    
    92   45   46 2    
    93   45   47 1    
    94   47   48 1    
    95   47   49 1    
    96   47  170 1    
    97   48  171 1    
    98   48  172 1    
    99   48  173 1    
   100   49   50 am   BACKBONE|DICT|INTERRES
   101   49  174 1    
   102   50   51 2    
   103   50   52 1    
   104   52   53 1    
   105   52   54 1    
   106   52  175 1    
   107   53  176 1    
   108   53  177 1    
   109   53  178 1    
   110   54   55 am   BACKBONE|DICT|INTERRES
   111   54  179 1    
   112   55   56 2    
   113   55   57 1    
   114   57   58 1    
   115   57   59 1    
   116   57  180 1    
   117   58  181 1    
   118   58  182 1    
   119   58  183 1    
   120   59   60 am   BACKBONE|DICT|INTERRES
   121   59  184 1    
   122   60   61 2    
   123   60   62 1    
   124   62   63 1    
   125   62   64 1    
   126   62  185 1    
   127   63  186 1    
   128   63  187 1    
   129   63  188 1    
   130   64   65 am   BACKBONE|DICT|INTERRES
   131   64  189 1    
   132   65   66 2    
   133   67   68 2    
   134   67   69 am   BACKBONE|DICT|INTERRES
   135   69   70 1    
   136   69  190 1    
   137   70   71 1    
   138   70   72 1    
   139   70  191 1    
   140   71  192 1    
   141   71  193 1    
   142   71  194 1    
   143   72   73 2    
   144   72   74 am   BACKBONE|DICT|INTERRES
   145   74   75 1    
   146   74  195 1    
   147   75   76 1    
   148   75   77 1    
   149   75  196 1    
   150   76  197 1    
   151   76  198 1    
   152   76  199 1    
   153   77   78 2    
   154   77   79 am   BACKBONE|DICT|INTERRES
   155   79   80 1    
   156   79  200 1    
   157   80   81 1    
   158   80   82 1    
   159   80  201 1    
   160   81  202 1    
   161   81  203 1    
   162   81  204 1    
   163   82   83 2    
   164   82   84 am   BACKBONE|DICT|INTERRES
   165   84   85 1    
   166   84  205 1    
   167   85   86 1    
   168   85   87 1    
   169   85  206 1    
   170   86  207 1    
   171   86  208 1    
   172   86  209 1    
   173   87   88 2    
   174   87   89 am   BACKBONE|DICT|INTERRES
   175   89   90 1    
   176   89  210 1    
   177   90   91 1    
   178   90   92 1    
   179   90  211 1    
   180   91  212 1    
   181   91  213 1    
   182   91  214 1    
   183   92   93 2    
   184   92   94 am   BACKBONE|DICT|INTERRES
   185   94   95 1    
   186   94  215 1    
   187   95   96 1    
   188   95   97 1    
   189   95  216 1    
   190   96  217 1    
   191   96  218 1    
   192   96  219 1    
   193   97   98 2    
   194   97   99 am   BACKBONE|DICT|INTERRES
   195   99  100 1    
   196   99  220 1    
   197  100  101 1    
   198  100  102 1    
   199  100  221 1    
   200  101  222 1    
   201  101  223 1    
   202  101  224 1    
   203  102  103 2    
   204  102  104 am   BACKBONE|DICT|INTERRES
   205  104  105 1    
   206  104  225 1    
   207  105  106 1    
   208  105  107 1    
   209  105  226 1    
   210  106  227 1    
   211  106  228 1    
   212  106  229 1    
   213  107  108 2    
   214  107  109 am   BACKBONE|DICT|INTERRES
   215  109  110 1    
   216  109  230 1    
   217  110  111 1    
   218  110  112 1    
   219  110  231 1    
   220  111  232 1    
   221  111  233 1    
   222  111  234 1    
   223  112  113 2    
   224  112  114 am   BACKBONE|DICT|INTERRES
   225  114  115 1    
   226  114  235 1    
   227  115  116 1    
   228  115  117 1    
   229  115  236 1    
   230  116  237 1    
   231  116  238 1    
   232  116  239 1    
   233  117  118 2    
   234  117  119 am   BACKBONE|DICT|INTERRES
   235  119  120 1    
   236  119  240 1    
   237  120  121 1    
   238  120  124 1    
   239  120  241 1    
   240  121  122 am   BACKBONE|DICT|INTERRES
   241  121  123 2    
   242  122  242 1    
   243  122  243 1    
   244  124  125 1    
   245  124  244 1    
   246  124  245 1    
   247  125  126 1    
   248  126  246 1    
   249  126  247 1    
@<TRIPOS>SUBSTRUCTURE
     1 UNK         1 GROUP             0       ****    0 ROOT    
