@<TRIPOS>MOLECULE
3R540
247   249    1
SMALL
USER_CHARGES


@<TRIPOS>ATOM
      1 CA         -4.1168  -10.8218  -46.1662 C.3       0 UNK        -0.1800 
      2 C          -2.6622  -11.1620  -45.8789 C.2       0 UNK         0.5000 
      3 O          -1.7878  -10.3158  -46.0617 O.2       0 UNK        -0.5000 
      4 N          -2.3998  -12.3898  -45.4105 N.am      1 UNK        -0.5000 
      5 CA         -1.0616  -12.9328  -45.1269 C.3       1 UNK         0.1400 
      6 C6         -1.1045  -14.4371  -44.7646 C.3       23 UNK        -0.0398 
      7 S7         -1.9383  -15.4508  -46.0322 S.3       23 UNK        -0.2404 
      8 C8         -0.5426  -15.8345  -47.1294 C.3       23 UNK        -0.0205 
      9 C9         -0.9996  -16.6315  -48.3399 C.ar      23 UNK        -0.0193 
     10 C10        -1.5015  -15.9701  -49.4665 C.ar      23 UNK        -0.1150 
     11 C11        -1.9296  -16.6976  -50.5809 C.ar      23 UNK        -0.0193 
     12 C12        -1.8414  -18.0903  -50.5642 C.ar      23 UNK        -0.1150 
     13 C13        -1.3410  -18.7625  -49.4494 C.ar      23 UNK        -0.0193 
     14 C14        -0.9230  -18.0284  -48.3365 C.ar      23 UNK        -0.1150 
     15 C15        -1.2518  -20.2785  -49.4722 C.3       23 UNK        -0.0205 
     16 S16        -2.7913  -21.0474  -48.8761 S.3       23 UNK        -0.2404 
     17 C17        -2.3610  -21.3253  -47.1283 C.3       23 UNK        -0.0398 
     18 CA         -1.8032  -22.7577  -46.9052 C.3       11 UNK         0.1400 
     19 N          -0.5219  -22.7567  -46.1970 N.am      11 UNK        -0.5000 
     20 C           0.2601  -23.8318  -46.0259 C.2       10 UNK         0.5000 
     21 O           0.0134  -24.9397  -46.4988 O.2       10 UNK        -0.5000 
     22 CA          1.4928  -23.6513  -45.1248 C.3       10 UNK         0.1400 
     23 CB          2.6806  -23.0853  -45.9178 C.3       10 UNK        -0.1800 
     24 N           1.1991  -22.7896  -43.9792 N.am      10 UNK        -0.5000 
     25 C           0.3979  -23.1393  -42.9626 C.2       9 UNK         0.5000 
     26 O          -0.1248  -24.2491  -42.8562 O.2       9 UNK        -0.5000 
     27 CA          0.0926  -22.0503  -41.9176 C.3       9 UNK         0.1400 
     28 CB          1.2163  -21.9694  -40.8739 C.3       9 UNK        -0.1800 
     29 N          -0.1077  -20.7301  -42.5192 N.am      9 UNK        -0.5000 
     30 C          -1.1340  -20.4095  -43.3204 C.2       8 UNK         0.5000 
     31 O          -2.0368  -21.1893  -43.6206 O.2       8 UNK        -0.5000 
     32 CA         -1.1225  -18.9954  -43.9312 C.3       8 UNK         0.1400 
     33 CB         -1.7518  -17.9907  -42.9554 C.3       8 UNK        -0.1800 
     34 N           0.2130  -18.5279  -44.3150 N.am      8 UNK        -0.5000 
     35 C           1.0467  -19.1536  -45.1586 C.2       7 UNK         0.5000 
     36 O           0.7667  -20.2196  -45.7059 O.2       7 UNK        -0.5000 
     37 CA          2.4100  -18.4945  -45.4513 C.3       7 UNK         0.1400 
     38 CB          2.6751  -18.4041  -46.9638 C.3       7 UNK        -0.1800 
     39 N           2.5533  -17.1583  -44.8708 N.am      7 UNK        -0.5000 
     40 C           2.8938  -16.8783  -43.6082 C.2       6 UNK         0.5000 
     41 O           3.0878  -17.7469  -42.7567 O.2       6 UNK        -0.5000 
     42 CA          3.0286  -15.3798  -43.2490 C.3       6 UNK         0.1400 
     43 CB          3.6450  -15.1576  -41.8564 C.3       6 UNK        -0.1800 
     44 N           3.8061  -14.6195  -44.2336 N.am      6 UNK        -0.5000 
     45 C           3.3664  -14.2159  -45.4313 C.2       5 UNK         0.5000 
     46 O           2.2546  -14.5033  -45.8825 O.2       5 UNK        -0.5000 
     47 CA          4.3434  -13.4021  -46.2944 C.3       5 UNK         0.1400 
     48 CB          4.9120  -14.2718  -47.4263 C.3       5 UNK        -0.1800 
     49 N           3.6482  -12.2553  -46.8721 N.am      5 UNK        -0.5000 
     50 C           3.3596  -11.1364  -46.1969 C.2       4 UNK         0.5000 
     51 O           3.8092  -10.8874  -45.0753 O.2       4 UNK        -0.5000 
     52 CA          2.4233  -10.1233  -46.8801 C.3       4 UNK         0.1400 
     53 CB          1.5278  -10.7344  -47.9787 C.3       4 UNK        -0.1800 
     54 N           1.5796   -9.5065  -45.8621 N.am      4 UNK        -0.5000 
     55 C           1.2100   -8.2208  -45.8250 C.2       3 UNK         0.5000 
     56 O           1.5624   -7.3923  -46.6665 O.2       3 UNK        -0.5000 
     57 CA          0.2905   -7.7776  -44.6671 C.3       3 UNK         0.1400 
     58 CB         -0.9002   -6.9508  -45.1838 C.3       3 UNK        -0.1800 
     59 N          -0.2337   -8.9225  -43.9214 N.am      3 UNK        -0.5000 
     60 C           0.1470   -9.2950  -42.6919 C.2       2 UNK         0.5000 
     61 O           0.9695   -8.6770  -42.0153 O.2       2 UNK        -0.5000 
     62 CA         -0.4889  -10.5788  -42.1148 C.3       2 UNK         0.1400 
     63 CB         -1.6083  -10.2239  -41.1242 C.3       2 UNK        -0.1800 
     64 N          -1.0313  -11.4794  -43.1356 N.am      2 UNK        -0.5000 
     65 C          -0.2983  -12.1418  -44.0418 C.2       1 UNK         0.5000 
     66 O           0.9300  -12.1054  -44.0688 O.2       1 UNK        -0.5000 
     67 C          -2.8354  -23.6773  -46.2232 C.2       11 UNK         0.5000 
     68 O          -3.4888  -24.4652  -46.9060 O.2       11 UNK        -0.5000 
     69 N          -2.9267  -23.5977  -44.8882 N.am      12 UNK        -0.5000 
     70 CA         -3.7656  -24.4605  -44.0567 C.3       12 UNK         0.1400 
     71 CB         -3.7501  -23.9568  -42.6059 C.3       12 UNK        -0.1800 
     72 C          -3.3505  -25.9408  -44.1328 C.2       12 UNK         0.5000 
     73 O          -4.2175  -26.8012  -44.2860 O.2       12 UNK        -0.5000 
     74 N          -2.0370  -26.2102  -44.0846 N.am      13 UNK        -0.5000 
     75 CA         -1.4564  -27.5468  -44.2529 C.3       13 UNK         0.1400 
     76 CB          0.0482  -27.4962  -43.9488 C.3       13 UNK        -0.1800 
     77 C          -1.7135  -28.1466  -45.6507 C.2       13 UNK         0.5000 
     78 O          -1.9397  -29.3514  -45.7646 O.2       13 UNK        -0.5000 
     79 N          -1.7217  -27.2882  -46.6788 N.am      14 UNK        -0.5000 
     80 CA         -2.0765  -27.6156  -48.0608 C.3       14 UNK         0.1400 
     81 CB         -1.4417  -26.5693  -48.9942 C.3       14 UNK        -0.1800 
     82 C          -3.5984  -27.7044  -48.3062 C.2       14 UNK         0.5000 
     83 O          -4.0004  -27.9425  -49.4447 O.2       14 UNK        -0.5000 
     84 N          -4.4229  -27.4773  -47.2709 N.am      15 UNK        -0.5000 
     85 CA         -5.8910  -27.4519  -47.2972 C.3       15 UNK         0.1400 
     86 CB         -6.4546  -28.8653  -47.5519 C.3       15 UNK        -0.1800 
     87 C          -6.4551  -26.3910  -48.2682 C.2       15 UNK         0.5000 
     88 O          -7.4634  -26.6296  -48.9346 O.2       15 UNK        -0.5000 
     89 N          -5.7626  -25.2453  -48.3405 N.am      16 UNK        -0.5000 
     90 CA         -6.0029  -24.0824  -49.1982 C.3       16 UNK         0.1400 
     91 CB         -7.3885  -23.4610  -48.9300 C.3       16 UNK        -0.1800 
     92 C          -5.7492  -24.3236  -50.7009 C.2       16 UNK         0.5000 
     93 O          -6.0049  -23.4194  -51.4957 O.2       16 UNK        -0.5000 
     94 N          -5.2051  -25.4896  -51.0870 N.am      17 UNK        -0.5000 
     95 CA         -4.8661  -25.8143  -52.4794 C.3       17 UNK         0.1400 
     96 CB         -4.5034  -27.3018  -52.5900 C.3       17 UNK        -0.1800 
     97 C          -3.7269  -24.9409  -53.0408 C.2       17 UNK         0.5000 
     98 O          -3.6777  -24.6945  -54.2462 O.2       17 UNK        -0.5000 
     99 N          -2.8586  -24.4496  -52.1458 N.am      18 UNK        -0.5000 
    100 CA        -1.7606  -23.5305  -52.4421 C.3       18 UNK         0.1400 
    101 CB        -0.8205  -23.4754  -51.2285 C.3       18 UNK        -0.1800 
    102 C         -2.2173  -22.1188  -52.8709 C.2       18 UNK         0.5000 
    103 O         -1.4027  -21.3706  -53.4109 O.2       18 UNK        -0.5000 
    104 N         -3.5048  -21.7807  -52.6845 N.am      19 UNK        -0.5000 
    105 CA        -4.1195  -20.5319  -53.1529 C.3       19 UNK         0.1400 
    106 CB        -5.5492  -20.4226  -52.6074 C.3       19 UNK        -0.1800 
    107 C         -4.1088  -20.3689  -54.6865 C.2       19 UNK         0.5000 
    108 O         -4.1909  -19.2413  -55.1762 O.2       19 UNK        -0.5000 
    109 N         -3.9425  -21.4806  -55.4182 N.am      20 UNK        -0.5000 
    110 CA        -3.7305  -21.5226  -56.8659 C.3       20 UNK         0.1400 
    111 CB        -3.7069  -22.9901  -57.3190 C.3       20 UNK        -0.1800 
    112 C         -2.4533  -20.7921  -57.3354 C.2       20 UNK         0.5000 
    113 O         -2.3854  -20.4017  -58.5013 O.2       20 UNK        -0.5000 
    114 N         -1.4768  -20.5989  -56.4337 N.am      21 UNK        -0.5000 
    115 CA        -0.2809  -19.7908  -56.6795 C.3       21 UNK         0.1400 
    116 CB         0.7661  -20.0856  -55.5948 C.3       21 UNK        -0.1800 
    117 C         -0.5883  -18.2809  -56.7350 C.2       21 UNK         0.5000 
    118 O          0.0816  -17.5572  -57.4733 O.2       21 UNK        -0.5000 
    119 N         -1.5916  -17.8376  -55.9664 N.am      22 UNK        -0.5000 
    120 CA        -2.1018  -16.4583  -55.9735 C.3       22 UNK         0.1400 
    121 C         -3.1824  -16.2546  -57.0683 C.2       22 UNK         0.5000 
    122 N         -4.1075  -17.1916  -57.2414 N.am      22 UNK        -0.7600 
    123 O         -3.1808  -15.2436  -57.7651 O.2       22 UNK        -0.5000 
    124 C124       -2.6588  -16.0277  -54.5933 C.3       23 UNK        -0.0398 
    125 S125       -1.4317  -16.1654  -53.2510 S.3       23 UNK        -0.2404 
    126 C126       -2.5168  -16.0019  -51.7980 C.3       23 UNK        -0.0205 
    127 H127       -4.2382  -10.5566  -47.2164 H         1 UNK         0.0600 
    128 H128       -4.4293   -9.9714  -45.5602 H         1 UNK         0.0600 
    129 H129       -4.7801  -11.6590  -45.9473 H         1 UNK         0.0600 
    130 H130       -3.1611  -13.0437  -45.2938 H         1 UNK         0.3000 
    131 H131       -0.4800  -12.8314  -46.0451 H         1 UNK         0.0600 
    132 H132       -1.6336  -14.5816  -43.8212 H         1 UNK         0.0800 
    133 H133       -0.0978  -14.8277  -44.6095 H         1 UNK         0.0800 
    134 H134        0.2095  -16.3900  -46.5704 H         1 UNK         0.0800 
    135 H135       -0.0650  -14.9089  -47.4547 H         1 UNK         0.0800 
    136 H136       -1.5691  -14.8912  -49.4681 H         1 UNK         0.1150 
    137 H137       -2.1588  -18.6536  -51.4275 H         1 UNK         0.1150 
    138 H138       -0.5399  -18.5440  -47.4695 H         1 UNK         0.1150 
    139 H139       -1.0669  -20.6107  -50.4939 H         1 UNK         0.0800 
    140 H140       -0.3968  -20.6229  -48.8876 H         1 UNK         0.0800 
    141 H141       -3.2449  -21.1222  -46.5202 H         1 UNK         0.0800 
    142 H142       -1.6385  -20.5689  -46.8244 H         1 UNK         0.0800 
    143 H143       -1.5899  -23.2115  -47.8751 H         1 UNK         0.0600 
    144 H144       -0.2020  -21.8683  -45.8224 H         1 UNK         0.3000 
    145 H145        1.7784  -24.6351  -44.7468 H         1 UNK         0.0600 
    146 H146        3.5637  -22.9842  -45.2868 H         1 UNK         0.0600 
    147 H147        2.9452  -23.7480  -46.7426 H         1 UNK         0.0600 
    148 H148        2.4600  -22.1074  -46.3454 H         1 UNK         0.0600 
    149 H149        1.5399  -21.8409  -44.0261 H         1 UNK         0.3000 
    150 H150       -0.8295  -22.3321  -41.4048 H         1 UNK         0.0600 
    151 H151        1.3777  -22.9379  -40.3987 H         1 UNK         0.0600 
    152 H152        0.9705  -21.2585  -40.0848 H         1 UNK         0.0600 
    153 H153        2.1621  -21.6609  -41.3212 H         1 UNK         0.0600 
    154 H154        0.5953  -20.0298  -42.3324 H         1 UNK         0.3000 
    155 H155       -1.7336  -19.0210  -44.8356 H         1 UNK         0.0600 
    156 H156       -1.1556  -17.8799  -42.0489 H         1 UNK         0.0600 
    157 H157       -2.7505  -18.3108  -42.6552 H         1 UNK         0.0600 
    158 H158       -1.8543  -17.0078  -43.4119 H         1 UNK         0.0600 
    159 H159        0.5251  -17.6626  -43.9027 H         1 UNK         0.3000 
    160 H160        3.1712  -19.1470  -45.0188 H         1 UNK         0.0600 
    161 H161        1.9554  -17.7580  -47.4659 H         1 UNK         0.0600 
    162 H162        2.6190  -19.3861  -47.4356 H         1 UNK         0.0600 
    163 H163        3.6712  -18.0088  -47.1637 H         1 UNK         0.0600 
    164 H164        2.3920  -16.3684  -45.4895 H         1 UNK         0.3000 
    165 H165        2.0167  -14.9701  -43.2253 H         1 UNK         0.0600 
    166 H166        3.6821  -14.0969  -41.6071 H         1 UNK         0.0600 
    167 H167        3.0547  -15.6485  -41.0815 H         1 UNK         0.0600 
    168 H168        4.6599  -15.5527  -41.7980 H         1 UNK         0.0600 
    169 H169        4.7464  -14.3762  -43.9571 H         1 UNK         0.3000 
    170 H170        5.1726  -13.0504  -45.6766 H         1 UNK         0.0600 
    171 H171        5.4489  -15.1321  -47.0246 H         1 UNK         0.0600 
    172 H172        4.1247  -14.6526  -48.0785 H         1 UNK         0.0600 
    173 H173        5.6141  -13.7087  -48.0414 H         1 UNK         0.0600 
    174 H174        3.2104  -12.4055  -47.7689 H         1 UNK         0.3000 
    175 H175        3.0671   -9.3676  -47.3341 H         1 UNK         0.0600 
    176 H176        0.9284  -11.5609  -47.5953 H         1 UNK         0.0600 
    177 H177        0.8402   -9.9902  -48.3812 H         1 UNK         0.0600 
    178 H178        2.1183  -11.1050  -48.8170 H         1 UNK         0.0600 
    179 H179        1.3157  -10.1156  -45.0969 H         1 UNK         0.3000 
    180 H180        0.8878   -7.1378  -44.0149 H         1 UNK         0.0600 
    181 H181       -1.5448   -6.6342  -44.3637 H         1 UNK         0.0600 
    182 H182       -1.5085   -7.5201  -45.8877 H         1 UNK         0.0600 
    183 H183       -0.5623   -6.0487  -45.6951 H         1 UNK         0.0600 
    184 H184       -0.8862   -9.5062  -44.4356 H         1 UNK         0.3000 
    185 H185        0.2926  -11.1147  -41.5720 H         1 UNK         0.0600 
    186 H186       -2.0154  -11.1177  -40.6510 H         1 UNK         0.0600 
    187 H187       -1.2358   -9.5778  -40.3280 H         1 UNK         0.0600 
    188 H188       -2.4286   -9.6992  -41.6157 H         1 UNK         0.0600 
    189 H189       -2.0371  -11.5488  -43.1910 H         1 UNK         0.3000 
    190 H190       -2.4002  -22.8749  -44.4043 H         1 UNK         0.3000 
    191 H191       -4.7890  -24.3844  -44.4299 H         1 UNK         0.0600 
    192 H192       -4.3933  -24.5694  -41.9731 H         1 UNK         0.0600 
    193 H193       -4.1125  -22.9306  -42.5420 H         1 UNK         0.0600 
    194 H194       -2.7477  -23.9833  -42.1789 H         1 UNK         0.0600 
    195 H195       -1.3874  -25.4501  -43.9103 H         1 UNK         0.3000 
    196 H196       -1.9272  -28.2058  -43.5206 H         1 UNK         0.0600 
    197 H197        0.5787  -26.8473  -44.6453 H         1 UNK         0.0600 
    198 H198        0.2348  -27.1279  -42.9399 H         1 UNK         0.0600 
    199 H199        0.4943  -28.4888  -44.0210 H         1 UNK         0.0600 
    200 H200       -1.4515  -26.3255  -46.5038 H         1 UNK         0.3000 
    201 H201       -1.6533  -28.5909  -48.3082 H         1 UNK         0.0600 
    202 H202       -1.8430  -25.5723  -48.8120 H         1 UNK         0.0600 
    203 H203       -1.6238  -26.8105  -50.0422 H         1 UNK         0.0600 
    204 H204       -0.3612  -26.5233  -48.8577 H         1 UNK         0.0600 
    205 H205       -4.0078  -27.2572  -46.3736 H         1 UNK         0.3000 
    206 H206       -6.2079  -27.1459  -46.2994 H         1 UNK         0.0600 
    207 H207       -6.0450  -29.5853  -46.8434 H         1 UNK         0.0600 
    208 H208       -7.5390  -28.8803  -47.4379 H         1 UNK         0.0600 
    209 H209       -6.2269  -29.2179  -48.5583 H         1 UNK         0.0600 
    210 H210       -4.9327  -25.1587  -47.7545 H         1 UNK         0.3000 
    211 H211       -5.2578  -23.3451  -48.8954 H         1 UNK         0.0600 
    212 H212       -7.4915  -22.5023  -49.4399 H         1 UNK         0.0600 
    213 H213       -7.5396  -23.2780  -47.8662 H         1 UNK         0.0600 
    214 H214       -8.1974  -24.1022  -49.2806 H         1 UNK         0.0600 
    215 H215       -5.0129  -26.2025  -50.3932 H         1 UNK         0.3000 
    216 H216       -5.7527  -25.6341  -53.0909 H         1 UNK         0.0600 
    217 H217       -3.5854  -27.5334  -52.0489 H         1 UNK         0.0600 
    218 H218       -4.3490  -27.5878  -53.6311 H         1 UNK         0.0600 
    219 H219       -5.2972  -27.9345  -52.1922 H         1 UNK         0.0600 
    220 H220       -2.9891  -24.7015  -51.1778 H         1 UNK         0.3000 
    221 H221       -1.1977  -23.9430  -53.2820 H         1 UNK         0.0600 
    222 H222       -0.3696  -24.4493  -51.0378 H         1 UNK         0.0600 
    223 H223       -1.3474  -23.1724  -50.3252 H         1 UNK         0.0600 
    224 H224       -0.0049  -22.7695  -51.3908 H         1 UNK         0.0600 
    225 H225       -4.1295  -22.4474  -52.2482 H         1 UNK         0.3000 
    226 H226       -3.5416  -19.7039  -52.7453 H         1 UNK         0.0600 
    227 H227       -6.1935  -21.2042  -53.0114 H         1 UNK         0.0600 
    228 H228       -5.5646  -20.5008  -51.5200 H         1 UNK         0.0600 
    229 H229       -5.9948  -19.4625  -52.8709 H         1 UNK         0.0600 
    230 H230       -3.8851  -22.3668  -54.9336 H         1 UNK         0.3000 
    231 H231       -4.5810  -21.0289  -57.3401 H         1 UNK         0.0600 
    232 H232       -2.8852  -23.5390  -56.8567 H         1 UNK         0.0600 
    233 H233       -3.5863  -23.0653  -58.4005 H         1 UNK         0.0600 
    234 H234       -4.6357  -23.4986  -57.0598 H         1 UNK         0.0600 
    235 H235       -1.5940  -20.9533  -55.4912 H         1 UNK         0.3000 
    236 H236        0.1390  -20.0835  -57.6442 H         1 UNK         0.0600 
    237 H237        0.9996  -21.1493  -55.5474 H         1 UNK         0.0600 
    238 H238        1.6972  -19.5557  -55.7992 H         1 UNK         0.0600 
    239 H239        0.4225  -19.7726  -54.6081 H         1 UNK         0.0600 
    240 H240       -2.1270  -18.5041  -55.4281 H         1 UNK         0.3000 
    241 H241       -1.2767  -15.7829  -56.2089 H         1 UNK         0.0600 
    242 H242       -4.8113  -17.0719  -57.9522 H         1 UNK         0.3800 
    243 H243       -4.1477  -17.9940  -56.6193 H         1 UNK         0.3800 
    244 H244       -3.5290  -16.6349  -54.3375 H         1 UNK         0.0800 
    245 H245       -3.0040  -14.9927  -54.6276 H         1 UNK         0.0800 
    246 H246       -3.4930  -16.4423  -52.0053 H         1 UNK         0.0800 
    247 H247       -2.6914  -14.9435  -51.5987 H         1 UNK         0.0800 
@<TRIPOS>BOND
     1    1    2 1    
     2    1  127 1    
     3    1  128 1    
     4    1  129 1    
     5    2    3 2    
     6    2    4 am   BACKBONE|DICT|INTERRES
     7    4    5 1    
     8    4  130 1    
     9    5    6 1    
    10    5   65 1    
    11    5  131 1    
    12    6    7 1    
    13    6  132 1    
    14    6  133 1    
    15    7    8 1    
    16    8    9 1    
    17    8  134 1    
    18    8  135 1    
    19    9   10 ar   
    20    9   14 ar   
    21   10   11 ar   
    22   10  136 1    
    23   11   12 ar   
    24   11  126 1    
    25   12   13 ar   
    26   12  137 1    
    27   13   14 ar   
    28   13   15 1    
    29   14  138 1    
    30   15   16 1    
    31   15  139 1    
    32   15  140 1    
    33   16   17 1    
    34   17   18 1    
    35   17  141 1    
    36   17  142 1    
    37   18   19 1    
    38   18   67 1    
    39   18  143 1    
    40   19   20 am   BACKBONE|DICT|INTERRES
    41   19  144 1    
    42   20   21 2    
    43   20   22 1    
    44   22   23 1    
    45   22   24 1    
    46   22  145 1    
    47   23  146 1    
    48   23  147 1    
    49   23  148 1    
    50   24   25 am   BACKBONE|DICT|INTERRES
    51   24  149 1    
    52   25   26 2    
    53   25   27 1    
    54   27   28 1    
    55   27   29 1    
    56   27  150 1    
    57   28  151 1    
    58   28  152 1    
    59   28  153 1    
    60   29   30 am   BACKBONE|DICT|INTERRES
    61   29  154 1    
    62   30   31 2    
    63   30   32 1    
    64   32   33 1    
    65   32   34 1    
    66   32  155 1    
    67   33  156 1    
    68   33  157 1    
    69   33  158 1    
    70   34   35 am   BACKBONE|DICT|INTERRES
    71   34  159 1    
    72   35   36 2    
    73   35   37 1    
    74   37   38 1    
    75   37   39 1    
    76   37  160 1    
    77   38  161 1    
    78   38  162 1    
    79   38  163 1    
    80   39   40 am   BACKBONE|DICT|INTERRES
    81   39  164 1    
    82   40   41 2    
    83   40   42 1    
    84   42   43 1    
    85   42   44 1    
    86   42  165 1    
    87   43  166 1    
    88   43  167 1    
    89   43  168 1    
    90   44   45 am   BACKBONE|DICT|INTERRES
    91   44  169 1    
    92   45   46 2    
    93   45   47 1    
    94   47   48 1    
    95   47   49 1    
    96   47  170 1    
    97   48  171 1    
    98   48  172 1    
    99   48  173 1    
   100   49   50 am   BACKBONE|DICT|INTERRES
   101   49  174 1    
   102   50   51 2    
   103   50   52 1    
   104   52   53 1    
   105   52   54 1    
   106   52  175 1    
   107   53  176 1    
   108   53  177 1    
   109   53  178 1    
   110   54   55 am   BACKBONE|DICT|INTERRES
   111   54  179 1    
   112   55   56 2    
   113   55   57 1    
   114   57   58 1    
   115   57   59 1    
   116   57  180 1    
   117   58  181 1    
   118   58  182 1    
   119   58  183 1    
   120   59   60 am   BACKBONE|DICT|INTERRES
   121   59  184 1    
   122   60   61 2    
   123   60   62 1    
   124   62   63 1    
   125   62   64 1    
   126   62  185 1    
   127   63  186 1    
   128   63  187 1    
   129   63  188 1    
   130   64   65 am   BACKBONE|DICT|INTERRES
   131   64  189 1    
   132   65   66 2    
   133   67   68 2    
   134   67   69 am   BACKBONE|DICT|INTERRES
   135   69   70 1    
   136   69  190 1    
   137   70   71 1    
   138   70   72 1    
   139   70  191 1    
   140   71  192 1    
   141   71  193 1    
   142   71  194 1    
   143   72   73 2    
   144   72   74 am   BACKBONE|DICT|INTERRES
   145   74   75 1    
   146   74  195 1    
   147   75   76 1    
   148   75   77 1    
   149   75  196 1    
   150   76  197 1    
   151   76  198 1    
   152   76  199 1    
   153   77   78 2    
   154   77   79 am   BACKBONE|DICT|INTERRES
   155   79   80 1    
   156   79  200 1    
   157   80   81 1    
   158   80   82 1    
   159   80  201 1    
   160   81  202 1    
   161   81  203 1    
   162   81  204 1    
   163   82   83 2    
   164   82   84 am   BACKBONE|DICT|INTERRES
   165   84   85 1    
   166   84  205 1    
   167   85   86 1    
   168   85   87 1    
   169   85  206 1    
   170   86  207 1    
   171   86  208 1    
   172   86  209 1    
   173   87   88 2    
   174   87   89 am   BACKBONE|DICT|INTERRES
   175   89   90 1    
   176   89  210 1    
   177   90   91 1    
   178   90   92 1    
   179   90  211 1    
   180   91  212 1    
   181   91  213 1    
   182   91  214 1    
   183   92   93 2    
   184   92   94 am   BACKBONE|DICT|INTERRES
   185   94   95 1    
   186   94  215 1    
   187   95   96 1    
   188   95   97 1    
   189   95  216 1    
   190   96  217 1    
   191   96  218 1    
   192   96  219 1    
   193   97   98 2    
   194   97   99 am   BACKBONE|DICT|INTERRES
   195   99  100 1    
   196   99  220 1    
   197  100  101 1    
   198  100  102 1    
   199  100  221 1    
   200  101  222 1    
   201  101  223 1    
   202  101  224 1    
   203  102  103 2    
   204  102  104 am   BACKBONE|DICT|INTERRES
   205  104  105 1    
   206  104  225 1    
   207  105  106 1    
   208  105  107 1    
   209  105  226 1    
   210  106  227 1    
   211  106  228 1    
   212  106  229 1    
   213  107  108 2    
   214  107  109 am   BACKBONE|DICT|INTERRES
   215  109  110 1    
   216  109  230 1    
   217  110  111 1    
   218  110  112 1    
   219  110  231 1    
   220  111  232 1    
   221  111  233 1    
   222  111  234 1    
   223  112  113 2    
   224  112  114 am   BACKBONE|DICT|INTERRES
   225  114  115 1    
   226  114  235 1    
   227  115  116 1    
   228  115  117 1    
   229  115  236 1    
   230  116  237 1    
   231  116  238 1    
   232  116  239 1    
   233  117  118 2    
   234  117  119 am   BACKBONE|DICT|INTERRES
   235  119  120 1    
   236  119  240 1    
   237  120  121 1    
   238  120  124 1    
   239  120  241 1    
   240  121  122 am   BACKBONE|DICT|INTERRES
   241  121  123 2    
   242  122  242 1    
   243  122  243 1    
   244  124  125 1    
   245  124  244 1    
   246  124  245 1    
   247  125  126 1    
   248  126  246 1    
   249  126  247 1    
@<TRIPOS>SUBSTRUCTURE
     1 UNK         1 GROUP             0       ****    0 ROOT    
