@<TRIPOS>MOLECULE
3R540
247   249    1
SMALL
USER_CHARGES


@<TRIPOS>ATOM
      1 CA         -5.6677  -14.8289  -48.2942 C.3       0 UNK        -0.1800 
      2 C          -4.2198  -14.7193  -47.8394 C.2       0 UNK         0.5000 
      3 O          -3.8448  -13.7233  -47.2207 O.2       0 UNK        -0.5000 
      4 N          -3.4064  -15.7448  -48.1258 N.am      1 UNK        -0.5000 
      5 CA         -1.9730  -15.8082  -47.8045 C.3       1 UNK         0.1400 
      6 C6         -1.2863  -17.0123  -48.4951 C.3       23 UNK        -0.0398 
      7 S7         -1.1034  -16.7144  -50.2861 S.3       23 UNK        -0.2404 
      8 C8          0.7067  -16.7816  -50.4986 C.3       23 UNK        -0.0205 
      9 C9          1.1456  -18.1057  -51.1066 C.ar      23 UNK        -0.0193 
     10 C10         1.5378  -18.1583  -52.4476 C.ar      23 UNK        -0.1150 
     11 C11         1.9060  -19.3720  -53.0338 C.ar      23 UNK        -0.0193 
     12 C12         1.9008  -20.5359  -52.2620 C.ar      23 UNK        -0.1150 
     13 C13         1.4886  -20.5035  -50.9276 C.ar      23 UNK        -0.0193 
     14 C14         1.1241  -19.2822  -50.3493 C.ar      23 UNK        -0.1150 
     15 C15         1.3349  -21.8084  -50.1633 C.3       23 UNK        -0.0205 
     16 S16         2.6877  -22.1457  -48.9948 S.3       23 UNK        -0.2404 
     17 C17         2.0148  -21.4872  -47.4335 C.3       23 UNK        -0.0398 
     18 CA          1.1188  -22.5020  -46.6681 C.3       11 UNK         0.1400 
     19 N           1.2222  -22.3283  -45.2189 N.am      11 UNK        -0.5000 
     20 C           0.8575  -23.2387  -44.3054 C.2       10 UNK         0.5000 
     21 O           0.5007  -24.3835  -44.5834 O.2       10 UNK        -0.5000 
     22 CA          0.8555  -22.7767  -42.8333 C.3       10 UNK         0.1400 
     23 CB          2.2237  -23.0302  -42.1834 C.3       10 UNK        -0.1800 
     24 N           0.5061  -21.3626  -42.6793 N.am      10 UNK        -0.5000 
     25 C          -0.6715  -20.8275  -43.0307 C.2       9 UNK         0.5000 
     26 O          -1.6246  -21.4864  -43.4450 O.2       9 UNK        -0.5000 
     27 CA         -0.7803  -19.2937  -42.9774 C.3       9 UNK         0.1400 
     28 CB         -1.2226  -18.8290  -41.5834 C.3       9 UNK        -0.1800 
     29 N           0.4600  -18.6162  -43.3698 N.am      9 UNK        -0.5000 
     30 C           1.0225  -18.7039  -44.5850 C.2       8 UNK         0.5000 
     31 O           0.5224  -19.3321  -45.5152 O.2       8 UNK        -0.5000 
     32 CA          2.3899  -18.0371  -44.7962 C.3       8 UNK         0.1400 
     33 CB          2.2269  -16.5998  -45.2892 C.3       8 UNK        -0.1800 
     34 N           3.1870  -18.0448  -43.5744 N.am      8 UNK        -0.5000 
     35 C           3.9376  -19.0816  -43.1810 C.2       7 UNK         0.5000 
     36 O           4.0752  -20.1148  -43.8367 O.2       7 UNK        -0.5000 
     37 CA          4.6216  -18.9540  -41.8074 C.3       7 UNK         0.1400 
     38 CB          5.9634  -18.2176  -41.9365 C.3       7 UNK        -0.1800 
     39 N           3.7873  -18.2679  -40.8191 N.am      7 UNK        -0.5000 
     40 C           2.6196  -18.7364  -40.3586 C.2       6 UNK         0.5000 
     41 O           2.1284  -19.8107  -40.7066 O.2       6 UNK        -0.5000 
     42 CA          1.8545  -17.8387  -39.3691 C.3       6 UNK         0.1400 
     43 CB          2.3009  -18.1333  -37.9293 C.3       6 UNK        -0.1800 
     44 N           1.9709  -16.3988  -39.6224 N.am      6 UNK        -0.5000 
     45 C           1.6483  -15.7614  -40.7577 C.2       5 UNK         0.5000 
     46 O           1.3070  -16.3413  -41.7910 O.2       5 UNK        -0.5000 
     47 CA          1.6851  -14.2203  -40.6849 C.3       5 UNK         0.1400 
     48 CB          3.0309  -13.6890  -40.1428 C.3       5 UNK        -0.1800 
     49 N           1.3199  -13.5515  -41.9390 N.am      5 UNK        -0.5000 
     50 C           2.0167  -13.4840  -43.0826 C.2       4 UNK         0.5000 
     51 O           3.1125  -14.0221  -43.2501 O.2       4 UNK        -0.5000 
     52 CA          1.3883  -12.6415  -44.2171 C.3       4 UNK         0.1400 
     53 CB          1.9764  -12.9502  -45.6058 C.3       4 UNK        -0.1800 
     54 N          -0.0689  -12.7818  -44.2769 N.am      4 UNK        -0.5000 
     55 C          -0.9512  -11.9866  -43.6528 C.2       3 UNK         0.5000 
     56 O          -0.6200  -11.0351  -42.9453 O.2       3 UNK        -0.5000 
     57 CA         -2.4517  -12.3127  -43.8138 C.3       3 UNK         0.1400 
     58 CB         -3.0878  -11.3963  -44.8693 C.3       3 UNK        -0.1800 
     59 N          -2.7094  -13.7070  -44.1759 N.am      3 UNK        -0.5000 
     60 C          -2.4565  -14.7596  -43.3837 C.2       2 UNK         0.5000 
     61 O          -2.0895  -14.6512  -42.2132 O.2       2 UNK        -0.5000 
     62 CA         -2.5979  -16.1680  -43.9991 C.3       2 UNK         0.1400 
     63 CB         -3.8264  -16.8953  -43.4319 C.3       2 UNK        -0.1800 
     64 N          -2.6616  -16.1993  -45.4634 N.am      2 UNK        -0.5000 
     65 C          -1.6866  -15.7891  -46.2878 C.2       1 UNK         0.5000 
     66 O          -0.6134  -15.3428  -45.8871 O.2       1 UNK        -0.5000 
     67 C          -0.3595  -22.4088  -47.1039 C.2       11 UNK         0.5000 
     68 O          -0.8581  -23.2992  -47.7940 O.2       11 UNK        -0.5000 
     69 N          -1.0366  -21.3340  -46.6729 N.am      12 UNK        -0.5000 
     70 CA         -2.4258  -20.9898  -46.9882 C.3       12 UNK         0.1400 
     71 CB         -2.7975  -19.6891  -46.2590 C.3       12 UNK        -0.1800 
     72 C          -3.4334  -22.0969  -46.6338 C.2       12 UNK         0.5000 
     73 O          -4.3862  -22.3096  -47.3822 O.2       12 UNK        -0.5000 
     74 N          -3.1861  -22.8038  -45.5240 N.am      13 UNK        -0.5000 
     75 CA         -3.9651  -23.9542  -45.0659 C.3       13 UNK         0.1400 
     76 CB         -3.4213  -24.4123  -43.7042 C.3       13 UNK        -0.1800 
     77 C          -3.9826  -25.1314  -46.0625 C.2       13 UNK         0.5000 
     78 O          -4.9841  -25.8446  -46.1318 O.2       13 UNK        -0.5000 
     79 N          -2.8916  -25.3058  -46.8204 N.am      14 UNK        -0.5000 
     80 CA         -2.7673  -26.3197  -47.8659 C.3       14 UNK         0.1400 
     81 CB         -1.3087  -26.7997  -47.9317 C.3       14 UNK        -0.1800 
     82 C          -3.2203  -25.7815  -49.2341 C.2       14 UNK         0.5000 
     83 O          -3.8577  -26.5124  -49.9926 O.2       14 UNK        -0.5000 
     84 N          -2.8804  -24.5191  -49.5291 N.am      15 UNK        -0.5000 
     85 CA         -3.0998  -23.8760  -50.8282 C.3       15 UNK         0.1400 
     86 CB         -2.0142  -22.8121  -51.0332 C.3       15 UNK        -0.1800 
     87 C          -4.5126  -23.2887  -51.0321 C.2       15 UNK         0.5000 
     88 O          -4.7786  -22.7607  -52.1128 O.2       15 UNK        -0.5000 
     89 N          -5.3804  -23.4063  -50.0173 N.am      16 UNK        -0.5000 
     90 CA         -6.7873  -22.9921  -49.9742 C.3       16 UNK         0.1400 
     91 CB         -7.6078  -23.6166  -51.1242 C.3       16 UNK        -0.1800 
     92 C          -6.9641  -21.4657  -49.8464 C.2       16 UNK         0.5000 
     93 O          -7.6930  -20.8515  -50.6274 O.2       16 UNK        -0.5000 
     94 N          -6.3187  -20.8977  -48.8187 N.am      17 UNK        -0.5000 
     95 CA         -6.3563  -19.5028  -48.3709 C.3       17 UNK         0.1400 
     96 CB         -7.7812  -19.0553  -47.9817 C.3       17 UNK        -0.1800 
     97 C          -5.6770  -18.5498  -49.3662 C.2       17 UNK         0.5000 
     98 O          -4.5170  -18.1880  -49.1642 O.2       17 UNK        -0.5000 
     99 N          -6.4016  -18.1618  -50.4201 N.am      18 UNK        -0.5000 
    100 CA        -5.8699  -17.4375  -51.5688 C.3       18 UNK         0.1400 
    101 CB        -7.0024  -16.6323  -52.2271 C.3       18 UNK        -0.1800 
    102 C         -5.2662  -18.4839  -52.5154 C.2       18 UNK         0.5000 
    103 O         -6.0173  -19.1618  -53.2186 O.2       18 UNK        -0.5000 
    104 N         -3.9398  -18.6495  -52.4246 N.am      19 UNK        -0.5000 
    105 CA        -3.1661  -19.7652  -52.9684 C.3       19 UNK         0.1400 
    106 CB        -1.6724  -19.4930  -52.7658 C.3       19 UNK        -0.1800 
    107 C         -3.4659  -20.1195  -54.4357 C.2       19 UNK         0.5000 
    108 O         -3.2632  -19.2883  -55.3253 O.2       19 UNK        -0.5000 
    109 N         -3.9525  -21.3496  -54.6427 N.am      20 UNK        -0.5000 
    110 CA        -4.3297  -21.9091  -55.9380 C.3       20 UNK         0.1400 
    111 CB        -4.8568  -23.3365  -55.7262 C.3       20 UNK        -0.1800 
    112 C         -3.1718  -21.9041  -56.9538 C.2       20 UNK         0.5000 
    113 O         -2.0474  -22.2730  -56.6062 O.2       20 UNK        -0.5000 
    114 N         -3.4863  -21.4926  -58.1886 N.am      21 UNK        -0.5000 
    115 CA        -2.6240  -21.3687  -59.3699 C.3       21 UNK         0.1400 
    116 CB        -2.0100  -22.7242  -59.7716 C.3       21 UNK        -0.1800 
    117 C         -1.5457  -20.2711  -59.2711 C.2       21 UNK         0.5000 
    118 O         -1.4507  -19.4465  -60.1816 O.2       21 UNK        -0.5000 
    119 N         -0.7473  -20.2802  -58.1982 N.am      22 UNK        -0.5000 
    120 CA         0.3713  -19.3484  -57.9841 C.3       22 UNK         0.1400 
    121 C         -0.0286  -17.9443  -57.4430 C.2       22 UNK         0.5000 
    122 N         -1.2232  -17.7472  -56.8985 N.am      22 UNK        -0.7600 
    123 O          0.7594  -17.0070  -57.5377 O.2       22 UNK        -0.5000 
    124 C124        1.5115  -20.0008  -57.1621 C.3       23 UNK        -0.0398 
    125 S125        1.0449  -20.4118  -55.4455 S.3       23 UNK        -0.2404 
    126 C126        2.2662  -19.4355  -54.5096 C.3       23 UNK        -0.0205 
    127 H127       -6.0158  -13.8696  -48.6777 H         1 UNK         0.0600 
    128 H128       -5.7855  -15.5671  -49.0861 H         1 UNK         0.0600 
    129 H129       -6.3045  -15.1150  -47.4571 H         1 UNK         0.0600 
    130 H130       -3.7775  -16.5587  -48.6117 H         1 UNK         0.3000 
    131 H131       -1.5191  -14.8938  -48.1933 H         1 UNK         0.0600 
    132 H132       -0.3095  -17.2186  -48.0544 H         1 UNK         0.0800 
    133 H133       -1.8705  -17.9227  -48.3626 H         1 UNK         0.0800 
    134 H134        1.2275  -16.6140  -49.5553 H         1 UNK         0.0800 
    135 H135        1.0017  -15.9555  -51.1472 H         1 UNK         0.0800 
    136 H136        1.5296  -17.2568  -53.0439 H         1 UNK         0.1150 
    137 H137        2.1648  -21.4779  -52.7220 H         1 UNK         0.1150 
    138 H138        0.7803  -19.2483  -49.3264 H         1 UNK         0.1150 
    139 H139        0.3758  -21.7975  -49.6525 H         1 UNK         0.0800 
    140 H140        1.2868  -22.6436  -50.8634 H         1 UNK         0.0800 
    141 H141        1.5106  -20.5384  -47.6146 H         1 UNK         0.0800 
    142 H142        2.8830  -21.2336  -46.8230 H         1 UNK         0.0800 
    143 H143        1.4673  -23.5118  -46.8965 H         1 UNK         0.0600 
    144 H144        1.4688  -21.4038  -44.8954 H         1 UNK         0.3000 
    145 H145        0.1063  -23.3669  -42.3016 H         1 UNK         0.0600 
    146 H146        2.2110  -22.7699  -41.1247 H         1 UNK         0.0600 
    147 H147        2.5034  -24.0818  -42.2573 H         1 UNK         0.0600 
    148 H148        3.0103  -22.4452  -42.6613 H         1 UNK         0.0600 
    149 H149        1.2117  -20.7570  -42.2723 H         1 UNK         0.3000 
    150 H150       -1.5481  -18.9978  -43.6907 H         1 UNK         0.0600 
    151 H151       -2.2411  -19.1584  -41.3747 H         1 UNK         0.0600 
    152 H152       -1.2064  -17.7425  -41.4943 H         1 UNK         0.0600 
    153 H153       -0.5853  -19.2441  -40.8043 H         1 UNK         0.0600 
    154 H154        0.8948  -18.0116  -42.6791 H         1 UNK         0.3000 
    155 H155        2.9175  -18.5946  -45.5733 H         1 UNK         0.0600 
    156 H156        1.6315  -16.0104  -44.5920 H         1 UNK         0.0600 
    157 H157        1.7260  -16.5769  -46.2574 H         1 UNK         0.0600 
    158 H158        3.1917  -16.1068  -45.4091 H         1 UNK         0.0600 
    159 H159        3.0757  -17.2505  -42.9574 H         1 UNK         0.3000 
    160 H160        4.8182  -19.9636  -41.4401 H         1 UNK         0.0600 
    161 H161        6.4925  -18.1915  -40.9837 H         1 UNK         0.0600 
    162 H162        5.8281  -17.1894  -42.2746 H         1 UNK         0.0600 
    163 H163        6.6147  -18.7168  -42.6552 H         1 UNK         0.0600 
    164 H164        4.1106  -17.3711  -40.4875 H         1 UNK         0.3000 
    165 H165        0.7969  -18.0901  -39.4459 H         1 UNK         0.0600 
    166 H166        1.6910  -17.5903  -37.2071 H         1 UNK         0.0600 
    167 H167        2.2038  -19.1954  -37.6992 H         1 UNK         0.0600 
    168 H168        3.3431  -17.8560  -37.7659 H         1 UNK         0.0600 
    169 H169        2.2445  -15.8396  -38.8276 H         1 UNK         0.3000 
    170 H170        0.9085  -13.9350  -39.9739 H         1 UNK         0.0600 
    171 H171        3.1921  -13.9918  -39.1080 H         1 UNK         0.0600 
    172 H172        3.8778  -14.0559  -40.7235 H         1 UNK         0.0600 
    173 H173        3.0604  -12.5995  -40.1615 H         1 UNK         0.0600 
    174 H174        0.4127  -13.1071  -41.9348 H         1 UNK         0.3000 
    175 H175        1.6417  -11.6034  -43.9933 H         1 UNK         0.0600 
    176 H176        1.7363  -13.9604  -45.9323 H         1 UNK         0.0600 
    177 H177        1.5862  -12.2616  -46.3552 H         1 UNK         0.0600 
    178 H178        3.0622  -12.8485  -45.6110 H         1 UNK         0.0600 
    179 H179       -0.4119  -13.5796  -44.8022 H         1 UNK         0.3000 
    180 H180       -2.9361  -12.1177  -42.8548 H         1 UNK         0.0600 
    181 H181       -2.6406  -11.5470  -45.8528 H         1 UNK         0.0600 
    182 H182       -2.9572  -10.3459  -44.6061 H         1 UNK         0.0600 
    183 H183       -4.1590  -11.5788  -44.9576 H         1 UNK         0.0600 
    184 H184       -3.0163  -13.8745  -45.1267 H         1 UNK         0.3000 
    185 H185       -1.7007  -16.7109  -43.7040 H         1 UNK         0.0600 
    186 H186       -3.7921  -16.9306  -42.3422 H         1 UNK         0.0600 
    187 H187       -4.7535  -16.3958  -43.7154 H         1 UNK         0.0600 
    188 H188       -3.8773  -17.9249  -43.7858 H         1 UNK         0.0600 
    189 H189       -3.5294  -16.5110  -45.8733 H         1 UNK         0.3000 
    190 H190       -0.5244  -20.6410  -46.1303 H         1 UNK         0.3000 
    191 H191       -2.4768  -20.8122  -48.0641 H         1 UNK         0.0600 
    192 H192       -3.0373  -19.8694  -45.2114 H         1 UNK         0.0600 
    193 H193       -3.6681  -19.2212  -46.7130 H         1 UNK         0.0600 
    194 H194       -1.9897  -18.9604  -46.2915 H         1 UNK         0.0600 
    195 H195       -2.4245  -22.5017  -44.9230 H         1 UNK         0.3000 
    196 H196       -4.9965  -23.6225  -44.9307 H         1 UNK         0.0600 
    197 H197       -3.9846  -25.2648  -43.3226 H         1 UNK         0.0600 
    198 H198       -3.4944  -23.6163  -42.9630 H         1 UNK         0.0600 
    199 H199       -2.3741  -24.7110  -43.7712 H         1 UNK         0.0600 
    200 H200       -2.1259  -24.6479  -46.7357 H         1 UNK         0.3000 
    201 H201       -3.3905  -27.1823  -47.6203 H         1 UNK         0.0600 
    202 H202       -0.6242  -25.9885  -48.1824 H         1 UNK         0.0600 
    203 H203       -0.9905  -27.2216  -46.9782 H         1 UNK         0.0600 
    204 H204       -1.1877  -27.5764  -48.6879 H         1 UNK         0.0600 
    205 H205       -2.3174  -24.0031  -48.8593 H         1 UNK         0.3000 
    206 H206       -2.9640  -24.6290  -51.6074 H         1 UNK         0.0600 
    207 H207       -2.1287  -21.9733  -50.3456 H         1 UNK         0.0600 
    208 H208       -1.0274  -23.2463  -50.8829 H         1 UNK         0.0600 
    209 H209       -2.0324  -22.4247  -52.0512 H         1 UNK         0.0600 
    210 H210       -5.0168  -23.7898  -49.1550 H         1 UNK         0.3000 
    211 H211       -7.1827  -23.4111  -49.0476 H         1 UNK         0.0600 
    212 H212       -7.3397  -23.1990  -52.0949 H         1 UNK         0.0600 
    213 H213       -8.6735  -23.4360  -50.9802 H         1 UNK         0.0600 
    214 H214       -7.4649  -24.6961  -51.1707 H         1 UNK         0.0600 
    215 H215       -5.6914  -21.4945  -48.2803 H         1 UNK         0.3000 
    216 H216       -5.7654  -19.4725  -47.4566 H         1 UNK         0.0600 
    217 H217       -8.4793  -19.0930  -48.8178 H         1 UNK         0.0600 
    218 H218       -7.7763  -18.0302  -47.6091 H         1 UNK         0.0600 
    219 H219       -8.1832  -19.6852  -47.1881 H         1 UNK         0.0600 
    220 H220       -7.2948  -18.6178  -50.5582 H         1 UNK         0.3000 
    221 H221       -5.0931  -16.7380  -51.2517 H         1 UNK         0.0600 
    222 H222       -7.8291  -17.2715  -52.5399 H         1 UNK         0.0600 
    223 H223       -7.4007  -15.8846  -51.5410 H         1 UNK         0.0600 
    224 H224       -6.6407  -16.1051  -53.1106 H         1 UNK         0.0600 
    225 H225       -3.4309  -18.0405  -51.7998 H         1 UNK         0.3000 
    226 H226       -3.4252  -20.6209  -52.3488 H         1 UNK         0.0600 
    227 H227       -1.4332  -19.4056  -51.7068 H         1 UNK         0.0600 
    228 H228       -1.0669  -20.3073  -53.1651 H         1 UNK         0.0600 
    229 H229       -1.3573  -18.5752  -53.2637 H         1 UNK         0.0600 
    230 H230       -4.1344  -21.9373  -53.8348 H         1 UNK         0.3000 
    231 H231       -5.1445  -21.2954  -56.3273 H         1 UNK         0.0600 
    232 H232       -5.7155  -23.3448  -55.0541 H         1 UNK         0.0600 
    233 H233       -4.0920  -23.9864  -55.2989 H         1 UNK         0.0600 
    234 H234       -5.1769  -23.7803  -56.6697 H         1 UNK         0.0600 
    235 H235       -4.4382  -21.1898  -58.3430 H         1 UNK         0.3000 
    236 H236       -3.2914  -21.0707  -60.1802 H         1 UNK         0.0600 
    237 H237       -1.4642  -22.6384  -60.7119 H         1 UNK         0.0600 
    238 H238       -1.3088  -23.0961  -59.0242 H         1 UNK         0.0600 
    239 H239       -2.7823  -23.4804  -59.9124 H         1 UNK         0.0600 
    240 H240       -0.9191  -20.9711  -57.4727 H         1 UNK         0.3000 
    241 H241        0.8029  -19.1496  -58.9673 H         1 UNK         0.0600 
    242 H242       -1.8615  -18.5140  -56.7256 H         1 UNK         0.3800 
    243 H243       -1.4615  -16.8283  -56.5631 H         1 UNK         0.3800 
    244 H244        2.3909  -19.3547  -57.1650 H         1 UNK         0.0800 
    245 H245        1.8303  -20.9226  -57.6503 H         1 UNK         0.0800 
    246 H246        3.2554  -19.8803  -54.6258 H         1 UNK         0.0800 
    247 H247        2.3217  -18.4296  -54.9292 H         1 UNK         0.0800 
@<TRIPOS>BOND
     1    1    2 1    
     2    1  127 1    
     3    1  128 1    
     4    1  129 1    
     5    2    3 2    
     6    2    4 am   BACKBONE|DICT|INTERRES
     7    4    5 1    
     8    4  130 1    
     9    5    6 1    
    10    5   65 1    
    11    5  131 1    
    12    6    7 1    
    13    6  132 1    
    14    6  133 1    
    15    7    8 1    
    16    8    9 1    
    17    8  134 1    
    18    8  135 1    
    19    9   10 ar   
    20    9   14 ar   
    21   10   11 ar   
    22   10  136 1    
    23   11   12 ar   
    24   11  126 1    
    25   12   13 ar   
    26   12  137 1    
    27   13   14 ar   
    28   13   15 1    
    29   14  138 1    
    30   15   16 1    
    31   15  139 1    
    32   15  140 1    
    33   16   17 1    
    34   17   18 1    
    35   17  141 1    
    36   17  142 1    
    37   18   19 1    
    38   18   67 1    
    39   18  143 1    
    40   19   20 am   BACKBONE|DICT|INTERRES
    41   19  144 1    
    42   20   21 2    
    43   20   22 1    
    44   22   23 1    
    45   22   24 1    
    46   22  145 1    
    47   23  146 1    
    48   23  147 1    
    49   23  148 1    
    50   24   25 am   BACKBONE|DICT|INTERRES
    51   24  149 1    
    52   25   26 2    
    53   25   27 1    
    54   27   28 1    
    55   27   29 1    
    56   27  150 1    
    57   28  151 1    
    58   28  152 1    
    59   28  153 1    
    60   29   30 am   BACKBONE|DICT|INTERRES
    61   29  154 1    
    62   30   31 2    
    63   30   32 1    
    64   32   33 1    
    65   32   34 1    
    66   32  155 1    
    67   33  156 1    
    68   33  157 1    
    69   33  158 1    
    70   34   35 am   BACKBONE|DICT|INTERRES
    71   34  159 1    
    72   35   36 2    
    73   35   37 1    
    74   37   38 1    
    75   37   39 1    
    76   37  160 1    
    77   38  161 1    
    78   38  162 1    
    79   38  163 1    
    80   39   40 am   BACKBONE|DICT|INTERRES
    81   39  164 1    
    82   40   41 2    
    83   40   42 1    
    84   42   43 1    
    85   42   44 1    
    86   42  165 1    
    87   43  166 1    
    88   43  167 1    
    89   43  168 1    
    90   44   45 am   BACKBONE|DICT|INTERRES
    91   44  169 1    
    92   45   46 2    
    93   45   47 1    
    94   47   48 1    
    95   47   49 1    
    96   47  170 1    
    97   48  171 1    
    98   48  172 1    
    99   48  173 1    
   100   49   50 am   BACKBONE|DICT|INTERRES
   101   49  174 1    
   102   50   51 2    
   103   50   52 1    
   104   52   53 1    
   105   52   54 1    
   106   52  175 1    
   107   53  176 1    
   108   53  177 1    
   109   53  178 1    
   110   54   55 am   BACKBONE|DICT|INTERRES
   111   54  179 1    
   112   55   56 2    
   113   55   57 1    
   114   57   58 1    
   115   57   59 1    
   116   57  180 1    
   117   58  181 1    
   118   58  182 1    
   119   58  183 1    
   120   59   60 am   BACKBONE|DICT|INTERRES
   121   59  184 1    
   122   60   61 2    
   123   60   62 1    
   124   62   63 1    
   125   62   64 1    
   126   62  185 1    
   127   63  186 1    
   128   63  187 1    
   129   63  188 1    
   130   64   65 am   BACKBONE|DICT|INTERRES
   131   64  189 1    
   132   65   66 2    
   133   67   68 2    
   134   67   69 am   BACKBONE|DICT|INTERRES
   135   69   70 1    
   136   69  190 1    
   137   70   71 1    
   138   70   72 1    
   139   70  191 1    
   140   71  192 1    
   141   71  193 1    
   142   71  194 1    
   143   72   73 2    
   144   72   74 am   BACKBONE|DICT|INTERRES
   145   74   75 1    
   146   74  195 1    
   147   75   76 1    
   148   75   77 1    
   149   75  196 1    
   150   76  197 1    
   151   76  198 1    
   152   76  199 1    
   153   77   78 2    
   154   77   79 am   BACKBONE|DICT|INTERRES
   155   79   80 1    
   156   79  200 1    
   157   80   81 1    
   158   80   82 1    
   159   80  201 1    
   160   81  202 1    
   161   81  203 1    
   162   81  204 1    
   163   82   83 2    
   164   82   84 am   BACKBONE|DICT|INTERRES
   165   84   85 1    
   166   84  205 1    
   167   85   86 1    
   168   85   87 1    
   169   85  206 1    
   170   86  207 1    
   171   86  208 1    
   172   86  209 1    
   173   87   88 2    
   174   87   89 am   BACKBONE|DICT|INTERRES
   175   89   90 1    
   176   89  210 1    
   177   90   91 1    
   178   90   92 1    
   179   90  211 1    
   180   91  212 1    
   181   91  213 1    
   182   91  214 1    
   183   92   93 2    
   184   92   94 am   BACKBONE|DICT|INTERRES
   185   94   95 1    
   186   94  215 1    
   187   95   96 1    
   188   95   97 1    
   189   95  216 1    
   190   96  217 1    
   191   96  218 1    
   192   96  219 1    
   193   97   98 2    
   194   97   99 am   BACKBONE|DICT|INTERRES
   195   99  100 1    
   196   99  220 1    
   197  100  101 1    
   198  100  102 1    
   199  100  221 1    
   200  101  222 1    
   201  101  223 1    
   202  101  224 1    
   203  102  103 2    
   204  102  104 am   BACKBONE|DICT|INTERRES
   205  104  105 1    
   206  104  225 1    
   207  105  106 1    
   208  105  107 1    
   209  105  226 1    
   210  106  227 1    
   211  106  228 1    
   212  106  229 1    
   213  107  108 2    
   214  107  109 am   BACKBONE|DICT|INTERRES
   215  109  110 1    
   216  109  230 1    
   217  110  111 1    
   218  110  112 1    
   219  110  231 1    
   220  111  232 1    
   221  111  233 1    
   222  111  234 1    
   223  112  113 2    
   224  112  114 am   BACKBONE|DICT|INTERRES
   225  114  115 1    
   226  114  235 1    
   227  115  116 1    
   228  115  117 1    
   229  115  236 1    
   230  116  237 1    
   231  116  238 1    
   232  116  239 1    
   233  117  118 2    
   234  117  119 am   BACKBONE|DICT|INTERRES
   235  119  120 1    
   236  119  240 1    
   237  120  121 1    
   238  120  124 1    
   239  120  241 1    
   240  121  122 am   BACKBONE|DICT|INTERRES
   241  121  123 2    
   242  122  242 1    
   243  122  243 1    
   244  124  125 1    
   245  124  244 1    
   246  124  245 1    
   247  125  126 1    
   248  126  246 1    
   249  126  247 1    
@<TRIPOS>SUBSTRUCTURE
     1 UNK         1 GROUP             0       ****    0 ROOT    
