@<TRIPOS>MOLECULE
3R540
247   249    1
SMALL
USER_CHARGES


@<TRIPOS>ATOM
      1 CA          5.5592  -13.5491  -45.3462 C.3       0 UNK        -0.1800 
      2 C           4.1134  -14.0110  -45.4511 C.2       0 UNK         0.5000 
      3 O           3.6210  -14.6810  -44.5447 O.2       0 UNK        -0.5000 
      4 N           3.4369  -13.6612  -46.5499 N.am      1 UNK        -0.5000 
      5 CA          2.0334  -13.9896  -46.8147 C.3       1 UNK         0.1400 
      6 C6          1.8448  -14.5064  -48.2679 C.3       23 UNK        -0.0398 
      7 S7          0.5811  -15.8159  -48.3542 S.3       23 UNK        -0.2404 
      8 C8          0.6733  -16.2845  -50.1061 C.3       23 UNK        -0.0205 
      9 C9         -0.0038  -17.6258  -50.3333 C.ar      23 UNK        -0.0193 
     10 C10        -1.3888  -17.7013  -50.5107 C.ar      23 UNK        -0.1150 
     11 C11        -2.0141  -18.9394  -50.6904 C.ar      23 UNK        -0.0193 
     12 C12        -1.2427  -20.1052  -50.6926 C.ar      23 UNK        -0.1150 
     13 C13         0.1445  -20.0392  -50.5381 C.ar      23 UNK        -0.0193 
     14 C14         0.7577  -18.7972  -50.3554 C.ar      23 UNK        -0.1150 
     15 C15         0.9843  -21.3069  -50.5716 C.3       23 UNK        -0.0205 
     16 S16         1.5744  -21.7648  -48.9143 S.3       23 UNK        -0.2404 
     17 C17        -0.0024  -22.1250  -48.0742 C.3       23 UNK        -0.0398 
     18 CA          0.1738  -23.2003  -46.9821 C.3       11 UNK         0.1400 
     19 N           0.8986  -22.7008  -45.8121 N.am      11 UNK        -0.5000 
     20 C           1.3572  -23.4740  -44.8189 C.2       10 UNK         0.5000 
     21 O           1.2495  -24.7003  -44.8036 O.2       10 UNK        -0.5000 
     22 CA          1.9933  -22.7541  -43.6161 C.3       10 UNK         0.1400 
     23 CB          3.4214  -22.2917  -43.9410 C.3       10 UNK        -0.1800 
     24 N           1.1928  -21.6170  -43.1586 N.am      10 UNK        -0.5000 
     25 C          -0.0508  -21.7202  -42.6665 C.2       9 UNK         0.5000 
     26 O          -0.6352  -22.7917  -42.5046 O.2       9 UNK        -0.5000 
     27 CA         -0.7829  -20.4067  -42.3399 C.3       9 UNK         0.1400 
     28 CB         -0.3368  -19.8553  -40.9776 C.3       9 UNK        -0.1800 
     29 N          -0.5902  -19.3840  -43.3662 N.am      9 UNK        -0.5000 
     30 C          -1.0002  -19.4820  -44.6385 C.2       8 UNK         0.5000 
     31 O          -1.6285  -20.4394  -45.0864 O.2       8 UNK        -0.5000 
     32 CA         -0.5837  -18.3419  -45.5829 C.3       8 UNK         0.1400 
     33 CB         -1.4808  -17.1088  -45.3869 C.3       8 UNK        -0.1800 
     34 N           0.8221  -17.9781  -45.4024 N.am      8 UNK        -0.5000 
     35 C           1.8495  -18.7975  -45.6703 C.2       7 UNK         0.5000 
     36 O           1.7169  -19.9384  -46.1077 O.2       7 UNK        -0.5000 
     37 CA          3.2592  -18.2785  -45.3456 C.3       7 UNK         0.1400 
     38 CB          3.8367  -17.4934  -46.5309 C.3       7 UNK        -0.1800 
     39 N           3.2807  -17.4555  -44.1358 N.am      7 UNK        -0.5000 
     40 C           3.1122  -17.9483  -42.9019 C.2       6 UNK         0.5000 
     41 O           2.9270  -19.1428  -42.6627 O.2       6 UNK        -0.5000 
     42 CA          3.1138  -16.9326  -41.7452 C.3       6 UNK         0.1400 
     43 CB          4.5397  -16.4420  -41.4506 C.3       6 UNK        -0.1800 
     44 N           2.2405  -15.7760  -41.9583 N.am      6 UNK        -0.5000 
     45 C           0.9295  -15.8180  -42.2155 C.2       5 UNK         0.5000 
     46 O           0.3174  -16.8686  -42.4028 O.2       5 UNK        -0.5000 
     47 CA          0.1358  -14.4955  -42.2666 C.3       5 UNK         0.1400 
     48 CB         -0.6690  -14.3089  -40.9674 C.3       5 UNK        -0.1800 
     49 N           0.8653  -13.2599  -42.5858 N.am      5 UNK        -0.5000 
     50 C           1.8587  -12.6481  -41.9224 C.2       4 UNK         0.5000 
     51 O           2.4639  -13.1478  -40.9742 O.2       4 UNK        -0.5000 
     52 CA          2.2210  -11.2159  -42.3685 C.3       4 UNK         0.1400 
     53 CB          3.5348  -11.1836  -43.1602 C.3       4 UNK        -0.1800 
     54 N           1.1621  -10.5791  -43.1571 N.am      4 UNK        -0.5000 
     55 C           0.0630  -10.0265  -42.6213 C.2       3 UNK         0.5000 
     56 O          -0.1299   -9.9373  -41.4081 O.2       3 UNK        -0.5000 
     57 CA         -1.0129   -9.4951  -43.5901 C.3       3 UNK         0.1400 
     58 CB         -0.8399   -7.9840  -43.8072 C.3       3 UNK        -0.1800 
     59 N          -1.0322  -10.1624  -44.8938 N.am      3 UNK        -0.5000 
     60 C          -1.3079  -11.4572  -45.0989 C.2       2 UNK         0.5000 
     61 O          -1.5631  -12.2516  -44.1935 O.2       2 UNK        -0.5000 
     62 CA         -1.2566  -11.9756  -46.5501 C.3       2 UNK         0.1400 
     63 CB         -1.1491  -10.8649  -47.6197 C.3       2 UNK        -0.1800 
     64 N          -0.1862  -12.9609  -46.7298 N.am      2 UNK        -0.5000 
     65 C           1.1225  -12.7844  -46.4970 C.2       1 UNK         0.5000 
     66 O           1.6034  -11.7356  -46.0577 O.2       1 UNK        -0.5000 
     67 C          -1.1784  -23.8299  -46.5998 C.2       11 UNK         0.5000 
     68 O          -1.5026  -24.8924  -47.1255 O.2       11 UNK        -0.5000 
     69 N          -1.9199  -23.2130  -45.6685 N.am      12 UNK        -0.5000 
     70 CA         -3.1785  -23.7415  -45.1379 C.3       12 UNK         0.1400 
     71 CB         -3.8423  -22.7015  -44.2234 C.3       12 UNK        -0.1800 
     72 C          -3.0001  -25.0834  -44.4044 C.2       12 UNK         0.5000 
     73 O          -3.8034  -25.9932  -44.6105 O.2       12 UNK        -0.5000 
     74 N          -1.9295  -25.2018  -43.6055 N.am      13 UNK        -0.5000 
     75 CA         -1.5373  -26.4350  -42.9191 C.3       13 UNK         0.1400 
     76 CB         -0.4196  -26.1276  -41.9112 C.3       13 UNK        -0.1800 
     77 C          -1.1080  -27.5516  -43.8914 C.2       13 UNK         0.5000 
     78 O          -1.4369  -28.7161  -43.6628 O.2       13 UNK        -0.5000 
     79 N          -0.4092  -27.1749  -44.9709 N.am      14 UNK        -0.5000 
     80 CA          0.0028  -28.0674  -46.0579 C.3       14 UNK         0.1400 
     81 CB          1.1461  -27.3972  -46.8369 C.3       14 UNK        -0.1800 
     82 C          -1.1443  -28.4469  -47.0193 C.2       14 UNK         0.5000 
     83 O          -0.9769  -29.3756  -47.8108 O.2       14 UNK        -0.5000 
     84 N          -2.2652  -27.7134  -46.9508 N.am      15 UNK        -0.5000 
     85 CA         -3.4283  -27.7544  -47.8434 C.3       15 UNK         0.1400 
     86 CB         -4.1575  -29.1109  -47.7490 C.3       15 UNK        -0.1800 
     87 C          -3.0789  -27.3427  -49.2915 C.2       15 UNK         0.5000 
     88 O          -3.6138  -27.9094  -50.2466 O.2       15 UNK        -0.5000 
     89 N          -2.1817  -26.3590  -49.4227 N.am      16 UNK        -0.5000 
     90 CA         -1.7367  -25.7743  -50.6824 C.3       16 UNK         0.1400 
     91 CB         -0.2272  -25.4987  -50.5873 C.3       16 UNK        -0.1800 
     92 C          -2.5001  -24.4676  -50.9463 C.2       16 UNK         0.5000 
     93 O          -2.7072  -23.6817  -50.0193 O.2       16 UNK        -0.5000 
     94 N          -2.8704  -24.2389  -52.2091 N.am      17 UNK        -0.5000 
     95 CA         -3.5402  -23.0356  -52.6914 C.3       17 UNK         0.1400 
     96 CB         -5.0060  -22.9979  -52.2149 C.3       17 UNK        -0.1800 
     97 C          -3.4700  -23.0030  -54.2231 C.2       17 UNK         0.5000 
     98 O          -3.3293  -24.0537  -54.8553 O.2       17 UNK        -0.5000 
     99 N          -3.6044  -21.7998  -54.7838 N.am      18 UNK        -0.5000 
    100 CA        -3.7653  -21.5349  -56.2063 C.3       18 UNK         0.1400 
    101 CB        -2.4797  -20.8974  -56.7603 C.3       18 UNK        -0.1800 
    102 C         -4.9633  -20.5880  -56.3120 C.2       18 UNK         0.5000 
    103 O         -4.8311  -19.4131  -55.9677 O.2       18 UNK        -0.5000 
    104 N         -6.1250  -21.1201  -56.7136 N.am      19 UNK        -0.5000 
    105 CA        -7.4373  -20.4604  -56.6546 C.3       19 UNK         0.1400 
    106 CB        -8.5014  -21.4121  -57.2211 C.3       19 UNK        -0.1800 
    107 C         -7.5253  -19.0850  -57.3459 C.2       19 UNK         0.5000 
    108 O         -8.2941  -18.2340  -56.8977 O.2       19 UNK        -0.5000 
    109 N         -6.7112  -18.8745  -58.3889 N.am      20 UNK        -0.5000 
    110 CA        -6.5755  -17.6027  -59.1029 C.3       20 UNK         0.1400 
    111 CB        -5.6984  -17.8223  -60.3451 C.3       20 UNK        -0.1800 
    112 C         -6.0058  -16.4579  -58.2378 C.2       20 UNK         0.5000 
    113 O         -6.2966  -15.2943  -58.5189 O.2       20 UNK        -0.5000 
    114 N         -5.2170  -16.8022  -57.2114 N.am      21 UNK        -0.5000 
    115 CA        -4.6432  -15.8685  -56.2443 C.3       21 UNK         0.1400 
    116 CB        -3.1431  -16.1686  -56.0896 C.3       21 UNK        -0.1800 
    117 C         -5.3525  -15.9767  -54.8846 C.2       21 UNK         0.5000 
    118 O         -5.6439  -14.9509  -54.2682 O.2       21 UNK        -0.5000 
    119 N         -5.6024  -17.2128  -54.4373 N.am      22 UNK        -0.5000 
    120 CA        -6.1581  -17.5365  -53.1146 C.3       22 UNK         0.1400 
    121 C         -7.6983  -17.3558  -52.9952 C.2       22 UNK         0.5000 
    122 N         -8.4510  -17.2434  -54.0827 N.am      22 UNK        -0.7600 
    123 O         -8.2227  -17.3083  -51.8860 O.2       22 UNK        -0.5000 
    124 C124       -5.7335  -18.9537  -52.6474 C.3       23 UNK        -0.0398 
    125 S125       -3.9215  -19.1847  -52.6558 S.3       23 UNK        -0.2404 
    126 C126       -3.5191  -19.0189  -50.8914 C.3       23 UNK        -0.0205 
    127 H127        6.2268  -14.4105  -45.3580 H         1 UNK         0.0600 
    128 H128        5.7149  -13.0100  -44.4120 H         1 UNK         0.0600 
    129 H129        5.8353  -12.8902  -46.1697 H         1 UNK         0.0600 
    130 H130        3.8759  -13.0540  -47.2273 H         1 UNK         0.3000 
    131 H131        1.7282  -14.7800  -46.1257 H         1 UNK         0.0600 
    132 H132        1.6003  -13.7031  -48.9660 H         1 UNK         0.0800 
    133 H133        2.7744  -14.9445  -48.6351 H         1 UNK         0.0800 
    134 H134        0.2004  -15.5137  -50.7164 H         1 UNK         0.0800 
    135 H135        1.7168  -16.3350  -50.4209 H         1 UNK         0.0800 
    136 H136       -1.9792  -16.7958  -50.5012 H         1 UNK         0.1150 
    137 H137       -1.7223  -21.0643  -50.8201 H         1 UNK         0.1150 
    138 H138        1.8288  -18.7463  -50.2180 H         1 UNK         0.1150 
    139 H139        0.4215  -22.1374  -51.0013 H         1 UNK         0.0800 
    140 H140        1.8454  -21.1518  -51.2231 H         1 UNK         0.0800 
    141 H141       -0.7171  -22.4584  -48.8273 H         1 UNK         0.0800 
    142 H142       -0.4059  -21.2014  -47.6553 H         1 UNK         0.0800 
    143 H143        0.7739  -24.0079  -47.4068 H         1 UNK         0.0600 
    144 H144        1.0716  -21.6987  -45.7838 H         1 UNK         0.3000 
    145 H145        2.0500  -23.4707  -42.7941 H         1 UNK         0.0600 
    146 H146        3.8952  -21.8348  -43.0721 H         1 UNK         0.0600 
    147 H147        4.0431  -23.1342  -44.2462 H         1 UNK         0.0600 
    148 H148        3.4363  -21.5633  -44.7515 H         1 UNK         0.0600 
    149 H149        1.6197  -20.6995  -43.2250 H         1 UNK         0.3000 
    150 H150       -1.8510  -20.6254  -42.2851 H         1 UNK         0.0600 
    151 H151       -0.4833  -20.5945  -40.1891 H         1 UNK         0.0600 
    152 H152       -0.9107  -18.9693  -40.7052 H         1 UNK         0.0600 
    153 H153        0.7184  -19.5798  -40.9804 H         1 UNK         0.0600 
    154 H154       -0.1092  -18.5354  -43.0747 H         1 UNK         0.3000 
    155 H155       -0.7077  -18.6916  -46.6105 H         1 UNK         0.0600 
    156 H156       -1.4306  -16.7230  -44.3694 H         1 UNK         0.0600 
    157 H157       -1.2052  -16.3013  -46.0633 H         1 UNK         0.0600 
    158 H158       -2.5236  -17.3564  -45.5885 H         1 UNK         0.0600 
    159 H159        1.0163  -17.0843  -44.9785 H         1 UNK         0.3000 
    160 H160        3.9022  -19.1447  -45.1764 H         1 UNK         0.0600 
    161 H161        4.8444  -17.1364  -46.3179 H         1 UNK         0.0600 
    162 H162        3.2190  -16.6329  -46.7787 H         1 UNK         0.0600 
    163 H163        3.8920  -18.1204  -47.4217 H         1 UNK         0.0600 
    164 H164        3.4087  -16.4504  -44.2493 H         1 UNK         0.3000 
    165 H165        2.7459  -17.4523  -40.8584 H         1 UNK         0.0600 
    166 H166        4.5633  -15.8139  -40.5599 H         1 UNK         0.0600 
    167 H167        5.2147  -17.2807  -41.2757 H         1 UNK         0.0600 
    168 H168        4.9440  -15.8601  -42.2800 H         1 UNK         0.0600 
    169 H169        2.6433  -14.8614  -41.7818 H         1 UNK         0.3000 
    170 H170       -0.5836  -14.6171  -43.0776 H         1 UNK         0.0600 
    171 H171       -0.0169  -14.1690  -40.1046 H         1 UNK         0.0600 
    172 H172       -1.3278  -13.4429  -41.0349 H         1 UNK         0.0600 
    173 H173       -1.2962  -15.1783  -40.7656 H         1 UNK         0.0600 
    174 H174        0.4440  -12.7307  -43.3382 H         1 UNK         0.3000 
    175 H175        2.3783  -10.6349  -41.4572 H         1 UNK         0.0600 
    176 H176        3.8786  -10.1594  -43.3048 H         1 UNK         0.0600 
    177 H177        3.4194  -11.6336  -44.1433 H         1 UNK         0.0600 
    178 H178        4.3262  -11.7222  -42.6372 H         1 UNK         0.0600 
    179 H179        1.2459  -10.6377  -44.1659 H         1 UNK         0.3000 
    180 H180       -1.9837   -9.6629  -43.1191 H         1 UNK         0.0600 
    181 H181        0.1043   -7.7548  -44.3027 H         1 UNK         0.0600 
    182 H182       -0.8504   -7.4485  -42.8568 H         1 UNK         0.0600 
    183 H183       -1.6475   -7.5770  -44.4160 H         1 UNK         0.0600 
    184 H184       -0.8007   -9.5918  -45.6939 H         1 UNK         0.3000 
    185 H185       -2.1970  -12.5029  -46.7168 H         1 UNK         0.0600 
    186 H186       -0.2170  -10.3038  -47.5452 H         1 UNK         0.0600 
    187 H187       -1.1944  -11.2896  -48.6227 H         1 UNK         0.0600 
    188 H188       -1.9745  -10.1566  -47.5372 H         1 UNK         0.0600 
    189 H189       -0.4865  -13.8630  -47.0742 H         1 UNK         0.3000 
    190 H190       -1.6239  -22.3056  -45.3170 H         1 UNK         0.3000 
    191 H191       -3.8438  -23.9162  -45.9861 H         1 UNK         0.0600 
    192 H192       -4.0536  -21.7791  -44.7645 H         1 UNK         0.0600 
    193 H193       -4.7903  -23.0732  -43.8328 H         1 UNK         0.0600 
    194 H194       -3.2110  -22.4525  -43.3707 H         1 UNK         0.0600 
    195 H195       -1.3428  -24.3871  -43.4494 H         1 UNK         0.3000 
    196 H196       -2.4040  -26.7971  -42.3624 H         1 UNK         0.0600 
    197 H197       -0.1243  -27.0263  -41.3685 H         1 UNK         0.0600 
    198 H198       -0.7458  -25.3940  -41.1737 H         1 UNK         0.0600 
    199 H199        0.4699  -25.7327  -42.4027 H         1 UNK         0.0600 
    200 H200       -0.1204  -26.2049  -45.0478 H         1 UNK         0.3000 
    201 H201        0.3845  -28.9923  -45.6210 H         1 UNK         0.0600 
    202 H202        1.9840  -27.1578  -46.1819 H         1 UNK         0.0600 
    203 H203        0.8183  -26.4730  -47.3133 H         1 UNK         0.0600 
    204 H204        1.5240  -28.0535  -47.6217 H         1 UNK         0.0600 
    205 H205       -2.2648  -26.9476  -46.2896 H         1 UNK         0.3000 
    206 H206       -4.1129  -26.9901  -47.4728 H         1 UNK         0.0600 
    207 H207       -4.3874  -29.3624  -46.7136 H         1 UNK         0.0600 
    208 H208       -5.1022  -29.0837  -48.2931 H         1 UNK         0.0600 
    209 H209       -3.5637  -29.9231  -48.1687 H         1 UNK         0.0600 
    210 H210       -1.8680  -25.8806  -48.5792 H         1 UNK         0.3000 
    211 H211       -1.9117  -26.4706  -51.5052 H         1 UNK         0.0600 
    212 H212        0.0061  -24.8012  -49.7820 H         1 UNK         0.0600 
    213 H213        0.1517  -25.0681  -51.5150 H         1 UNK         0.0600 
    214 H214        0.3292  -26.4178  -50.4026 H         1 UNK         0.0600 
    215 H215       -2.6563  -24.9086  -52.9382 H         1 UNK         0.3000 
    216 H216       -3.0114  -22.1619  -52.3098 H         1 UNK         0.0600 
    217 H217       -5.5287  -22.1292  -52.6161 H         1 UNK         0.0600 
    218 H218       -5.0728  -22.9349  -51.1289 H         1 UNK         0.0600 
    219 H219       -5.5526  -23.8862  -52.5334 H         1 UNK         0.0600 
    220 H220       -3.7305  -20.9886  -54.1891 H         1 UNK         0.3000 
    221 H221       -3.9787  -22.4512  -56.7608 H         1 UNK         0.0600 
    222 H222       -2.2147  -19.9841  -56.2253 H         1 UNK         0.0600 
    223 H223       -1.6374  -21.5847  -56.6807 H         1 UNK         0.0600 
    224 H224       -2.5944  -20.6411  -57.8140 H         1 UNK         0.0600 
    225 H225       -6.1385  -22.0956  -56.9746 H         1 UNK         0.3000 
    226 H226       -7.6611  -20.2951  -55.5987 H         1 UNK         0.0600 
    227 H227       -8.5385  -22.3446  -56.6576 H         1 UNK         0.0600 
    228 H228       -9.4951  -20.9647  -57.1694 H         1 UNK         0.0600 
    229 H229       -8.3055  -21.6570  -58.2657 H         1 UNK         0.0600 
    230 H230       -6.1070  -19.6279  -58.6821 H         1 UNK         0.3000 
    231 H231       -7.5700  -17.2979  -59.4351 H         1 UNK         0.0600 
    232 H232       -4.6946  -18.1528  -60.0748 H         1 UNK         0.0600 
    233 H233       -5.5969  -16.9007  -60.9198 H         1 UNK         0.0600 
    234 H234       -6.1325  -18.5707  -61.0082 H         1 UNK         0.0600 
    235 H235       -5.0620  -17.7876  -57.0246 H         1 UNK         0.3000 
    236 H236       -4.7461  -14.8392  -56.5940 H         1 UNK         0.0600 
    237 H237       -2.6181  -16.0429  -57.0365 H         1 UNK         0.0600 
    238 H238       -2.6817  -15.4927  -55.3685 H         1 UNK         0.0600 
    239 H239       -2.9675  -17.1883  -55.7432 H         1 UNK         0.0600 
    240 H240       -5.3029  -18.0092  -54.9955 H         1 UNK         0.3000 
    241 H241       -5.7265  -16.8296  -52.4033 H         1 UNK         0.0600 
    242 H242       -9.4455  -17.1198  -53.9790 H         1 UNK         0.3800 
    243 H243       -8.0597  -17.3281  -55.0123 H         1 UNK         0.3800 
    244 H244       -6.1146  -19.1629  -51.6462 H         1 UNK         0.0800 
    245 H245       -6.1716  -19.7091  -53.3016 H         1 UNK         0.0800 
    246 H246       -4.0019  -18.1271  -50.4887 H         1 UNK         0.0800 
    247 H247       -3.9245  -19.8705  -50.3425 H         1 UNK         0.0800 
@<TRIPOS>BOND
     1    1    2 1    
     2    1  127 1    
     3    1  128 1    
     4    1  129 1    
     5    2    3 2    
     6    2    4 am   BACKBONE|DICT|INTERRES
     7    4    5 1    
     8    4  130 1    
     9    5    6 1    
    10    5   65 1    
    11    5  131 1    
    12    6    7 1    
    13    6  132 1    
    14    6  133 1    
    15    7    8 1    
    16    8    9 1    
    17    8  134 1    
    18    8  135 1    
    19    9   10 ar   
    20    9   14 ar   
    21   10   11 ar   
    22   10  136 1    
    23   11   12 ar   
    24   11  126 1    
    25   12   13 ar   
    26   12  137 1    
    27   13   14 ar   
    28   13   15 1    
    29   14  138 1    
    30   15   16 1    
    31   15  139 1    
    32   15  140 1    
    33   16   17 1    
    34   17   18 1    
    35   17  141 1    
    36   17  142 1    
    37   18   19 1    
    38   18   67 1    
    39   18  143 1    
    40   19   20 am   BACKBONE|DICT|INTERRES
    41   19  144 1    
    42   20   21 2    
    43   20   22 1    
    44   22   23 1    
    45   22   24 1    
    46   22  145 1    
    47   23  146 1    
    48   23  147 1    
    49   23  148 1    
    50   24   25 am   BACKBONE|DICT|INTERRES
    51   24  149 1    
    52   25   26 2    
    53   25   27 1    
    54   27   28 1    
    55   27   29 1    
    56   27  150 1    
    57   28  151 1    
    58   28  152 1    
    59   28  153 1    
    60   29   30 am   BACKBONE|DICT|INTERRES
    61   29  154 1    
    62   30   31 2    
    63   30   32 1    
    64   32   33 1    
    65   32   34 1    
    66   32  155 1    
    67   33  156 1    
    68   33  157 1    
    69   33  158 1    
    70   34   35 am   BACKBONE|DICT|INTERRES
    71   34  159 1    
    72   35   36 2    
    73   35   37 1    
    74   37   38 1    
    75   37   39 1    
    76   37  160 1    
    77   38  161 1    
    78   38  162 1    
    79   38  163 1    
    80   39   40 am   BACKBONE|DICT|INTERRES
    81   39  164 1    
    82   40   41 2    
    83   40   42 1    
    84   42   43 1    
    85   42   44 1    
    86   42  165 1    
    87   43  166 1    
    88   43  167 1    
    89   43  168 1    
    90   44   45 am   BACKBONE|DICT|INTERRES
    91   44  169 1    
    92   45   46 2    
    93   45   47 1    
    94   47   48 1    
    95   47   49 1    
    96   47  170 1    
    97   48  171 1    
    98   48  172 1    
    99   48  173 1    
   100   49   50 am   BACKBONE|DICT|INTERRES
   101   49  174 1    
   102   50   51 2    
   103   50   52 1    
   104   52   53 1    
   105   52   54 1    
   106   52  175 1    
   107   53  176 1    
   108   53  177 1    
   109   53  178 1    
   110   54   55 am   BACKBONE|DICT|INTERRES
   111   54  179 1    
   112   55   56 2    
   113   55   57 1    
   114   57   58 1    
   115   57   59 1    
   116   57  180 1    
   117   58  181 1    
   118   58  182 1    
   119   58  183 1    
   120   59   60 am   BACKBONE|DICT|INTERRES
   121   59  184 1    
   122   60   61 2    
   123   60   62 1    
   124   62   63 1    
   125   62   64 1    
   126   62  185 1    
   127   63  186 1    
   128   63  187 1    
   129   63  188 1    
   130   64   65 am   BACKBONE|DICT|INTERRES
   131   64  189 1    
   132   65   66 2    
   133   67   68 2    
   134   67   69 am   BACKBONE|DICT|INTERRES
   135   69   70 1    
   136   69  190 1    
   137   70   71 1    
   138   70   72 1    
   139   70  191 1    
   140   71  192 1    
   141   71  193 1    
   142   71  194 1    
   143   72   73 2    
   144   72   74 am   BACKBONE|DICT|INTERRES
   145   74   75 1    
   146   74  195 1    
   147   75   76 1    
   148   75   77 1    
   149   75  196 1    
   150   76  197 1    
   151   76  198 1    
   152   76  199 1    
   153   77   78 2    
   154   77   79 am   BACKBONE|DICT|INTERRES
   155   79   80 1    
   156   79  200 1    
   157   80   81 1    
   158   80   82 1    
   159   80  201 1    
   160   81  202 1    
   161   81  203 1    
   162   81  204 1    
   163   82   83 2    
   164   82   84 am   BACKBONE|DICT|INTERRES
   165   84   85 1    
   166   84  205 1    
   167   85   86 1    
   168   85   87 1    
   169   85  206 1    
   170   86  207 1    
   171   86  208 1    
   172   86  209 1    
   173   87   88 2    
   174   87   89 am   BACKBONE|DICT|INTERRES
   175   89   90 1    
   176   89  210 1    
   177   90   91 1    
   178   90   92 1    
   179   90  211 1    
   180   91  212 1    
   181   91  213 1    
   182   91  214 1    
   183   92   93 2    
   184   92   94 am   BACKBONE|DICT|INTERRES
   185   94   95 1    
   186   94  215 1    
   187   95   96 1    
   188   95   97 1    
   189   95  216 1    
   190   96  217 1    
   191   96  218 1    
   192   96  219 1    
   193   97   98 2    
   194   97   99 am   BACKBONE|DICT|INTERRES
   195   99  100 1    
   196   99  220 1    
   197  100  101 1    
   198  100  102 1    
   199  100  221 1    
   200  101  222 1    
   201  101  223 1    
   202  101  224 1    
   203  102  103 2    
   204  102  104 am   BACKBONE|DICT|INTERRES
   205  104  105 1    
   206  104  225 1    
   207  105  106 1    
   208  105  107 1    
   209  105  226 1    
   210  106  227 1    
   211  106  228 1    
   212  106  229 1    
   213  107  108 2    
   214  107  109 am   BACKBONE|DICT|INTERRES
   215  109  110 1    
   216  109  230 1    
   217  110  111 1    
   218  110  112 1    
   219  110  231 1    
   220  111  232 1    
   221  111  233 1    
   222  111  234 1    
   223  112  113 2    
   224  112  114 am   BACKBONE|DICT|INTERRES
   225  114  115 1    
   226  114  235 1    
   227  115  116 1    
   228  115  117 1    
   229  115  236 1    
   230  116  237 1    
   231  116  238 1    
   232  116  239 1    
   233  117  118 2    
   234  117  119 am   BACKBONE|DICT|INTERRES
   235  119  120 1    
   236  119  240 1    
   237  120  121 1    
   238  120  124 1    
   239  120  241 1    
   240  121  122 am   BACKBONE|DICT|INTERRES
   241  121  123 2    
   242  122  242 1    
   243  122  243 1    
   244  124  125 1    
   245  124  244 1    
   246  124  245 1    
   247  125  126 1    
   248  126  246 1    
   249  126  247 1    
@<TRIPOS>SUBSTRUCTURE
     1 UNK         1 GROUP             0       ****    0 ROOT    
