@<TRIPOS>MOLECULE
3R540
247   249    1
SMALL
USER_CHARGES


@<TRIPOS>ATOM
      1 CA          6.6865  -11.1512  -50.3519 C.3       0 UNK        -0.1800 
      2 C           6.2427  -12.4404  -49.6752 C.2       0 UNK         0.5000 
      3 O           6.6205  -13.5239  -50.1201 O.2       0 UNK        -0.5000 
      4 N           5.4401  -12.3202  -48.6099 N.am      1 UNK        -0.5000 
      5 CA          4.9196  -13.4236  -47.7947 C.3       1 UNK         0.1400 
      6 C6          3.9002  -12.9485  -46.7330 C.3       23 UNK        -0.0398 
      7 S7          2.3598  -12.3038  -47.4621 S.3       23 UNK        -0.2404 
      8 C8          1.1557  -13.5818  -46.9799 C.3       23 UNK        -0.0205 
      9 C9          0.9981  -14.6572  -48.0455 C.ar      23 UNK        -0.0193 
     10 C10        -0.1509  -14.6809  -48.8452 C.ar      23 UNK        -0.1150 
     11 C11        -0.3146  -15.6705  -49.8175 C.ar      23 UNK        -0.0193 
     12 C12         0.6965  -16.6064  -50.0211 C.ar      23 UNK        -0.1150 
     13 C13         1.8199  -16.6324  -49.1947 C.ar      23 UNK        -0.0193 
     14 C14         1.9696  -15.6527  -48.2082 C.ar      23 UNK        -0.1150 
     15 C15         2.8378  -17.7508  -49.3599 C.3       23 UNK        -0.0205 
     16 S16         2.4097  -19.2281  -48.3752 S.3       23 UNK        -0.2404 
     17 C17         0.6765  -19.5572  -48.8649 C.3       23 UNK        -0.0398 
     18 CA          0.1488  -20.9266  -48.3887 C.3       11 UNK         0.1400 
     19 N           0.1857  -21.0644  -46.9314 N.am      11 UNK        -0.5000 
     20 C           0.0459  -22.2215  -46.2743 C.2       10 UNK         0.5000 
     21 O          -0.1298  -23.3037  -46.8320 O.2       10 UNK        -0.5000 
     22 CA          0.0627  -22.1537  -44.7383 C.3       10 UNK         0.1400 
     23 CB          1.5010  -22.0721  -44.2049 C.3       10 UNK        -0.1800 
     24 N          -0.7169  -21.0255  -44.2305 N.am      10 UNK        -0.5000 
     25 C          -2.0534  -20.9464  -44.2831 C.2       9 UNK         0.5000 
     26 O          -2.7723  -21.8298  -44.7517 O.2       9 UNK        -0.5000 
     27 CA         -2.6864  -19.6418  -43.7621 C.3       9 UNK         0.1400 
     28 CB         -2.7492  -19.6388  -42.2275 C.3       9 UNK        -0.1800 
     29 N          -1.9734  -18.4482  -44.2178 N.am      9 UNK        -0.5000 
     30 C          -1.8674  -18.0774  -45.5015 C.2       8 UNK         0.5000 
     31 O          -2.3958  -18.6806  -46.4312 O.2       8 UNK        -0.5000 
     32 CA         -0.9808  -16.8587  -45.8052 C.3       8 UNK         0.1400 
     33 CB         -1.8007  -15.5666  -45.6739 C.3       8 UNK        -0.1800 
     34 N           0.2163  -16.7842  -44.9613 N.am      8 UNK        -0.5000 
     35 C           1.1554  -17.7400  -44.8799 C.2       7 UNK         0.5000 
     36 O           1.0770  -18.8237  -45.4523 O.2       7 UNK        -0.5000 
     37 CA          2.3695  -17.4617  -43.9813 C.3       7 UNK         0.1400 
     38 CB          3.4977  -16.8181  -44.7993 C.3       7 UNK        -0.1800 
     39 N           2.0325  -16.6134  -42.8382 N.am      7 UNK        -0.5000 
     40 C           1.3036  -17.0309  -41.7929 C.2       6 UNK         0.5000 
     41 O           0.8728  -18.1790  -41.6742 O.2       6 UNK        -0.5000 
     42 CA          0.9658  -15.9793  -40.7228 C.3       6 UNK         0.1400 
     43 CB          2.1978  -15.6469  -39.8682 C.3       6 UNK        -0.1800 
     44 N           0.4293  -14.7468  -41.2977 N.am      6 UNK        -0.5000 
     45 C          -0.7295  -14.6343  -41.9575 C.2       5 UNK         0.5000 
     46 O          -1.4890  -15.5823  -42.1580 O.2       5 UNK        -0.5000 
     47 CA         -1.0994  -13.2428  -42.5150 C.3       5 UNK         0.1400 
     48 CB         -1.8177  -12.3897  -41.4524 C.3       5 UNK        -0.1800 
     49 N           0.0203  -12.5152  -43.1333 N.am      5 UNK        -0.5000 
     50 C           1.1187  -12.0117  -42.5530 C.2       4 UNK         0.5000 
     51 O           1.3345  -12.0312  -41.3389 O.2       4 UNK        -0.5000 
     52 CA          2.1764  -11.4224  -43.5056 C.3       4 UNK         0.1400 
     53 CB          2.0857   -9.8902  -43.5392 C.3       4 UNK        -0.1800 
     54 N           3.5430  -11.8161  -43.1527 N.am      4 UNK        -0.5000 
     55 C           3.9761  -13.0748  -43.0044 C.2       3 UNK         0.5000 
     56 O           3.2672  -14.0678  -43.1796 O.2       3 UNK        -0.5000 
     57 CA          5.4696  -13.2482  -42.6771 C.3       3 UNK         0.1400 
     58 CB          5.7449  -14.5285  -41.8696 C.3       3 UNK        -0.1800 
     59 N           6.2366  -13.2980  -43.9199 N.am      3 UNK        -0.5000 
     60 C           6.6187  -12.2267  -44.6284 C.2       2 UNK         0.5000 
     61 O           6.4216  -11.0675  -44.2640 O.2       2 UNK        -0.5000 
     62 CA          7.2977  -12.4821  -45.9885 C.3       2 UNK         0.1400 
     63 CB          8.8136  -12.2645  -45.8714 C.3       2 UNK        -0.1800 
     64 N           7.0610  -13.8400  -46.4945 N.am      2 UNK        -0.5000 
     65 C           6.0118  -14.3364  -47.1750 C.2       1 UNK         0.5000 
     66 O           5.9086  -15.5492  -47.3471 O.2       1 UNK        -0.5000 
     67 C          -1.2554  -21.2065  -48.9710 C.2       11 UNK         0.5000 
     68 O          -1.3454  -21.6886  -50.1002 O.2       11 UNK        -0.5000 
     69 N          -2.3224  -20.9261  -48.2087 N.am      12 UNK        -0.5000 
     70 CA         -3.6959  -21.3086  -48.5380 C.3       12 UNK         0.1400 
     71 CB         -4.6922  -20.5042  -47.6922 C.3       12 UNK        -0.1800 
     72 C          -3.9218  -22.8181  -48.3675 C.2       12 UNK         0.5000 
     73 O          -4.5191  -23.4399  -49.2446 O.2       12 UNK        -0.5000 
     74 N          -3.4056  -23.3986  -47.2736 N.am      13 UNK        -0.5000 
     75 CA         -3.4419  -24.8411  -47.0187 C.3       13 UNK         0.1400 
     76 CB         -2.8800  -25.1465  -45.6224 C.3       13 UNK        -0.1800 
     77 C          -2.7078  -25.6471  -48.1071 C.2       13 UNK         0.5000 
     78 O          -3.2592  -26.6249  -48.6164 O.2       13 UNK        -0.5000 
     79 N          -1.5113  -25.1734  -48.4854 N.am      14 UNK        -0.5000 
     80 CA         -0.6949  -25.7011  -49.5796 C.3       14 UNK         0.1400 
     81 CB          0.6626  -24.9835  -49.5925 C.3       14 UNK        -0.1800 
     82 C          -1.3735  -25.5879  -50.9575 C.2       14 UNK         0.5000 
     83 O          -1.1916  -26.4729  -51.7944 O.2       14 UNK        -0.5000 
     84 N          -2.1872  -24.5421  -51.1576 N.am      15 UNK        -0.5000 
     85 CA         -3.0205  -24.3147  -52.3403 C.3       15 UNK         0.1400 
     86 CB         -3.3192  -22.8111  -52.4619 C.3       15 UNK        -0.1800 
     87 C          -4.2998  -25.1805  -52.3323 C.2       15 UNK         0.5000 
     88 O          -5.3986  -24.6683  -52.5588 O.2       15 UNK        -0.5000 
     89 N          -4.1214  -26.4854  -52.0812 N.am      16 UNK        -0.5000 
     90 CA         -5.1260  -27.5506  -52.0757 C.3       16 UNK         0.1400 
     91 CB         -5.5795  -27.8452  -53.5210 C.3       16 UNK        -0.1800 
     92 C          -6.3005  -27.2709  -51.1164 C.2       16 UNK         0.5000 
     93 O          -7.4589  -27.3957  -51.5133 O.2       16 UNK        -0.5000 
     94 N          -5.9812  -26.8638  -49.8775 N.am      17 UNK        -0.5000 
     95 CA         -6.9303  -26.4558  -48.8315 C.3       17 UNK         0.1400 
     96 CB         -7.7378  -27.6666  -48.3190 C.3       17 UNK        -0.1800 
     97 C          -7.8188  -25.2744  -49.2802 C.2       17 UNK         0.5000 
     98 O          -9.0403  -25.3079  -49.1236 O.2       17 UNK        -0.5000 
     99 N          -7.1615  -24.2662  -49.8654 N.am      18 UNK        -0.5000 
    100 CA        -7.6914  -23.0316  -50.4436 C.3       18 UNK         0.1400 
    101 CB        -8.4285  -22.1884  -49.3839 C.3       18 UNK        -0.1800 
    102 C         -8.5179  -23.2134  -51.7336 C.2       18 UNK         0.5000 
    103 O         -9.0853  -22.2326  -52.2183 O.2       18 UNK        -0.5000 
    104 N         -8.5492  -24.4236  -52.3133 N.am      19 UNK        -0.5000 
    105 CA        -9.2164  -24.6998  -53.5904 C.3       19 UNK         0.1400 
    106 CB        -9.3521  -26.2139  -53.7993 C.3       19 UNK        -0.1800 
    107 C         -8.5060  -24.0451  -54.7914 C.2       19 UNK         0.5000 
    108 O         -9.1703  -23.7082  -55.7719 O.2       19 UNK        -0.5000 
    109 N         -7.1873  -23.8350  -54.6772 N.am      20 UNK        -0.5000 
    110 CA        -6.3665  -23.0753  -55.6219 C.3       20 UNK         0.1400 
    111 CB        -5.1083  -23.8913  -55.9694 C.3       20 UNK        -0.1800 
    112 C         -6.0377  -21.6707  -55.0689 C.2       20 UNK         0.5000 
    113 O         -5.0128  -21.0939  -55.4347 O.2       20 UNK        -0.5000 
    114 N         -6.9195  -21.1438  -54.2060 N.am      21 UNK        -0.5000 
    115 CA        -6.8763  -19.8410  -53.5418 C.3       21 UNK         0.1400 
    116 CB        -6.8881  -18.6773  -54.5583 C.3       21 UNK        -0.1800 
    117 C         -5.7479  -19.7397  -52.4992 C.2       21 UNK         0.5000 
    118 O         -5.9708  -20.0919  -51.3413 O.2       21 UNK        -0.5000 
    119 N         -4.5831  -19.2231  -52.8997 N.am      22 UNK        -0.5000 
    120 CA        -3.4736  -18.8748  -52.0090 C.3       22 UNK         0.1400 
    121 C         -2.1394  -18.9409  -52.7916 C.2       22 UNK         0.5000 
    122 N         -1.1941  -19.7726  -52.3719 N.am      22 UNK        -0.7600 
    123 O         -1.9511  -18.2261  -53.7730 O.2       22 UNK        -0.5000 
    124 C124       -3.7214  -17.4899  -51.3502 C.3       23 UNK        -0.0398 
    125 S125       -2.6153  -17.1491  -49.9437 S.3       23 UNK        -0.2404 
    126 C126       -1.5989  -15.7933  -50.6155 C.3       23 UNK        -0.0205 
    127 H127        6.2674  -10.2710  -49.8639 H         1 UNK         0.0600 
    128 H128        6.3681  -11.1456  -51.3944 H         1 UNK         0.0600 
    129 H129        7.7731  -11.0691  -50.3255 H         1 UNK         0.0600 
    130 H130        5.1395  -11.3975  -48.3304 H         1 UNK         0.3000 
    131 H131        4.3745  -14.0606  -48.4941 H         1 UNK         0.0600 
    132 H132        3.6621  -13.7503  -46.0349 H         1 UNK         0.0800 
    133 H133        4.3174  -12.1440  -46.1306 H         1 UNK         0.0800 
    134 H134        0.2013  -13.0805  -46.8154 H         1 UNK         0.0800 
    135 H135        1.4224  -14.0353  -46.0246 H         1 UNK         0.0800 
    136 H136       -0.9294  -13.9464  -48.6945 H         1 UNK         0.1150 
    137 H137        0.5689  -17.3630  -50.7823 H         1 UNK         0.1150 
    138 H138        2.8379  -15.6722  -47.5666 H         1 UNK         0.1150 
    139 H139        2.9185  -18.0314  -50.4111 H         1 UNK         0.0800 
    140 H140        3.8270  -17.4004  -49.0604 H         1 UNK         0.0800 
    141 H141        0.6201  -19.4988  -49.9527 H         1 UNK         0.0800 
    142 H142        0.0430  -18.7625  -48.4671 H         1 UNK         0.0800 
    143 H143        0.8129  -21.6896  -48.7997 H         1 UNK         0.0600 
    144 H144        0.3917  -20.2194  -46.4007 H         1 UNK         0.3000 
    145 H145       -0.3851  -23.0745  -44.3589 H         1 UNK         0.0600 
    146 H146        1.5180  -22.0755  -43.1150 H         1 UNK         0.0600 
    147 H147        2.0889  -22.9267  -44.5422 H         1 UNK         0.0600 
    148 H148        2.0109  -21.1704  -44.5451 H         1 UNK         0.0600 
    149 H149       -0.1960  -20.2269  -43.8964 H         1 UNK         0.3000 
    150 H150       -3.7073  -19.5912  -44.1466 H         1 UNK         0.0600 
    151 H151       -3.2865  -20.5126  -41.8566 H         1 UNK         0.0600 
    152 H152       -3.2693  -18.7552  -41.8568 H         1 UNK         0.0600 
    153 H153       -1.7530  -19.6507  -41.7830 H         1 UNK         0.0600 
    154 H154       -1.5067  -17.8923  -43.5139 H         1 UNK         0.3000 
    155 H155       -0.6408  -16.9452  -46.8392 H         1 UNK         0.0600 
    156 H156       -2.2794  -15.4884  -44.6981 H         1 UNK         0.0600 
    157 H157       -2.5908  -15.5380  -46.4254 H         1 UNK         0.0600 
    158 H158       -1.1868  -14.6807  -45.8168 H         1 UNK         0.0600 
    159 H159        0.3401  -15.9494  -44.4106 H         1 UNK         0.3000 
    160 H160        2.7309  -18.4212  -43.6052 H         1 UNK         0.0600 
    161 H161        4.3940  -16.6761  -44.1969 H         1 UNK         0.0600 
    162 H162        3.1989  -15.8481  -45.1923 H         1 UNK         0.0600 
    163 H163        3.7724  -17.4444  -45.6495 H         1 UNK         0.0600 
    164 H164        2.3739  -15.6542  -42.8656 H         1 UNK         0.3000 
    165 H165        0.2021  -16.4043  -40.0682 H         1 UNK         0.0600 
    166 H166        1.9376  -14.9809  -39.0454 H         1 UNK         0.0600 
    167 H167        2.6293  -16.5494  -39.4334 H         1 UNK         0.0600 
    168 H168        2.9742  -15.1602  -40.4582 H         1 UNK         0.0600 
    169 H169        0.9824  -13.9024  -41.1823 H         1 UNK         0.3000 
    170 H170       -1.8133  -13.4145  -43.3219 H         1 UNK         0.0600 
    171 H171       -2.7179  -12.8926  -41.0971 H         1 UNK         0.0600 
    172 H172       -1.1887  -12.2016  -40.5820 H         1 UNK         0.0600 
    173 H173       -2.1234  -11.4265  -41.8606 H         1 UNK         0.0600 
    174 H174       -0.0456  -12.4360  -44.1377 H         1 UNK         0.3000 
    175 H175        1.9841  -11.7984  -44.5112 H         1 UNK         0.0600 
    176 H176        2.3095   -9.4537  -42.5650 H         1 UNK         0.0600 
    177 H177        2.7822   -9.4697  -44.2649 H         1 UNK         0.0600 
    178 H178        1.0847   -9.5635  -43.8239 H         1 UNK         0.0600 
    179 H179        4.2064  -11.0645  -43.0258 H         1 UNK         0.3000 
    180 H180        5.7978  -12.3978  -42.0755 H         1 UNK         0.0600 
    181 H181        5.4317  -15.4266  -42.4023 H         1 UNK         0.0600 
    182 H182        5.2145  -14.5074  -40.9176 H         1 UNK         0.0600 
    183 H183        6.8066  -14.6289  -41.6438 H         1 UNK         0.0600 
    184 H184        6.4092  -14.2158  -44.3028 H         1 UNK         0.3000 
    185 H185        6.9204  -11.7340  -46.6816 H         1 UNK         0.0600 
    186 H186        9.3032  -12.3814  -46.8385 H         1 UNK         0.0600 
    187 H187        9.2712  -12.9689  -45.1757 H         1 UNK         0.0600 
    188 H188        9.0390  -11.2582  -45.5152 H         1 UNK         0.0600 
    189 H189        7.7580  -14.5094  -46.2034 H         1 UNK         0.3000 
    190 H190       -2.1914  -20.4154  -47.3410 H         1 UNK         0.3000 
    191 H191       -3.8848  -21.0696  -49.5841 H         1 UNK         0.0600 
    192 H192       -4.5375  -20.6610  -46.6243 H         1 UNK         0.0600 
    193 H193       -5.7190  -20.7883  -47.9248 H         1 UNK         0.0600 
    194 H194       -4.6000  -19.4365  -47.8927 H         1 UNK         0.0600 
    195 H195       -2.9595  -22.8209  -46.5693 H         1 UNK         0.3000 
    196 H196       -4.4883  -25.1463  -47.0269 H         1 UNK         0.0600 
    197 H197       -2.9408  -26.2132  -45.4036 H         1 UNK         0.0600 
    198 H198       -3.4426  -24.6234  -44.8489 H         1 UNK         0.0600 
    199 H199       -1.8349  -24.8531  -45.5301 H         1 UNK         0.0600 
    200 H200       -1.1176  -24.3905  -47.9674 H         1 UNK         0.3000 
    201 H201       -0.5216  -26.7607  -49.3816 H         1 UNK         0.0600 
    202 H202        1.1829  -25.1040  -48.6421 H         1 UNK         0.0600 
    203 H203        0.5481  -23.9155  -49.7793 H         1 UNK         0.0600 
    204 H204        1.3107  -25.3860  -50.3719 H         1 UNK         0.0600 
    205 H205       -2.2907  -23.8666  -50.4123 H         1 UNK         0.3000 
    206 H206       -2.4517  -24.6048  -53.2258 H         1 UNK         0.0600 
    207 H207       -2.3964  -22.2383  -52.5274 H         1 UNK         0.0600 
    208 H208       -3.8896  -22.5906  -53.3614 H         1 UNK         0.0600 
    209 H209       -3.8925  -22.4372  -51.6145 H         1 UNK         0.0600 
    210 H210       -3.1672  -26.7829  -51.9065 H         1 UNK         0.3000 
    211 H211       -4.6308  -28.4448  -51.6951 H         1 UNK         0.0600 
    212 H212       -6.0484  -26.9760  -53.9826 H         1 UNK         0.0600 
    213 H213       -6.2982  -28.6648  -53.5515 H         1 UNK         0.0600 
    214 H214       -4.7339  -28.1345  -54.1448 H         1 UNK         0.0600 
    215 H215       -4.9982  -26.7775  -49.6354 H         1 UNK         0.3000 
    216 H216       -6.3339  -26.0882  -47.9975 H         1 UNK         0.0600 
    217 H217       -8.3575  -27.3880  -47.4659 H         1 UNK         0.0600 
    218 H218       -7.0774  -28.4694  -47.9913 H         1 UNK         0.0600 
    219 H219       -8.4007  -28.0691  -49.0854 H         1 UNK         0.0600 
    220 H220       -6.1483  -24.3292  -49.9120 H         1 UNK         0.3000 
    221 H221       -6.8067  -22.4722  -50.7464 H         1 UNK         0.0600 
    222 H222       -9.3757  -22.6418  -49.0913 H         1 UNK         0.0600 
    223 H223       -7.8219  -22.0647  -48.4871 H         1 UNK         0.0600 
    224 H224       -8.6477  -21.1903  -49.7649 H         1 UNK         0.0600 
    225 H225       -8.0439  -25.1887  -51.8835 H         1 UNK         0.3000 
    226 H226      -10.2236  -24.2811  -53.5369 H         1 UNK         0.0600 
    227 H227       -9.8557  -26.6869  -52.9560 H         1 UNK         0.0600 
    228 H228       -9.9380  -26.4318  -54.6930 H         1 UNK         0.0600 
    229 H229       -8.3814  -26.6919  -53.9231 H         1 UNK         0.0600 
    230 H230       -6.7117  -24.1432  -53.8309 H         1 UNK         0.3000 
    231 H231       -6.9149  -22.9156  -56.5521 H         1 UNK         0.0600 
    232 H232       -5.3747  -24.8703  -56.3679 H         1 UNK         0.0600 
    233 H233       -4.4716  -24.0493  -55.1012 H         1 UNK         0.0600 
    234 H234       -4.5092  -23.3865  -56.7280 H         1 UNK         0.0600 
    235 H235       -7.7064  -21.7206  -53.9369 H         1 UNK         0.3000 
    236 H236       -7.8082  -19.7708  -52.9783 H         1 UNK         0.0600 
    237 H237       -6.9033  -17.7151  -54.0450 H         1 UNK         0.0600 
    238 H238       -6.0195  -18.6812  -55.2165 H         1 UNK         0.0600 
    239 H239       -7.7774  -18.7204  -55.1871 H         1 UNK         0.0600 
    240 H240       -4.4347  -19.0282  -53.8812 H         1 UNK         0.3000 
    241 H241       -3.4266  -19.6246  -51.2195 H         1 UNK         0.0600 
    242 H242       -0.3290  -19.8163  -52.8859 H         1 UNK         0.3800 
    243 H243       -1.3420  -20.4080  -51.5946 H         1 UNK         0.3800 
    244 H244       -3.6594  -16.6895  -52.0895 H         1 UNK         0.0800 
    245 H245       -4.7371  -17.4457  -50.9553 H         1 UNK         0.0800 
    246 H246       -2.1664  -14.8619  -50.5920 H         1 UNK         0.0800 
    247 H247       -1.3555  -15.9899  -51.6611 H         1 UNK         0.0800 
@<TRIPOS>BOND
     1    1    2 1    
     2    1  127 1    
     3    1  128 1    
     4    1  129 1    
     5    2    3 2    
     6    2    4 am   BACKBONE|DICT|INTERRES
     7    4    5 1    
     8    4  130 1    
     9    5    6 1    
    10    5   65 1    
    11    5  131 1    
    12    6    7 1    
    13    6  132 1    
    14    6  133 1    
    15    7    8 1    
    16    8    9 1    
    17    8  134 1    
    18    8  135 1    
    19    9   10 ar   
    20    9   14 ar   
    21   10   11 ar   
    22   10  136 1    
    23   11   12 ar   
    24   11  126 1    
    25   12   13 ar   
    26   12  137 1    
    27   13   14 ar   
    28   13   15 1    
    29   14  138 1    
    30   15   16 1    
    31   15  139 1    
    32   15  140 1    
    33   16   17 1    
    34   17   18 1    
    35   17  141 1    
    36   17  142 1    
    37   18   19 1    
    38   18   67 1    
    39   18  143 1    
    40   19   20 am   BACKBONE|DICT|INTERRES
    41   19  144 1    
    42   20   21 2    
    43   20   22 1    
    44   22   23 1    
    45   22   24 1    
    46   22  145 1    
    47   23  146 1    
    48   23  147 1    
    49   23  148 1    
    50   24   25 am   BACKBONE|DICT|INTERRES
    51   24  149 1    
    52   25   26 2    
    53   25   27 1    
    54   27   28 1    
    55   27   29 1    
    56   27  150 1    
    57   28  151 1    
    58   28  152 1    
    59   28  153 1    
    60   29   30 am   BACKBONE|DICT|INTERRES
    61   29  154 1    
    62   30   31 2    
    63   30   32 1    
    64   32   33 1    
    65   32   34 1    
    66   32  155 1    
    67   33  156 1    
    68   33  157 1    
    69   33  158 1    
    70   34   35 am   BACKBONE|DICT|INTERRES
    71   34  159 1    
    72   35   36 2    
    73   35   37 1    
    74   37   38 1    
    75   37   39 1    
    76   37  160 1    
    77   38  161 1    
    78   38  162 1    
    79   38  163 1    
    80   39   40 am   BACKBONE|DICT|INTERRES
    81   39  164 1    
    82   40   41 2    
    83   40   42 1    
    84   42   43 1    
    85   42   44 1    
    86   42  165 1    
    87   43  166 1    
    88   43  167 1    
    89   43  168 1    
    90   44   45 am   BACKBONE|DICT|INTERRES
    91   44  169 1    
    92   45   46 2    
    93   45   47 1    
    94   47   48 1    
    95   47   49 1    
    96   47  170 1    
    97   48  171 1    
    98   48  172 1    
    99   48  173 1    
   100   49   50 am   BACKBONE|DICT|INTERRES
   101   49  174 1    
   102   50   51 2    
   103   50   52 1    
   104   52   53 1    
   105   52   54 1    
   106   52  175 1    
   107   53  176 1    
   108   53  177 1    
   109   53  178 1    
   110   54   55 am   BACKBONE|DICT|INTERRES
   111   54  179 1    
   112   55   56 2    
   113   55   57 1    
   114   57   58 1    
   115   57   59 1    
   116   57  180 1    
   117   58  181 1    
   118   58  182 1    
   119   58  183 1    
   120   59   60 am   BACKBONE|DICT|INTERRES
   121   59  184 1    
   122   60   61 2    
   123   60   62 1    
   124   62   63 1    
   125   62   64 1    
   126   62  185 1    
   127   63  186 1    
   128   63  187 1    
   129   63  188 1    
   130   64   65 am   BACKBONE|DICT|INTERRES
   131   64  189 1    
   132   65   66 2    
   133   67   68 2    
   134   67   69 am   BACKBONE|DICT|INTERRES
   135   69   70 1    
   136   69  190 1    
   137   70   71 1    
   138   70   72 1    
   139   70  191 1    
   140   71  192 1    
   141   71  193 1    
   142   71  194 1    
   143   72   73 2    
   144   72   74 am   BACKBONE|DICT|INTERRES
   145   74   75 1    
   146   74  195 1    
   147   75   76 1    
   148   75   77 1    
   149   75  196 1    
   150   76  197 1    
   151   76  198 1    
   152   76  199 1    
   153   77   78 2    
   154   77   79 am   BACKBONE|DICT|INTERRES
   155   79   80 1    
   156   79  200 1    
   157   80   81 1    
   158   80   82 1    
   159   80  201 1    
   160   81  202 1    
   161   81  203 1    
   162   81  204 1    
   163   82   83 2    
   164   82   84 am   BACKBONE|DICT|INTERRES
   165   84   85 1    
   166   84  205 1    
   167   85   86 1    
   168   85   87 1    
   169   85  206 1    
   170   86  207 1    
   171   86  208 1    
   172   86  209 1    
   173   87   88 2    
   174   87   89 am   BACKBONE|DICT|INTERRES
   175   89   90 1    
   176   89  210 1    
   177   90   91 1    
   178   90   92 1    
   179   90  211 1    
   180   91  212 1    
   181   91  213 1    
   182   91  214 1    
   183   92   93 2    
   184   92   94 am   BACKBONE|DICT|INTERRES
   185   94   95 1    
   186   94  215 1    
   187   95   96 1    
   188   95   97 1    
   189   95  216 1    
   190   96  217 1    
   191   96  218 1    
   192   96  219 1    
   193   97   98 2    
   194   97   99 am   BACKBONE|DICT|INTERRES
   195   99  100 1    
   196   99  220 1    
   197  100  101 1    
   198  100  102 1    
   199  100  221 1    
   200  101  222 1    
   201  101  223 1    
   202  101  224 1    
   203  102  103 2    
   204  102  104 am   BACKBONE|DICT|INTERRES
   205  104  105 1    
   206  104  225 1    
   207  105  106 1    
   208  105  107 1    
   209  105  226 1    
   210  106  227 1    
   211  106  228 1    
   212  106  229 1    
   213  107  108 2    
   214  107  109 am   BACKBONE|DICT|INTERRES
   215  109  110 1    
   216  109  230 1    
   217  110  111 1    
   218  110  112 1    
   219  110  231 1    
   220  111  232 1    
   221  111  233 1    
   222  111  234 1    
   223  112  113 2    
   224  112  114 am   BACKBONE|DICT|INTERRES
   225  114  115 1    
   226  114  235 1    
   227  115  116 1    
   228  115  117 1    
   229  115  236 1    
   230  116  237 1    
   231  116  238 1    
   232  116  239 1    
   233  117  118 2    
   234  117  119 am   BACKBONE|DICT|INTERRES
   235  119  120 1    
   236  119  240 1    
   237  120  121 1    
   238  120  124 1    
   239  120  241 1    
   240  121  122 am   BACKBONE|DICT|INTERRES
   241  121  123 2    
   242  122  242 1    
   243  122  243 1    
   244  124  125 1    
   245  124  244 1    
   246  124  245 1    
   247  125  126 1    
   248  126  246 1    
   249  126  247 1    
@<TRIPOS>SUBSTRUCTURE
     1 UNK         1 GROUP             0       ****    0 ROOT    
