@<TRIPOS>MOLECULE
3R540
247   249    1
SMALL
USER_CHARGES


@<TRIPOS>ATOM
      1 CA          0.1523  -10.7115  -49.3622 C.3       0 UNK        -0.1800 
      2 C           1.1422  -11.8602  -49.4936 C.2       0 UNK         0.5000 
      3 O           2.3151  -11.6283  -49.7870 O.2       0 UNK        -0.5000 
      4 N           0.6750  -13.0963  -49.2763 N.am      1 UNK        -0.5000 
      5 CA          1.4772  -14.3262  -49.3519 C.3       1 UNK         0.1400 
      6 C6          0.5883  -15.5892  -49.4410 C.3       23 UNK        -0.0398 
      7 S7         -0.3864  -15.6241  -50.9812 S.3       23 UNK        -0.2404 
      8 C8          0.6974  -16.5952  -52.0762 C.3       23 UNK        -0.0205 
      9 C9          0.6747  -18.0761  -51.7306 C.ar      23 UNK        -0.0193 
     10 C10        -0.3843  -18.8763  -52.1695 C.ar      23 UNK        -0.1150 
     11 C11        -0.4172  -20.2380  -51.8596 C.ar      23 UNK        -0.0193 
     12 C12         0.6097  -20.7909  -51.0926 C.ar      23 UNK        -0.1150 
     13 C13         1.6810  -20.0086  -50.6573 C.ar      23 UNK        -0.0193 
     14 C14         1.7133  -18.6508  -50.9892 C.ar      23 UNK        -0.1150 
     15 C15         2.8116  -20.6537  -49.8644 C.3       23 UNK        -0.0205 
     16 S16         3.1247  -19.8709  -48.2477 S.3       23 UNK        -0.2404 
     17 C17         1.5046  -19.9697  -47.4193 C.3       23 UNK        -0.0398 
     18 CA          1.1758  -21.3770  -46.8420 C.3       11 UNK         0.1400 
     19 N           0.7410  -21.3125  -45.4412 N.am      11 UNK        -0.5000 
     20 C           0.4574  -22.3667  -44.6616 C.2       10 UNK         0.5000 
     21 O           0.6167  -23.5369  -45.0070 O.2       10 UNK        -0.5000 
     22 CA         -0.1713  -22.0650  -43.2873 C.3       10 UNK         0.1400 
     23 CB          0.9075  -21.7618  -42.2374 C.3       10 UNK        -0.1800 
     24 N          -1.1400  -20.9672  -43.3466 N.am      10 UNK        -0.5000 
     25 C          -2.2911  -21.0215  -44.0328 C.2       9 UNK         0.5000 
     26 O          -2.6861  -22.0319  -44.6117 O.2       9 UNK        -0.5000 
     27 CA         -3.1173  -19.7270  -44.1381 C.3       9 UNK         0.1400 
     28 CB         -4.0207  -19.5539  -42.9087 C.3       9 UNK        -0.1800 
     29 N          -2.2854  -18.5369  -44.3176 N.am      9 UNK        -0.5000 
     30 C          -1.5070  -18.3013  -45.3838 C.2       8 UNK         0.5000 
     31 O          -1.4537  -19.0405  -46.3671 O.2       8 UNK        -0.5000 
     32 CA         -0.5833  -17.0699  -45.3086 C.3       8 UNK         0.1400 
     33 CB         -1.3323  -15.7845  -45.6879 C.3       8 UNK        -0.1800 
     34 N           0.0273  -16.9180  -43.9859 N.am      8 UNK        -0.5000 
     35 C           0.8978  -17.7893  -43.4552 C.2       7 UNK         0.5000 
     36 O           1.3209  -18.7758  -44.0559 O.2       7 UNK        -0.5000 
     37 CA          1.3190  -17.5585  -41.9931 C.3       7 UNK         0.1400 
     38 CB          2.4886  -16.5701  -41.8852 C.3       7 UNK        -0.1800 
     39 N           0.2036  -17.0907  -41.1731 N.am      7 UNK        -0.5000 
     40 C          -0.8231  -17.8629  -40.7926 C.2       6 UNK         0.5000 
     41 O          -0.9111  -19.0608  -41.0605 O.2       6 UNK        -0.5000 
     42 CA         -1.9589  -17.1683  -40.0192 C.3       6 UNK         0.1400 
     43 CB         -1.6305  -17.1014  -38.5204 C.3       6 UNK        -0.1800 
     44 N          -2.2331  -15.8186  -40.5163 N.am      6 UNK        -0.5000 
     45 C          -2.7288  -15.5460  -41.7317 C.2       5 UNK         0.5000 
     46 O          -3.0436  -16.4091  -42.5487 O.2       5 UNK        -0.5000 
     47 CA         -2.8428  -14.0606  -42.1187 C.3       5 UNK         0.1400 
     48 CB         -4.1927  -13.4865  -41.6642 C.3       5 UNK        -0.1800 
     49 N          -1.7565  -13.2396  -41.5776 N.am      5 UNK        -0.5000 
     50 C          -0.4640  -13.3821  -41.8968 C.2       4 UNK         0.5000 
     51 O          -0.0364  -14.2433  -42.6708 O.2       4 UNK        -0.5000 
     52 CA          0.5161  -12.4413  -41.1882 C.3       4 UNK         0.1400 
     53 CB          0.9893  -13.0565  -39.8608 C.3       4 UNK        -0.1800 
     54 N           1.6691  -12.2152  -42.0516 N.am      4 UNK        -0.5000 
     55 C           2.2918  -11.0430  -42.2211 C.2       3 UNK         0.5000 
     56 O           1.9747  -10.0132  -41.6235 O.2       3 UNK        -0.5000 
     57 CA          3.4767  -10.9983  -43.2095 C.3       3 UNK         0.1400 
     58 CB          4.8026  -10.8385  -42.4480 C.3       3 UNK        -0.1800 
     59 N           3.5805  -12.1714  -44.0820 N.am      3 UNK        -0.5000 
     60 C           2.7661  -12.4396  -45.1093 C.2       2 UNK         0.5000 
     61 O           1.8093  -11.7303  -45.4337 O.2       2 UNK        -0.5000 
     62 CA          3.0720  -13.7264  -45.8891 C.3       2 UNK         0.1400 
     63 CB          2.8244  -14.9749  -45.0267 C.3       2 UNK        -0.1800 
     64 N           2.2271  -13.7702  -47.0740 N.am      2 UNK        -0.5000 
     65 C           2.4811  -14.4645  -48.1877 C.2       1 UNK         0.5000 
     66 O           3.4632  -15.1951  -48.3247 O.2       1 UNK        -0.5000 
     67 C           0.1313  -22.1045  -47.7154 C.2       11 UNK         0.5000 
     68 O           0.4743  -23.0458  -48.4327 O.2       11 UNK        -0.5000 
     69 N          -1.1337  -21.6765  -47.5950 N.am      12 UNK        -0.5000 
     70 CA         -2.2865  -22.2625  -48.2760 C.3       12 UNK         0.1400 
     71 CB         -3.5354  -21.4152  -47.9905 C.3       12 UNK        -0.1800 
     72 C          -2.5252  -23.7359  -47.9026 C.2       12 UNK         0.5000 
     73 O          -2.7739  -24.5538  -48.7872 O.2       12 UNK        -0.5000 
     74 N          -2.4090  -24.0594  -46.6077 N.am      13 UNK        -0.5000 
     75 CA         -2.5213  -25.4184  -46.0780 C.3       13 UNK         0.1400 
     76 CB         -2.5411  -25.3748  -44.5429 C.3       13 UNK        -0.1800 
     77 C          -1.4078  -26.3540  -46.5834 C.2       13 UNK         0.5000 
     78 O          -1.6929  -27.5074  -46.9062 O.2       13 UNK        -0.5000 
     79 N          -0.1727  -25.8390  -46.6690 N.am      14 UNK        -0.5000 
     80 CA          0.9896  -26.5547  -47.1973 C.3       14 UNK         0.1400 
     81 CB          2.2699  -25.7671  -46.8788 C.3       14 UNK        -0.1800 
     82 C           0.8789  -26.8349  -48.7074 C.2       14 UNK         0.5000 
     83 O           1.2088  -27.9379  -49.1454 O.2       14 UNK        -0.5000 
     84 N           0.4006  -25.8432  -49.4712 N.am      15 UNK        -0.5000 
     85 CA          0.1502  -25.9567  -50.9105 C.3       15 UNK         0.1400 
     86 CB          0.0425  -24.5480  -51.5054 C.3       15 UNK        -0.1800 
     87 C          -1.1087  -26.7775  -51.2536 C.2       15 UNK         0.5000 
     88 O          -1.1964  -27.3081  -52.3615 O.2       15 UNK        -0.5000 
     89 N          -2.0515  -26.8533  -50.3045 N.am      16 UNK        -0.5000 
     90 CA         -3.3774  -27.4686  -50.3939 C.3       16 UNK         0.1400 
     91 CB         -3.2757  -28.9903  -50.6293 C.3       16 UNK        -0.1800 
     92 C          -4.2938  -26.7452  -51.4038 C.2       16 UNK         0.5000 
     93 O          -5.0399  -27.3934  -52.1407 O.2       16 UNK        -0.5000 
     94 N          -4.2282  -25.4087  -51.4117 N.am      17 UNK        -0.5000 
     95 CA         -5.0314  -24.5215  -52.2480 C.3       17 UNK         0.1400 
     96 CB         -4.4273  -24.4319  -53.6595 C.3       17 UNK        -0.1800 
     97 C          -5.0827  -23.1421  -51.5802 C.2       17 UNK         0.5000 
     98 O          -4.1076  -22.7479  -50.9421 O.2       17 UNK        -0.5000 
     99 N          -6.2102  -22.4352  -51.7270 N.am      18 UNK        -0.5000 
    100 CA        -6.4596  -21.1304  -51.1089 C.3       18 UNK         0.1400 
    101 CB        -7.9157  -20.7196  -51.3753 C.3       18 UNK        -0.1800 
    102 C         -5.5014  -20.0387  -51.6177 C.2       18 UNK         0.5000 
    103 O         -5.2895  -19.9358  -52.8275 O.2       18 UNK        -0.5000 
    104 N         -4.9899  -19.2111  -50.6949 N.am      19 UNK        -0.5000 
    105 CA        -4.0186  -18.1354  -50.9427 C.3       19 UNK         0.1400 
    106 CB        -3.6264  -17.4940  -49.6008 C.3       19 UNK        -0.1800 
    107 C         -4.4798  -17.0525  -51.9405 C.2       19 UNK         0.5000 
    108 O         -3.6412  -16.3589  -52.5142 O.2       19 UNK        -0.5000 
    109 N         -5.7989  -16.9381  -52.1421 N.am      20 UNK        -0.5000 
    110 CA        -6.4419  -16.0120  -53.0729 C.3       20 UNK         0.1400 
    111 CB        -7.9571  -16.0382  -52.8166 C.3       20 UNK        -0.1800 
    112 C         -6.1467  -16.2879  -54.5627 C.2       20 UNK         0.5000 
    113 O         -6.3315  -15.3803  -55.3755 O.2       20 UNK        -0.5000 
    114 N         -5.7129  -17.5096  -54.9075 N.am      21 UNK        -0.5000 
    115 CA        -5.4139  -17.9030  -56.2875 C.3       21 UNK         0.1400 
    116 CB        -6.7033  -18.3591  -56.9939 C.3       21 UNK        -0.1800 
    117 C         -4.3312  -18.9885  -56.3838 C.2       21 UNK         0.5000 
    118 O         -3.5284  -18.9529  -57.3168 O.2       21 UNK        -0.5000 
    119 N         -4.3264  -19.9352  -55.4371 N.am      22 UNK        -0.5000 
    120 CA        -3.4293  -21.0997  -55.3812 C.3       22 UNK         0.1400 
    121 C         -3.6059  -22.1273  -56.5446 C.2       22 UNK         0.5000 
    122 N         -4.7554  -22.1697  -57.2079 N.am      22 UNK        -0.7600 
    123 O         -2.7100  -22.9120  -56.8425 O.2       22 UNK        -0.5000 
    124 C124       -1.9519  -20.6997  -55.1038 C.3       23 UNK        -0.0398 
    125 S125       -1.1451  -21.8731  -53.9636 S.3       23 UNK        -0.2404 
    126 C126       -1.5457  -21.1265  -52.3544 C.3       23 UNK        -0.0205 
    127 H127       -0.8512  -11.0658  -49.1251 H         1 UNK         0.0600 
    128 H128        0.1028  -10.1497  -50.2950 H         1 UNK         0.0600 
    129 H129        0.4694  -10.0332  -48.5700 H         1 UNK         0.0600 
    130 H130       -0.3042  -13.2252  -49.0649 H         1 UNK         0.3000 
    131 H131        2.0760  -14.2741  -50.2640 H         1 UNK         0.0600 
    132 H132        1.1872  -16.4977  -49.3756 H         1 UNK         0.0800 
    133 H133       -0.1024  -15.6311  -48.5978 H         1 UNK         0.0800 
    134 H134        1.7141  -16.2018  -52.0326 H         1 UNK         0.0800 
    135 H135        0.3640  -16.4606  -53.1062 H         1 UNK         0.0800 
    136 H136       -1.1778  -18.4351  -52.7557 H         1 UNK         0.1150 
    137 H137        0.5811  -21.8410  -50.8471 H         1 UNK         0.1150 
    138 H138        2.5452  -18.0426  -50.6623 H         1 UNK         0.1150 
    139 H139        2.6163  -21.7153  -49.7042 H         1 UNK         0.0800 
    140 H140        3.7249  -20.6015  -50.4581 H         1 UNK         0.0800 
    141 H141        0.7283  -19.5897  -48.0867 H         1 UNK         0.0800 
    142 H142        1.5507  -19.2356  -46.6159 H         1 UNK         0.0800 
    143 H143        2.0811  -21.9876  -46.8480 H         1 UNK         0.0600 
    144 H144        0.6366  -20.3851  -45.0430 H         1 UNK         0.3000 
    145 H145       -0.7064  -22.9603  -42.9648 H         1 UNK         0.0600 
    146 H146        0.4652  -21.5868  -41.2565 H         1 UNK         0.0600 
    147 H147        1.5980  -22.6001  -42.1383 H         1 UNK         0.0600 
    148 H148        1.4967  -20.8842  -42.5002 H         1 UNK         0.0600 
    149 H149       -0.9125  -20.1236  -42.8323 H         1 UNK         0.3000 
    150 H150       -3.7595  -19.8148  -45.0164 H         1 UNK         0.0600 
    151 H151       -4.6685  -20.4212  -42.7756 H         1 UNK         0.0600 
    152 H152       -4.6644  -18.6803  -43.0128 H         1 UNK         0.0600 
    153 H153       -3.4401  -19.4346  -41.9944 H         1 UNK         0.0600 
    154 H154       -2.3275  -17.8397  -43.5792 H         1 UNK         0.3000 
    155 H155        0.2207  -17.2126  -46.0334 H         1 UNK         0.0600 
    156 H156       -2.1464  -15.5729  -44.9953 H         1 UNK         0.0600 
    157 H157       -1.7655  -15.8661  -46.6855 H         1 UNK         0.0600 
    158 H158       -0.6623  -14.9243  -45.6906 H         1 UNK         0.0600 
    159 H159       -0.2344  -16.0992  -43.4468 H         1 UNK         0.3000 
    160 H160        1.6587  -18.5172  -41.5953 H         1 UNK         0.0600 
    161 H161        2.2032  -15.5660  -42.1955 H         1 UNK         0.0600 
    162 H162        3.3253  -16.8867  -42.5091 H         1 UNK         0.0600 
    163 H163        2.8545  -16.5079  -40.8603 H         1 UNK         0.0600 
    164 H164        0.1767  -16.1051  -40.9595 H         1 UNK         0.3000 
    165 H165       -2.8631  -17.7674  -40.1450 H         1 UNK         0.0600 
    166 H166       -2.4605  -16.6794  -37.9535 H         1 UNK         0.0600 
    167 H167       -1.4372  -18.0971  -38.1190 H         1 UNK         0.0600 
    168 H168       -0.7468  -16.4919  -38.3269 H         1 UNK         0.0600 
    169 H169       -2.0049  -15.0491  -39.9046 H         1 UNK         0.3000 
    170 H170       -2.7962  -13.9990  -43.2078 H         1 UNK         0.0600 
    171 H171       -5.0208  -14.0687  -42.0708 H         1 UNK         0.0600 
    172 H172       -4.2892  -13.4927  -40.5778 H         1 UNK         0.0600 
    173 H173       -4.3204  -12.4597  -42.0075 H         1 UNK         0.0600 
    174 H174       -2.0240  -12.5161  -40.9255 H         1 UNK         0.3000 
    175 H175        0.0014  -11.4990  -40.9886 H         1 UNK         0.0600 
    176 H176        1.5059  -14.0044  -40.0172 H         1 UNK         0.0600 
    177 H177        1.6740  -12.3865  -39.3405 H         1 UNK         0.0600 
    178 H178        0.1491  -13.2445  -39.1914 H         1 UNK         0.0600 
    179 H179        1.9319  -13.0020  -42.6286 H         1 UNK         0.3000 
    180 H180        3.3379  -10.1164  -43.8385 H         1 UNK         0.0600 
    181 H181        5.0025  -11.6964  -41.8047 H         1 UNK         0.0600 
    182 H182        4.7871   -9.9505  -41.8146 H         1 UNK         0.0600 
    183 H183        5.6422  -10.7292  -43.1347 H         1 UNK         0.0600 
    184 H184        4.3389  -12.8072  -43.8806 H         1 UNK         0.3000 
    185 H185        4.1191  -13.6937  -46.1976 H         1 UNK         0.0600 
    186 H186        2.9561  -15.8952  -45.5961 H         1 UNK         0.0600 
    187 H187        3.5205  -15.0144  -44.1894 H         1 UNK         0.0600 
    188 H188        1.8133  -14.9738  -44.6218 H         1 UNK         0.0600 
    189 H189        1.4424  -13.1307  -47.0489 H         1 UNK         0.3000 
    190 H190       -1.3171  -20.8694  -47.0053 H         1 UNK         0.3000 
    191 H191       -2.0821  -22.2234  -49.3461 H         1 UNK         0.0600 
    192 H192       -3.7549  -21.3607  -46.9255 H         1 UNK         0.0600 
    193 H193       -4.4144  -21.8341  -48.4798 H         1 UNK         0.0600 
    194 H194       -3.4086  -20.3994  -48.3590 H         1 UNK         0.0600 
    195 H195       -2.2689  -23.3148  -45.9294 H         1 UNK         0.3000 
    196 H196       -3.4755  -25.8269  -46.4169 H         1 UNK         0.0600 
    197 H197       -2.6586  -26.3754  -44.1252 H         1 UNK         0.0600 
    198 H198       -3.3702  -24.7694  -44.1762 H         1 UNK         0.0600 
    199 H199       -1.6181  -24.9572  -44.1406 H         1 UNK         0.0600 
    200 H200       -0.0107  -24.8942  -46.3335 H         1 UNK         0.3000 
    201 H201        1.0511  -27.5174  -46.6856 H         1 UNK         0.0600 
    202 H202        2.3963  -25.6407  -45.8035 H         1 UNK         0.0600 
    203 H203        2.2581  -24.7753  -47.3314 H         1 UNK         0.0600 
    204 H204        3.1526  -26.2883  -47.2513 H         1 UNK         0.0600 
    205 H205        0.2083  -24.9433  -49.0406 H         1 UNK         0.3000 
    206 H206        1.0034  -26.4561  -51.3742 H         1 UNK         0.0600 
    207 H207        0.9814  -24.0074  -51.3905 H         1 UNK         0.0600 
    208 H208       -0.1831  -24.5837  -52.5720 H         1 UNK         0.0600 
    209 H209       -0.7463  -23.9730  -51.0196 H         1 UNK         0.0600 
    210 H210       -1.9036  -26.2984  -49.4693 H         1 UNK         0.3000 
    211 H211       -3.8368  -27.3224  -49.4152 H         1 UNK         0.0600 
    212 H212       -2.8884  -29.2253  -51.6208 H         1 UNK         0.0600 
    213 H213       -4.2542  -29.4636  -50.5417 H         1 UNK         0.0600 
    214 H214       -2.6223  -29.4587  -49.8931 H         1 UNK         0.0600 
    215 H215       -3.6343  -24.9334  -50.7367 H         1 UNK         0.3000 
    216 H216       -6.0481  -24.9149  -52.3113 H         1 UNK         0.0600 
    217 H217       -5.0230  -23.7776  -54.2964 H         1 UNK         0.0600 
    218 H218       -4.3949  -25.4087  -54.1419 H         1 UNK         0.0600 
    219 H219       -3.4100  -24.0393  -53.6349 H         1 UNK         0.0600 
    220 H220       -6.9546  -22.8091  -52.2967 H         1 UNK         0.3000 
    221 H221       -6.3251  -21.2428  -50.0313 H         1 UNK         0.0600 
    222 H222       -8.1157  -20.6159  -52.4428 H         1 UNK         0.0600 
    223 H223       -8.6135  -21.4541  -50.9727 H         1 UNK         0.0600 
    224 H224       -8.1462  -19.7632  -50.9042 H         1 UNK         0.0600 
    225 H225       -5.2469  -19.3516  -49.7290 H         1 UNK         0.3000 
    226 H226       -3.1261  -18.5927  -51.3676 H         1 UNK         0.0600 
    227 H227       -3.1071  -18.2018  -48.9559 H         1 UNK         0.0600 
    228 H228       -2.9504  -16.6514  -49.7495 H         1 UNK         0.0600 
    229 H229       -4.4981  -17.1203  -49.0628 H         1 UNK         0.0600 
    230 H230       -6.4090  -17.5554  -51.6280 H         1 UNK         0.3000 
    231 H231       -6.0745  -15.0079  -52.8511 H         1 UNK         0.0600 
    232 H232       -8.1895  -15.7585  -51.7889 H         1 UNK         0.0600 
    233 H233       -8.3781  -17.0276  -53.0003 H         1 UNK         0.0600 
    234 H234       -8.4773  -15.3344  -53.4679 H         1 UNK         0.0600 
    235 H235       -5.5495  -18.1939  -54.1797 H         1 UNK         0.3000 
    236 H236       -5.0191  -17.0373  -56.8243 H         1 UNK         0.0600 
    237 H237       -6.4984  -18.6818  -58.0156 H         1 UNK         0.0600 
    238 H238       -7.1726  -19.1935  -56.4714 H         1 UNK         0.0600 
    239 H239       -7.4308  -17.5493  -57.0513 H         1 UNK         0.0600 
    240 H240       -4.9846  -19.8894  -54.6652 H         1 UNK         0.3000 
    241 H241       -3.7906  -21.6360  -54.5039 H         1 UNK         0.0600 
    242 H242       -4.8708  -22.8365  -57.9549 H         1 UNK         0.3800 
    243 H243       -5.5070  -21.5405  -56.9773 H         1 UNK         0.3800 
    244 H244       -1.8961  -19.7043  -54.6627 H         1 UNK         0.0800 
    245 H245       -1.3771  -20.6389  -56.0292 H         1 UNK         0.0800 
    246 H246       -1.7180  -21.9288  -51.6390 H         1 UNK         0.0800 
    247 H247       -2.4844  -20.5759  -52.4142 H         1 UNK         0.0800 
@<TRIPOS>BOND
     1    1    2 1    
     2    1  127 1    
     3    1  128 1    
     4    1  129 1    
     5    2    3 2    
     6    2    4 am   BACKBONE|DICT|INTERRES
     7    4    5 1    
     8    4  130 1    
     9    5    6 1    
    10    5   65 1    
    11    5  131 1    
    12    6    7 1    
    13    6  132 1    
    14    6  133 1    
    15    7    8 1    
    16    8    9 1    
    17    8  134 1    
    18    8  135 1    
    19    9   10 ar   
    20    9   14 ar   
    21   10   11 ar   
    22   10  136 1    
    23   11   12 ar   
    24   11  126 1    
    25   12   13 ar   
    26   12  137 1    
    27   13   14 ar   
    28   13   15 1    
    29   14  138 1    
    30   15   16 1    
    31   15  139 1    
    32   15  140 1    
    33   16   17 1    
    34   17   18 1    
    35   17  141 1    
    36   17  142 1    
    37   18   19 1    
    38   18   67 1    
    39   18  143 1    
    40   19   20 am   BACKBONE|DICT|INTERRES
    41   19  144 1    
    42   20   21 2    
    43   20   22 1    
    44   22   23 1    
    45   22   24 1    
    46   22  145 1    
    47   23  146 1    
    48   23  147 1    
    49   23  148 1    
    50   24   25 am   BACKBONE|DICT|INTERRES
    51   24  149 1    
    52   25   26 2    
    53   25   27 1    
    54   27   28 1    
    55   27   29 1    
    56   27  150 1    
    57   28  151 1    
    58   28  152 1    
    59   28  153 1    
    60   29   30 am   BACKBONE|DICT|INTERRES
    61   29  154 1    
    62   30   31 2    
    63   30   32 1    
    64   32   33 1    
    65   32   34 1    
    66   32  155 1    
    67   33  156 1    
    68   33  157 1    
    69   33  158 1    
    70   34   35 am   BACKBONE|DICT|INTERRES
    71   34  159 1    
    72   35   36 2    
    73   35   37 1    
    74   37   38 1    
    75   37   39 1    
    76   37  160 1    
    77   38  161 1    
    78   38  162 1    
    79   38  163 1    
    80   39   40 am   BACKBONE|DICT|INTERRES
    81   39  164 1    
    82   40   41 2    
    83   40   42 1    
    84   42   43 1    
    85   42   44 1    
    86   42  165 1    
    87   43  166 1    
    88   43  167 1    
    89   43  168 1    
    90   44   45 am   BACKBONE|DICT|INTERRES
    91   44  169 1    
    92   45   46 2    
    93   45   47 1    
    94   47   48 1    
    95   47   49 1    
    96   47  170 1    
    97   48  171 1    
    98   48  172 1    
    99   48  173 1    
   100   49   50 am   BACKBONE|DICT|INTERRES
   101   49  174 1    
   102   50   51 2    
   103   50   52 1    
   104   52   53 1    
   105   52   54 1    
   106   52  175 1    
   107   53  176 1    
   108   53  177 1    
   109   53  178 1    
   110   54   55 am   BACKBONE|DICT|INTERRES
   111   54  179 1    
   112   55   56 2    
   113   55   57 1    
   114   57   58 1    
   115   57   59 1    
   116   57  180 1    
   117   58  181 1    
   118   58  182 1    
   119   58  183 1    
   120   59   60 am   BACKBONE|DICT|INTERRES
   121   59  184 1    
   122   60   61 2    
   123   60   62 1    
   124   62   63 1    
   125   62   64 1    
   126   62  185 1    
   127   63  186 1    
   128   63  187 1    
   129   63  188 1    
   130   64   65 am   BACKBONE|DICT|INTERRES
   131   64  189 1    
   132   65   66 2    
   133   67   68 2    
   134   67   69 am   BACKBONE|DICT|INTERRES
   135   69   70 1    
   136   69  190 1    
   137   70   71 1    
   138   70   72 1    
   139   70  191 1    
   140   71  192 1    
   141   71  193 1    
   142   71  194 1    
   143   72   73 2    
   144   72   74 am   BACKBONE|DICT|INTERRES
   145   74   75 1    
   146   74  195 1    
   147   75   76 1    
   148   75   77 1    
   149   75  196 1    
   150   76  197 1    
   151   76  198 1    
   152   76  199 1    
   153   77   78 2    
   154   77   79 am   BACKBONE|DICT|INTERRES
   155   79   80 1    
   156   79  200 1    
   157   80   81 1    
   158   80   82 1    
   159   80  201 1    
   160   81  202 1    
   161   81  203 1    
   162   81  204 1    
   163   82   83 2    
   164   82   84 am   BACKBONE|DICT|INTERRES
   165   84   85 1    
   166   84  205 1    
   167   85   86 1    
   168   85   87 1    
   169   85  206 1    
   170   86  207 1    
   171   86  208 1    
   172   86  209 1    
   173   87   88 2    
   174   87   89 am   BACKBONE|DICT|INTERRES
   175   89   90 1    
   176   89  210 1    
   177   90   91 1    
   178   90   92 1    
   179   90  211 1    
   180   91  212 1    
   181   91  213 1    
   182   91  214 1    
   183   92   93 2    
   184   92   94 am   BACKBONE|DICT|INTERRES
   185   94   95 1    
   186   94  215 1    
   187   95   96 1    
   188   95   97 1    
   189   95  216 1    
   190   96  217 1    
   191   96  218 1    
   192   96  219 1    
   193   97   98 2    
   194   97   99 am   BACKBONE|DICT|INTERRES
   195   99  100 1    
   196   99  220 1    
   197  100  101 1    
   198  100  102 1    
   199  100  221 1    
   200  101  222 1    
   201  101  223 1    
   202  101  224 1    
   203  102  103 2    
   204  102  104 am   BACKBONE|DICT|INTERRES
   205  104  105 1    
   206  104  225 1    
   207  105  106 1    
   208  105  107 1    
   209  105  226 1    
   210  106  227 1    
   211  106  228 1    
   212  106  229 1    
   213  107  108 2    
   214  107  109 am   BACKBONE|DICT|INTERRES
   215  109  110 1    
   216  109  230 1    
   217  110  111 1    
   218  110  112 1    
   219  110  231 1    
   220  111  232 1    
   221  111  233 1    
   222  111  234 1    
   223  112  113 2    
   224  112  114 am   BACKBONE|DICT|INTERRES
   225  114  115 1    
   226  114  235 1    
   227  115  116 1    
   228  115  117 1    
   229  115  236 1    
   230  116  237 1    
   231  116  238 1    
   232  116  239 1    
   233  117  118 2    
   234  117  119 am   BACKBONE|DICT|INTERRES
   235  119  120 1    
   236  119  240 1    
   237  120  121 1    
   238  120  124 1    
   239  120  241 1    
   240  121  122 am   BACKBONE|DICT|INTERRES
   241  121  123 2    
   242  122  242 1    
   243  122  243 1    
   244  124  125 1    
   245  124  244 1    
   246  124  245 1    
   247  125  126 1    
   248  126  246 1    
   249  126  247 1    
@<TRIPOS>SUBSTRUCTURE
     1 UNK         1 GROUP             0       ****    0 ROOT    
