@<TRIPOS>MOLECULE
3R540
247   249    1
SMALL
USER_CHARGES


@<TRIPOS>ATOM
      1 CA         -1.7327  -18.4749  -49.7484 C.3       0 UNK        -0.1800 
      2 C          -1.1246  -17.1768  -49.2473 C.2       0 UNK         0.5000 
      3 O          -0.3037  -17.2011  -48.3304 O.2       0 UNK        -0.5000 
      4 N          -1.5472  -16.0450  -49.8259 N.am      1 UNK        -0.5000 
      5 CA         -1.1628  -14.6650  -49.5031 C.3       1 UNK         0.1400 
      6 C6          0.3478  -14.3633  -49.6863 C.3       23 UNK        -0.0398 
      7 S7          0.8486  -14.4214  -51.4395 S.3       23 UNK        -0.2404 
      8 C8          2.2472  -15.5924  -51.4246 C.3       23 UNK        -0.0205 
      9 C9          1.8398  -17.0364  -51.6963 C.ar      23 UNK        -0.0193 
     10 C10         1.0874  -17.3575  -52.8299 C.ar      23 UNK        -0.1150 
     11 C11         0.7910  -18.6878  -53.1374 C.ar      23 UNK        -0.0193 
     12 C12         1.2473  -19.7063  -52.2952 C.ar      23 UNK        -0.1150 
     13 C13         2.0085  -19.4048  -51.1608 C.ar      23 UNK        -0.0193 
     14 C14         2.2969  -18.0658  -50.8677 C.ar      23 UNK        -0.1150 
     15 C15         2.5882  -20.5368  -50.3158 C.3       23 UNK        -0.0205 
     16 S16         2.4405  -20.2687  -48.5189 S.3       23 UNK        -0.2404 
     17 C17         0.6741  -20.6240  -48.2465 C.3       23 UNK        -0.0398 
     18 CA          0.4499  -21.9369  -47.4568 C.3       11 UNK         0.1400 
     19 N           1.0666  -21.9072  -46.1317 N.am      11 UNK        -0.5000 
     20 C           1.8744  -22.8655  -45.6640 C.2       10 UNK         0.5000 
     21 O           2.1221  -23.9103  -46.2665 O.2       10 UNK        -0.5000 
     22 CA          2.5624  -22.6138  -44.3129 C.3       10 UNK         0.1400 
     23 CB          3.9083  -21.9070  -44.5348 C.3       10 UNK        -0.1800 
     24 N           1.7604  -21.8466  -43.3592 N.am      10 UNK        -0.5000 
     25 C           0.6864  -22.3290  -42.7192 C.2       9 UNK         0.5000 
     26 O           0.1924  -23.4336  -42.9448 O.2       9 UNK        -0.5000 
     27 CA          0.0721  -21.4343  -41.6267 C.3       9 UNK         0.1400 
     28 CB          0.9763  -21.3892  -40.3849 C.3       9 UNK        -0.1800 
     29 N          -0.1967  -20.0758  -42.0899 N.am      9 UNK        -0.5000 
     30 C          -1.1088  -19.7583  -43.0182 C.2       8 UNK         0.5000 
     31 O          -1.8536  -20.5777  -43.5537 O.2       8 UNK        -0.5000 
     32 CA         -1.1624  -18.2848  -43.4649 C.3       8 UNK         0.1400 
     33 CB         -1.9457  -17.4292  -42.4593 C.3       8 UNK        -0.1800 
     34 N           0.1685  -17.7126  -43.6664 N.am      8 UNK        -0.5000 
     35 C           1.0667  -18.1856  -44.5428 C.2       7 UNK         0.5000 
     36 O           0.8537  -19.1333  -45.2982 O.2       7 UNK        -0.5000 
     37 CA          2.4526  -17.5230  -44.5238 C.3       7 UNK         0.1400 
     38 CB          2.4324  -16.1933  -45.2955 C.3       7 UNK        -0.1800 
     39 N           2.9285  -17.3039  -43.1555 N.am      7 UNK        -0.5000 
     40 C           3.2750  -18.2889  -42.3127 C.2       6 UNK         0.5000 
     41 O           3.2546  -19.4814  -42.6106 O.2       6 UNK        -0.5000 
     42 CA          3.6681  -17.8795  -40.8819 C.3       6 UNK         0.1400 
     43 CB          5.1155  -17.3672  -40.8405 C.3       6 UNK        -0.1800 
     44 N           2.7767  -16.8645  -40.3227 N.am      6 UNK        -0.5000 
     45 C           1.4725  -17.0484  -40.0714 C.2       5 UNK         0.5000 
     46 O           0.8868  -18.1168  -40.2381 O.2       5 UNK        -0.5000 
     47 CA          0.6779  -15.8127  -39.6079 C.3       5 UNK         0.1400 
     48 CB          0.7046  -15.6972  -38.0768 C.3       5 UNK        -0.1800 
     49 N           1.1601  -14.5608  -40.1995 N.am      5 UNK        -0.5000 
     50 C           1.1860  -14.3039  -41.5130 C.2       4 UNK         0.5000 
     51 O           0.7987  -15.0995  -42.3773 O.2       4 UNK        -0.5000 
     52 CA          1.7938  -12.9594  -41.9315 C.3       4 UNK         0.1400 
     53 CB          3.3297  -12.9993  -41.8571 C.3       4 UNK        -0.1800 
     54 N           1.3828  -12.7077  -43.3018 N.am      4 UNK        -0.5000 
     55 C           1.1155  -11.5229  -43.8552 C.2       3 UNK         0.5000 
     56 O           1.3024  -10.4431  -43.2930 O.2       3 UNK        -0.5000 
     57 CA          0.5255  -11.5552  -45.2795 C.3       3 UNK         0.1400 
     58 CB          1.6046  -11.2129  -46.3184 C.3       3 UNK        -0.1800 
     59 N          -0.0712  -12.8479  -45.6326 N.am      3 UNK        -0.5000 
     60 C          -1.2063  -13.3455  -45.1187 C.2       2 UNK         0.5000 
     61 O          -1.8818  -12.7614  -44.2700 O.2       2 UNK        -0.5000 
     62 CA         -1.6425  -14.7295  -45.6493 C.3       2 UNK         0.1400 
     63 CB         -3.1344  -15.0313  -45.4027 C.3       2 UNK        -0.1800 
     64 N          -1.3033  -14.9452  -47.0609 N.am      2 UNK        -0.5000 
     65 C          -1.6688  -14.2055  -48.1189 C.2       1 UNK         0.5000 
     66 O          -2.3716  -13.1970  -48.0424 O.2       1 UNK        -0.5000 
     67 C          -1.0431  -22.2729  -47.3263 C.2       11 UNK         0.5000 
     68 O          -1.4606  -23.3532  -47.7471 O.2       11 UNK        -0.5000 
     69 N          -1.8256  -21.3374  -46.7690 N.am      12 UNK        -0.5000 
     70 CA         -3.2887  -21.3806  -46.7755 C.3       12 UNK         0.1400 
     71 CB         -3.8560  -20.0142  -46.3562 C.3       12 UNK        -0.1800 
     72 C          -3.8723  -22.5226  -45.9270 C.2       12 UNK         0.5000 
     73 O          -4.6302  -23.3392  -46.4515 O.2       12 UNK        -0.5000 
     74 N          -3.4917  -22.5822  -44.6440 N.am      13 UNK        -0.5000 
     75 CA         -3.9759  -23.5812  -43.6851 C.3       13 UNK         0.1400 
     76 CB         -3.5769  -23.1620  -42.2641 C.3       13 UNK        -0.1800 
     77 C          -3.4729  -25.0055  -43.9848 C.2       13 UNK         0.5000 
     78 O          -4.1566  -25.9748  -43.6543 O.2       13 UNK        -0.5000 
     79 N          -2.3028  -25.1041  -44.6282 N.am      14 UNK        -0.5000 
     80 CA         -1.7104  -26.3538  -45.1043 C.3       14 UNK         0.1400 
     81 CB         -0.2177  -26.1150  -45.3704 C.3       14 UNK        -0.1800 
     82 C          -2.3854  -26.9028  -46.3772 C.2       14 UNK         0.5000 
     83 O          -2.1265  -28.0517  -46.7378 O.2       14 UNK        -0.5000 
     84 N          -3.2033  -26.0734  -47.0460 N.am      15 UNK        -0.5000 
     85 CA         -3.8300  -26.3060  -48.3510 C.3       15 UNK         0.1400 
     86 CB         -4.8491  -27.4626  -48.2856 C.3       15 UNK        -0.1800 
     87 C          -2.7897  -26.4677  -49.4805 C.2       15 UNK         0.5000 
     88 O          -2.9980  -27.2412  -50.4165 O.2       15 UNK        -0.5000 
     89 N          -1.6919  -25.7089  -49.3767 N.am      16 UNK        -0.5000 
     90 CA         -0.6059  -25.6204  -50.3508 C.3       16 UNK         0.1400 
     91 CB          0.7343  -25.7478  -49.6046 C.3       16 UNK        -0.1800 
     92 C          -0.7296  -24.3009  -51.1375 C.2       16 UNK         0.5000 
     93 O           0.2681  -23.6235  -51.3902 O.2       16 UNK        -0.5000 
     94 N          -1.9719  -23.9488  -51.4816 N.am      17 UNK        -0.5000 
     95 CA         -2.3916  -22.7098  -52.1168 C.3       17 UNK         0.1400 
     96 CB         -2.2636  -21.5498  -51.1136 C.3       17 UNK        -0.1800 
     97 C          -3.8485  -22.8696  -52.5729 C.2       17 UNK         0.5000 
     98 O          -4.5520  -23.7544  -52.0754 O.2       17 UNK        -0.5000 
     99 N          -4.2812  -21.9954  -53.4845 N.am      18 UNK        -0.5000 
    100 CA        -5.6597  -21.8722  -53.9434 C.3       18 UNK         0.1400 
    101 CB        -5.8353  -22.6169  -55.2764 C.3       18 UNK        -0.1800 
    102 C         -5.9479  -20.3783  -54.1078 C.2       18 UNK         0.5000 
    103 O         -5.1394  -19.6794  -54.7212 O.2       18 UNK        -0.5000 
    104 N         -7.0823  -19.9082  -53.5744 N.am      19 UNK        -0.5000 
    105 CA        -7.4620  -18.4901  -53.5112 C.3       19 UNK         0.1400 
    106 CB        -8.7740  -18.3584  -52.7233 C.3       19 UNK        -0.1800 
    107 C         -7.5840  -17.7881  -54.8786 C.2       19 UNK         0.5000 
    108 O         -7.3923  -16.5743  -54.9549 O.2       19 UNK        -0.5000 
    109 N         -7.8650  -18.5624  -55.9352 N.am      20 UNK        -0.5000 
    110 CA        -7.9216  -18.0980  -57.3221 C.3       20 UNK         0.1400 
    111 CB        -8.5114  -19.2167  -58.1948 C.3       20 UNK        -0.1800 
    112 C         -6.5565  -17.6442  -57.8808 C.2       20 UNK         0.5000 
    113 O         -6.5306  -16.8251  -58.8006 O.2       20 UNK        -0.5000 
    114 N         -5.4600  -18.1786  -57.3266 N.am      21 UNK        -0.5000 
    115 CA        -4.0864  -17.8549  -57.7107 C.3       21 UNK         0.1400 
    116 CB        -3.3365  -19.1615  -58.0188 C.3       21 UNK        -0.1800 
    117 C         -3.3607  -17.0785  -56.6005 C.2       21 UNK         0.5000 
    118 O         -2.6269  -16.1353  -56.8982 O.2       21 UNK        -0.5000 
    119 N         -3.5646  -17.5005  -55.3487 N.am      22 UNK        -0.5000 
    120 CA        -2.8319  -17.0374  -54.1626 C.3       22 UNK         0.1400 
    121 C         -3.5731  -15.9466  -53.3375 C.2       22 UNK         0.5000 
    122 N         -4.7382  -15.4665  -53.7517 N.am      22 UNK        -0.7600 
    123 O         -3.0857  -15.5343  -52.2884 O.2       22 UNK        -0.5000 
    124 C124       -2.4318  -18.2231  -53.2476 C.3       23 UNK        -0.0398 
    125 S125       -1.6520  -19.6353  -54.1054 S.3       23 UNK        -0.2404 
    126 C126        0.0313  -19.0211  -54.4140 C.3       23 UNK        -0.0205 
    127 H127       -2.6844  -18.3037  -50.2509 H         1 UNK         0.0600 
    128 H128       -1.9123  -19.1579  -48.9192 H         1 UNK         0.0600 
    129 H129       -1.0460  -18.9515  -50.4465 H         1 UNK         0.0600 
    130 H130       -2.2123  -16.0983  -50.5917 H         1 UNK         0.3000 
    131 H131       -1.7018  -14.0509  -50.2269 H         1 UNK         0.0600 
    132 H132        0.5833  -13.3595  -49.3280 H         1 UNK         0.0800 
    133 H133        0.9599  -15.0437  -49.0937 H         1 UNK         0.0800 
    134 H134        2.9481  -15.2919  -52.2043 H         1 UNK         0.0800 
    135 H135        2.7925  -15.5059  -50.4836 H         1 UNK         0.0800 
    136 H136        0.7555  -16.5678  -53.4892 H         1 UNK         0.1150 
    137 H137        1.0325  -20.7369  -52.5429 H         1 UNK         0.1150 
    138 H138        2.9066  -17.8276  -50.0077 H         1 UNK         0.1150 
    139 H139        2.1239  -21.4914  -50.5707 H         1 UNK         0.0800 
    140 H140        3.6458  -20.6360  -50.5626 H         1 UNK         0.0800 
    141 H141        0.1729  -20.6743  -49.2121 H         1 UNK         0.0800 
    142 H142        0.2432  -19.7693  -47.7258 H         1 UNK         0.0800 
    143 H143        0.8929  -22.7322  -48.0591 H         1 UNK         0.0600 
    144 H144        0.9549  -21.0472  -45.6018 H         1 UNK         0.3000 
    145 H145        2.7676  -23.5892  -43.8664 H         1 UNK         0.0600 
    146 H146        4.4587  -21.8024  -43.5998 H         1 UNK         0.0600 
    147 H147        4.5397  -22.4720  -45.2217 H         1 UNK         0.0600 
    148 H148        3.7715  -20.9111  -44.9588 H         1 UNK         0.0600 
    149 H149        2.1213  -20.9307  -43.1042 H         1 UNK         0.3000 
    150 H150       -0.8772  -21.8753  -41.3225 H         1 UNK         0.0600 
    151 H151        1.1925  -22.3944  -40.0213 H         1 UNK         0.0600 
    152 H152        0.4975  -20.8453  -39.5705 H         1 UNK         0.0600 
    153 H153        1.9292  -20.9025  -40.5948 H         1 UNK         0.0600 
    154 H154        0.3436  -19.3334  -41.6557 H         1 UNK         0.3000 
    155 H155       -1.6837  -18.2447  -44.4236 H         1 UNK         0.0600 
    156 H156       -1.4993  -17.4657  -41.4659 H         1 UNK         0.0600 
    157 H157       -1.9826  -16.3850  -42.7692 H         1 UNK         0.0600 
    158 H158       -2.9742  -17.7808  -42.3693 H         1 UNK         0.0600 
    159 H159        0.4245  -16.9208  -43.0848 H         1 UNK         0.3000 
    160 H160        3.1510  -18.1966  -45.0254 H         1 UNK         0.0600 
    161 H161        3.4237  -15.7413  -45.3286 H         1 UNK         0.0600 
    162 H162        1.7494  -15.4720  -44.8481 H         1 UNK         0.0600 
    163 H163        2.1115  -16.3499  -46.3267 H         1 UNK         0.0600 
    164 H164        2.9114  -16.3550  -42.8138 H         1 UNK         0.3000 
    165 H165        3.6023  -18.7691  -40.2518 H         1 UNK         0.0600 
    166 H166        5.4291  -17.1549  -39.8182 H         1 UNK         0.0600 
    167 H167        5.8040  -18.1119  -41.2423 H         1 UNK         0.0600 
    168 H168        5.2395  -16.4554  -41.4261 H         1 UNK         0.0600 
    169 H169        3.1731  -15.9527  -40.1517 H         1 UNK         0.3000 
    170 H170       -0.3586  -15.9504  -39.9216 H         1 UNK         0.0600 
    171 H171        1.7149  -15.5273  -37.7024 H         1 UNK         0.0600 
    172 H172        0.0754  -14.8765  -37.7318 H         1 UNK         0.0600 
    173 H173        0.3305  -16.6096  -37.6103 H         1 UNK         0.0600 
    174 H174        1.4998  -13.8611  -39.5552 H         1 UNK         0.3000 
    175 H175        1.4044  -12.1794  -41.2739 H         1 UNK         0.0600 
    176 H176        3.7626  -12.0515  -42.1777 H         1 UNK         0.0600 
    177 H177        3.7434  -13.7852  -42.4905 H         1 UNK         0.0600 
    178 H178        3.6714  -13.1818  -40.8377 H         1 UNK         0.0600 
    179 H179        1.1275  -13.5451  -43.8076 H         1 UNK         0.3000 
    180 H180       -0.2553  -10.7934  -45.3294 H         1 UNK         0.0600 
    181 H181        2.4078  -11.9509  -46.3225 H         1 UNK         0.0600 
    182 H182        2.0532  -10.2407  -46.1101 H         1 UNK         0.0600 
    183 H183        1.1846  -11.1664  -47.3235 H         1 UNK         0.0600 
    184 H184        0.4125  -13.3910  -46.3317 H         1 UNK         0.3000 
    185 H185       -1.0632  -15.4599  -45.0833 H         1 UNK         0.0600 
    186 H186       -3.7805  -14.3206  -45.9186 H         1 UNK         0.0600 
    187 H187       -3.3940  -16.0327  -45.7465 H         1 UNK         0.0600 
    188 H188       -3.3763  -14.9824  -44.3406 H         1 UNK         0.0600 
    189 H189       -0.7685  -15.7872  -47.2695 H         1 UNK         0.3000 
    190 H190       -1.3992  -20.5133  -46.3701 H         1 UNK         0.3000 
    191 H191       -3.6020  -21.5569  -47.8067 H         1 UNK         0.0600 
    192 H192       -3.5060  -19.2199  -47.0153 H         1 UNK         0.0600 
    193 H193       -4.9456  -20.0164  -46.4038 H         1 UNK         0.0600 
    194 H194       -3.5771  -19.7484  -45.3374 H         1 UNK         0.0600 
    195 H195       -2.8565  -21.8702  -44.2835 H         1 UNK         0.3000 
    196 H196       -5.0664  -23.5962  -43.7406 H         1 UNK         0.0600 
    197 H197       -4.0298  -23.8204  -41.5220 H         1 UNK         0.0600 
    198 H198       -3.8997  -22.1448  -42.0412 H         1 UNK         0.0600 
    199 H199       -2.4978  -23.2129  -42.1293 H         1 UNK         0.0600 
    200 H200       -1.7983  -24.2537  -44.8346 H         1 UNK         0.3000 
    201 H201       -1.8063  -27.1089  -44.3215 H         1 UNK         0.0600 
    202 H202        0.2915  -25.7371  -44.4838 H         1 UNK         0.0600 
    203 H203       -0.0718  -25.3955  -46.1767 H         1 UNK         0.0600 
    204 H204        0.2829  -27.0386  -45.6633 H         1 UNK         0.0600 
    205 H205       -3.3532  -25.1485  -46.6616 H         1 UNK         0.3000 
    206 H206       -4.3843  -25.3953  -48.5826 H         1 UNK         0.0600 
    207 H207       -5.5614  -27.3140  -47.4740 H         1 UNK         0.0600 
    208 H208       -5.4220  -27.5289  -49.2111 H         1 UNK         0.0600 
    209 H209       -4.3633  -28.4268  -48.1345 H         1 UNK         0.0600 
    210 H210       -1.6456  -25.0298  -48.6200 H         1 UNK         0.3000 
    211 H211       -0.6704  -26.4357  -51.0737 H         1 UNK         0.0600 
    212 H212        0.8689  -24.9463  -48.8782 H         1 UNK         0.0600 
    213 H213        1.5765  -25.7133  -50.2966 H         1 UNK         0.0600 
    214 H214        0.7945  -26.6944  -49.0672 H         1 UNK         0.0600 
    215 H215       -2.7404  -24.5732  -51.2691 H         1 UNK         0.3000 
    216 H216       -1.7673  -22.5227  -52.9926 H         1 UNK         0.0600 
    217 H217       -2.7362  -20.6430  -51.4879 H         1 UNK         0.0600 
    218 H218       -1.2167  -21.3160  -50.9293 H         1 UNK         0.0600 
    219 H219       -2.7308  -21.7897  -50.1581 H         1 UNK         0.0600 
    220 H220       -3.6596  -21.2710  -53.8247 H         1 UNK         0.3000 
    221 H221       -6.3470  -22.2873  -53.2030 H         1 UNK         0.0600 
    222 H222       -5.1696  -22.2257  -56.0472 H         1 UNK         0.0600 
    223 H223       -5.6254  -23.6804  -55.1623 H         1 UNK         0.0600 
    224 H224       -6.8575  -22.5239  -55.6448 H         1 UNK         0.0600 
    225 H225       -7.7023  -20.5527  -53.1049 H         1 UNK         0.3000 
    226 H226       -6.6788  -17.9689  -52.9565 H         1 UNK         0.0600 
    227 H227       -8.6694  -18.7529  -51.7124 H         1 UNK         0.0600 
    228 H228       -9.0729  -17.3132  -52.6322 H         1 UNK         0.0600 
    229 H229       -9.5907  -18.8922  -53.2108 H         1 UNK         0.0600 
    230 H230       -8.0090  -19.5489  -55.7789 H         1 UNK         0.3000 
    231 H231       -8.5952  -17.2395  -57.3636 H         1 UNK         0.0600 
    232 H232       -7.8887  -20.1121  -58.1757 H         1 UNK         0.0600 
    233 H233       -8.5960  -18.8979  -59.2346 H         1 UNK         0.0600 
    234 H234       -9.5109  -19.4941  -57.8595 H         1 UNK         0.0600 
    235 H235       -5.5705  -18.8180  -56.5484 H         1 UNK         0.3000 
    236 H236       -4.0701  -17.2372  -58.6109 H         1 UNK         0.0600 
    237 H237       -3.8029  -19.6960  -58.8464 H         1 UNK         0.0600 
    238 H238       -2.3021  -18.9618  -58.3012 H         1 UNK         0.0600 
    239 H239       -3.3185  -19.8301  -57.1567 H         1 UNK         0.0600 
    240 H240       -4.1717  -18.3015  -55.1872 H         1 UNK         0.3000 
    241 H241       -1.9044  -16.5654  -54.4907 H         1 UNK         0.0600 
    242 H242       -5.2031  -14.7616  -53.2026 H         1 UNK         0.3800 
    243 H243       -5.1825  -15.8200  -54.5863 H         1 UNK         0.3800 
    244 H244       -1.7541  -17.8762  -52.4691 H         1 UNK         0.0800 
    245 H245       -3.3145  -18.6082  -52.7346 H         1 UNK         0.0800 
    246 H246       -0.0233  -18.1530  -55.0726 H         1 UNK         0.0800 
    247 H247        0.5833  -19.7829  -54.9660 H         1 UNK         0.0800 
@<TRIPOS>BOND
     1    1    2 1    
     2    1  127 1    
     3    1  128 1    
     4    1  129 1    
     5    2    3 2    
     6    2    4 am   BACKBONE|DICT|INTERRES
     7    4    5 1    
     8    4  130 1    
     9    5    6 1    
    10    5   65 1    
    11    5  131 1    
    12    6    7 1    
    13    6  132 1    
    14    6  133 1    
    15    7    8 1    
    16    8    9 1    
    17    8  134 1    
    18    8  135 1    
    19    9   10 ar   
    20    9   14 ar   
    21   10   11 ar   
    22   10  136 1    
    23   11   12 ar   
    24   11  126 1    
    25   12   13 ar   
    26   12  137 1    
    27   13   14 ar   
    28   13   15 1    
    29   14  138 1    
    30   15   16 1    
    31   15  139 1    
    32   15  140 1    
    33   16   17 1    
    34   17   18 1    
    35   17  141 1    
    36   17  142 1    
    37   18   19 1    
    38   18   67 1    
    39   18  143 1    
    40   19   20 am   BACKBONE|DICT|INTERRES
    41   19  144 1    
    42   20   21 2    
    43   20   22 1    
    44   22   23 1    
    45   22   24 1    
    46   22  145 1    
    47   23  146 1    
    48   23  147 1    
    49   23  148 1    
    50   24   25 am   BACKBONE|DICT|INTERRES
    51   24  149 1    
    52   25   26 2    
    53   25   27 1    
    54   27   28 1    
    55   27   29 1    
    56   27  150 1    
    57   28  151 1    
    58   28  152 1    
    59   28  153 1    
    60   29   30 am   BACKBONE|DICT|INTERRES
    61   29  154 1    
    62   30   31 2    
    63   30   32 1    
    64   32   33 1    
    65   32   34 1    
    66   32  155 1    
    67   33  156 1    
    68   33  157 1    
    69   33  158 1    
    70   34   35 am   BACKBONE|DICT|INTERRES
    71   34  159 1    
    72   35   36 2    
    73   35   37 1    
    74   37   38 1    
    75   37   39 1    
    76   37  160 1    
    77   38  161 1    
    78   38  162 1    
    79   38  163 1    
    80   39   40 am   BACKBONE|DICT|INTERRES
    81   39  164 1    
    82   40   41 2    
    83   40   42 1    
    84   42   43 1    
    85   42   44 1    
    86   42  165 1    
    87   43  166 1    
    88   43  167 1    
    89   43  168 1    
    90   44   45 am   BACKBONE|DICT|INTERRES
    91   44  169 1    
    92   45   46 2    
    93   45   47 1    
    94   47   48 1    
    95   47   49 1    
    96   47  170 1    
    97   48  171 1    
    98   48  172 1    
    99   48  173 1    
   100   49   50 am   BACKBONE|DICT|INTERRES
   101   49  174 1    
   102   50   51 2    
   103   50   52 1    
   104   52   53 1    
   105   52   54 1    
   106   52  175 1    
   107   53  176 1    
   108   53  177 1    
   109   53  178 1    
   110   54   55 am   BACKBONE|DICT|INTERRES
   111   54  179 1    
   112   55   56 2    
   113   55   57 1    
   114   57   58 1    
   115   57   59 1    
   116   57  180 1    
   117   58  181 1    
   118   58  182 1    
   119   58  183 1    
   120   59   60 am   BACKBONE|DICT|INTERRES
   121   59  184 1    
   122   60   61 2    
   123   60   62 1    
   124   62   63 1    
   125   62   64 1    
   126   62  185 1    
   127   63  186 1    
   128   63  187 1    
   129   63  188 1    
   130   64   65 am   BACKBONE|DICT|INTERRES
   131   64  189 1    
   132   65   66 2    
   133   67   68 2    
   134   67   69 am   BACKBONE|DICT|INTERRES
   135   69   70 1    
   136   69  190 1    
   137   70   71 1    
   138   70   72 1    
   139   70  191 1    
   140   71  192 1    
   141   71  193 1    
   142   71  194 1    
   143   72   73 2    
   144   72   74 am   BACKBONE|DICT|INTERRES
   145   74   75 1    
   146   74  195 1    
   147   75   76 1    
   148   75   77 1    
   149   75  196 1    
   150   76  197 1    
   151   76  198 1    
   152   76  199 1    
   153   77   78 2    
   154   77   79 am   BACKBONE|DICT|INTERRES
   155   79   80 1    
   156   79  200 1    
   157   80   81 1    
   158   80   82 1    
   159   80  201 1    
   160   81  202 1    
   161   81  203 1    
   162   81  204 1    
   163   82   83 2    
   164   82   84 am   BACKBONE|DICT|INTERRES
   165   84   85 1    
   166   84  205 1    
   167   85   86 1    
   168   85   87 1    
   169   85  206 1    
   170   86  207 1    
   171   86  208 1    
   172   86  209 1    
   173   87   88 2    
   174   87   89 am   BACKBONE|DICT|INTERRES
   175   89   90 1    
   176   89  210 1    
   177   90   91 1    
   178   90   92 1    
   179   90  211 1    
   180   91  212 1    
   181   91  213 1    
   182   91  214 1    
   183   92   93 2    
   184   92   94 am   BACKBONE|DICT|INTERRES
   185   94   95 1    
   186   94  215 1    
   187   95   96 1    
   188   95   97 1    
   189   95  216 1    
   190   96  217 1    
   191   96  218 1    
   192   96  219 1    
   193   97   98 2    
   194   97   99 am   BACKBONE|DICT|INTERRES
   195   99  100 1    
   196   99  220 1    
   197  100  101 1    
   198  100  102 1    
   199  100  221 1    
   200  101  222 1    
   201  101  223 1    
   202  101  224 1    
   203  102  103 2    
   204  102  104 am   BACKBONE|DICT|INTERRES
   205  104  105 1    
   206  104  225 1    
   207  105  106 1    
   208  105  107 1    
   209  105  226 1    
   210  106  227 1    
   211  106  228 1    
   212  106  229 1    
   213  107  108 2    
   214  107  109 am   BACKBONE|DICT|INTERRES
   215  109  110 1    
   216  109  230 1    
   217  110  111 1    
   218  110  112 1    
   219  110  231 1    
   220  111  232 1    
   221  111  233 1    
   222  111  234 1    
   223  112  113 2    
   224  112  114 am   BACKBONE|DICT|INTERRES
   225  114  115 1    
   226  114  235 1    
   227  115  116 1    
   228  115  117 1    
   229  115  236 1    
   230  116  237 1    
   231  116  238 1    
   232  116  239 1    
   233  117  118 2    
   234  117  119 am   BACKBONE|DICT|INTERRES
   235  119  120 1    
   236  119  240 1    
   237  120  121 1    
   238  120  124 1    
   239  120  241 1    
   240  121  122 am   BACKBONE|DICT|INTERRES
   241  121  123 2    
   242  122  242 1    
   243  122  243 1    
   244  124  125 1    
   245  124  244 1    
   246  124  245 1    
   247  125  126 1    
   248  126  246 1    
   249  126  247 1    
@<TRIPOS>SUBSTRUCTURE
     1 UNK         1 GROUP             0       ****    0 ROOT    
