@<TRIPOS>MOLECULE
3R540
247   249    1
SMALL
USER_CHARGES


@<TRIPOS>ATOM
      1 CA          5.0652  -18.3954  -46.8872 C.3       0 UNK        -0.1800 
      2 C           4.1677  -17.2261  -46.5080 C.2       0 UNK         0.5000 
      3 O           3.3063  -17.3639  -45.6386 O.2       0 UNK        -0.5000 
      4 N           4.3822  -16.0632  -47.1359 N.am      1 UNK        -0.5000 
      5 CA          3.7108  -14.7974  -46.8207 C.3       1 UNK         0.1400 
      6 C6          3.5755  -13.8779  -48.0613 C.3       23 UNK        -0.0398 
      7 S7          2.1661  -14.3804  -49.1084 S.3       23 UNK        -0.2404 
      8 C8          2.9285  -15.4937  -50.3296 C.3       23 UNK        -0.0205 
      9 C9          2.0977  -16.7581  -50.4903 C.ar      23 UNK        -0.0193 
     10 C10         0.9527  -16.7574  -51.2933 C.ar      23 UNK        -0.1150 
     11 C11         0.1563  -17.9045  -51.4049 C.ar      23 UNK        -0.0193 
     12 C12         0.5355  -19.0654  -50.7201 C.ar      23 UNK        -0.1150 
     13 C13         1.6942  -19.0870  -49.9368 C.ar      23 UNK        -0.0193 
     14 C14         2.4678  -17.9295  -49.8259 C.ar      23 UNK        -0.1150 
     15 C15         2.1353  -20.3655  -49.2395 C.3       23 UNK        -0.0205 
     16 S16         1.8138  -20.3243  -47.4464 S.3       23 UNK        -0.2404 
     17 C17         2.3971  -21.9914  -46.9677 C.3       23 UNK        -0.0398 
     18 CA          1.3203  -23.0955  -46.7592 C.3       11 UNK         0.1400 
     19 N           0.8241  -23.1801  -45.3817 N.am      11 UNK        -0.5000 
     20 C           0.2555  -24.2847  -44.8712 C.2       10 UNK         0.5000 
     21 O           0.0927  -25.3249  -45.5095 O.2       10 UNK        -0.5000 
     22 CA         -0.2421  -24.2147  -43.4170 C.3       10 UNK         0.1400 
     23 CB          0.9240  -24.4017  -42.4348 C.3       10 UNK        -0.1800 
     24 N          -0.9367  -22.9662  -43.1134 N.am      10 UNK        -0.5000 
     25 C          -2.0934  -22.5814  -43.6704 C.2       9 UNK         0.5000 
     26 O          -2.7175  -23.2516  -44.4920 O.2       9 UNK        -0.5000 
     27 CA         -2.6128  -21.1868  -43.2759 C.3       9 UNK         0.1400 
     28 CB         -3.4868  -21.2722  -42.0159 C.3       9 UNK        -0.1800 
     29 N          -1.5432  -20.2064  -43.0621 N.am      9 UNK        -0.5000 
     30 C          -0.6646  -19.8350  -44.0020 C.2       8 UNK         0.5000 
     31 O          -0.6294  -20.3270  -45.1331 O.2       8 UNK        -0.5000 
     32 CA          0.3671  -18.7638  -43.6007 C.3       8 UNK         0.1400 
     33 CB          1.7161  -19.4179  -43.2655 C.3       8 UNK        -0.1800 
     34 N           0.5621  -17.8103  -44.6875 N.am      8 UNK        -0.5000 
     35 C          -0.3766  -16.9638  -45.1233 C.2       7 UNK         0.5000 
     36 O          -1.4331  -16.7375  -44.5267 O.2       7 UNK        -0.5000 
     37 CA         -0.1114  -16.3285  -46.4938 C.3       7 UNK         0.1400 
     38 CB         -0.5836  -17.2737  -47.6006 C.3       7 UNK        -0.1800 
     39 N          -0.7909  -15.0452  -46.6438 N.am      7 UNK        -0.5000 
     40 C          -0.3595  -13.8904  -46.1298 C.2       6 UNK         0.5000 
     41 O           0.7024  -13.7609  -45.5144 O.2       6 UNK        -0.5000 
     42 CA         -1.3051  -12.6929  -46.3110 C.3       6 UNK         0.1400 
     43 CB         -2.2822  -12.5885  -45.1296 C.3       6 UNK        -0.1800 
     44 N          -0.5587  -11.4425  -46.4271 N.am      6 UNK        -0.5000 
     45 C          -0.1810  -10.8991  -47.5925 C.2       5 UNK         0.5000 
     46 O          -0.4259  -11.4043  -48.6887 O.2       5 UNK        -0.5000 
     47 CA          0.5620   -9.5485  -47.5513 C.3       5 UNK         0.1400 
     48 CB         -0.3911   -8.4017  -47.9247 C.3       5 UNK        -0.1800 
     49 N           1.1591   -9.2523  -46.2504 N.am      5 UNK        -0.5000 
     50 C           2.3170   -9.7620  -45.8156 C.2       4 UNK         0.5000 
     51 O           3.0275  -10.5078  -46.4889 O.2       4 UNK        -0.5000 
     52 CA          2.7612   -9.3875  -44.3871 C.3       4 UNK         0.1400 
     53 CB          2.0837   -8.1172  -43.8246 C.3       4 UNK        -0.1800 
     54 N           2.5923  -10.5155  -43.4693 N.am      4 UNK        -0.5000 
     55 C           1.4585  -11.1736  -43.1879 C.2       3 UNK         0.5000 
     56 O           0.3548  -10.8594  -43.6383 O.2       3 UNK        -0.5000 
     57 CA          1.6064  -12.3959  -42.2606 C.3       3 UNK         0.1400 
     58 CB          0.2875  -13.1598  -42.0433 C.3       3 UNK        -0.1800 
     59 N           2.6102  -13.3243  -42.7815 N.am      3 UNK        -0.5000 
     60 C           3.9221  -13.2781  -42.5133 C.2       2 UNK         0.5000 
     61 O           4.4371  -12.4188  -41.7972 O.2       2 UNK        -0.5000 
     62 CA          4.8107  -14.3503  -43.1681 C.3       2 UNK         0.1400 
     63 CB          4.9542  -15.5678  -42.2422 C.3       2 UNK        -0.1800 
     64 N           4.2838  -14.7976  -44.4548 N.am      2 UNK        -0.5000 
     65 C           4.3994  -14.1336  -45.6119 C.2       1 UNK         0.5000 
     66 O           5.0408  -13.0903  -45.7415 O.2       1 UNK        -0.5000 
     67 C           0.1553  -23.0584  -47.7682 C.2       11 UNK         0.5000 
     68 O           0.2402  -23.7110  -48.8078 O.2       11 UNK        -0.5000 
     69 N          -0.9250  -22.3419  -47.4209 N.am      12 UNK        -0.5000 
     70 CA         -2.1609  -22.2858  -48.1985 C.3       12 UNK         0.1400 
     71 CB         -3.1086  -21.2392  -47.5945 C.3       12 UNK        -0.1800 
     72 C          -2.8348  -23.6656  -48.2993 C.2       12 UNK         0.5000 
     73 O          -3.1929  -24.0821  -49.3990 O.2       12 UNK        -0.5000 
     74 N          -2.9399  -24.3787  -47.1672 N.am      13 UNK        -0.5000 
     75 CA         -3.4575  -25.7465  -47.0881 C.3       13 UNK         0.1400 
     76 CB         -3.5623  -26.1811  -45.6191 C.3       13 UNK        -0.1800 
     77 C          -2.6215  -26.7542  -47.8977 C.2       13 UNK         0.5000 
     78 O          -3.1950  -27.5557  -48.6366 O.2       13 UNK        -0.5000 
     79 N          -1.2868  -26.6658  -47.7891 N.am      14 UNK        -0.5000 
     80 CA         -0.3345  -27.4742  -48.5585 C.3       14 UNK         0.1400 
     81 CB          1.0902  -27.2170  -48.0460 C.3       14 UNK        -0.1800 
     82 C          -0.4169  -27.2278  -50.0782 C.2       14 UNK         0.5000 
     83 O          -0.2268  -28.1611  -50.8580 O.2       14 UNK        -0.5000 
     84 N          -0.7494  -25.9907  -50.4660 N.am      15 UNK        -0.5000 
     85 CA         -1.0016  -25.5551  -51.8393 C.3       15 UNK         0.1400 
     86 CB         -0.5413  -24.0950  -51.9770 C.3       15 UNK        -0.1800 
     87 C          -2.4682  -25.7681  -52.2879 C.2       15 UNK         0.5000 
     88 O          -2.9071  -25.1324  -53.2463 O.2       15 UNK        -0.5000 
     89 N          -3.1850  -26.6819  -51.6169 N.am      16 UNK        -0.5000 
     90 CA         -4.5364  -27.1662  -51.9129 C.3       16 UNK         0.1400 
     91 CB         -4.6324  -27.7799  -53.3266 C.3       16 UNK        -0.1800 
     92 C          -5.6595  -26.1617  -51.5855 C.2       16 UNK         0.5000 
     93 O          -6.6767  -26.1226  -52.2814 O.2       16 UNK        -0.5000 
     94 N          -5.4793  -25.4169  -50.4861 N.am      17 UNK        -0.5000 
     95 CA         -6.4668  -24.5949  -49.7819 C.3       17 UNK         0.1400 
     96 CB         -7.5112  -25.4957  -49.0872 C.3       17 UNK        -0.1800 
     97 C          -7.0850  -23.5079  -50.6777 C.2       17 UNK         0.5000 
     98 O          -6.4401  -22.4882  -50.9117 O.2       17 UNK        -0.5000 
     99 N          -8.3063  -23.7416  -51.1785 N.am      18 UNK        -0.5000 
    100 CA        -9.0578  -22.8390  -52.0559 C.3       18 UNK         0.1400 
    101 CB       -10.4460  -23.4418  -52.3180 C.3       18 UNK        -0.1800 
    102 C         -8.3504  -22.5145  -53.3877 C.2       18 UNK         0.5000 
    103 O         -8.6120  -21.4612  -53.9692 O.2       18 UNK        -0.5000 
    104 N         -7.4472  -23.4001  -53.8307 N.am      19 UNK        -0.5000 
    105 CA        -6.5843  -23.1983  -54.9958 C.3       19 UNK         0.1400 
    106 CB        -5.9739  -24.5501  -55.3913 C.3       19 UNK        -0.1800 
    107 C         -5.4690  -22.1539  -54.7682 C.2       19 UNK         0.5000 
    108 O         -4.8786  -21.6883  -55.7438 O.2       19 UNK        -0.5000 
    109 N         -5.1942  -21.8060  -53.5051 N.am      20 UNK        -0.5000 
    110 CA        -4.1447  -20.8851  -53.0820 C.3       20 UNK         0.1400 
    111 CB        -2.8903  -21.6958  -52.7207 C.3       20 UNK        -0.1800 
    112 C         -4.6659  -20.0334  -51.9146 C.2       20 UNK         0.5000 
    113 O         -4.0213  -19.9492  -50.8669 O.2       20 UNK        -0.5000 
    114 N         -5.8491  -19.4338  -52.1110 N.am      21 UNK        -0.5000 
    115 CA        -6.6164  -18.6654  -51.1255 C.3       21 UNK         0.1400 
    116 CB        -8.0712  -18.5584  -51.6169 C.3       21 UNK        -0.1800 
    117 C         -6.0008  -17.2874  -50.7839 C.2       21 UNK         0.5000 
    118 O         -6.6815  -16.2623  -50.8509 O.2       21 UNK        -0.5000 
    119 N         -4.7188  -17.2951  -50.4148 N.am      22 UNK        -0.5000 
    120 CA        -3.9235  -16.1391  -49.9780 C.3       22 UNK         0.1400 
    121 C         -4.0622  -15.8175  -48.4584 C.2       22 UNK         0.5000 
    122 N         -4.8709  -16.5347  -47.6883 N.am      22 UNK        -0.7600 
    123 O         -3.4107  -14.9042  -47.9595 O.2       22 UNK        -0.5000 
    124 C124       -2.4352  -16.3243  -50.3591 C.3       23 UNK        -0.0398 
    125 S125       -2.1276  -16.4092  -52.1539 S.3       23 UNK        -0.2404 
    126 C126       -1.1050  -17.9196  -52.2705 C.3       23 UNK        -0.0205 
    127 H127        5.8378  -18.0993  -47.5970 H         1 UNK         0.0600 
    128 H128        5.5552  -18.7925  -45.9983 H         1 UNK         0.0600 
    129 H129        4.4808  -19.1952  -47.3379 H         1 UNK         0.0600 
    130 H130        5.1300  -16.0014  -47.8114 H         1 UNK         0.3000 
    131 H131        2.7049  -15.0100  -46.4729 H         1 UNK         0.0600 
    132 H132        4.4991  -13.8391  -48.6402 H         1 UNK         0.0800 
    133 H133        3.3670  -12.8512  -47.7568 H         1 UNK         0.0800 
    134 H134        3.9459  -15.7490  -50.0315 H         1 UNK         0.0800 
    135 H135        3.0098  -14.9759  -51.2862 H         1 UNK         0.0800 
    136 H136        0.6720  -15.8532  -51.8145 H         1 UNK         0.1150 
    137 H137       -0.0661  -19.9597  -50.8052 H         1 UNK         0.1150 
    138 H138        3.3598  -17.9427  -49.2189 H         1 UNK         0.1150 
    139 H139        1.6287  -21.2265  -49.6782 H         1 UNK         0.0800 
    140 H140        3.2020  -20.5164  -49.4109 H         1 UNK         0.0800 
    141 H141        3.0993  -22.3303  -47.7308 H         1 UNK         0.0800 
    142 H142        3.0010  -21.8877  -46.0654 H         1 UNK         0.0800 
    143 H143        1.8394  -24.0388  -46.9449 H         1 UNK         0.0600 
    144 H144        0.8522  -22.3334  -44.8326 H         1 UNK         0.3000 
    145 H145       -0.9473  -25.0353  -43.2685 H         1 UNK         0.0600 
    146 H146        0.5692  -24.4407  -41.4048 H         1 UNK         0.0600 
    147 H147        1.4526  -25.3356  -42.6306 H         1 UNK         0.0600 
    148 H148        1.6501  -23.5913  -42.5097 H         1 UNK         0.0600 
    149 H149       -0.4940  -22.3452  -42.4528 H         1 UNK         0.3000 
    150 H150       -3.2336  -20.8245  -44.0979 H         1 UNK         0.0600 
    151 H151       -4.3031  -21.9825  -42.1550 H         1 UNK         0.0600 
    152 H152       -3.9352  -20.3068  -41.7804 H         1 UNK         0.0600 
    153 H153       -2.9126  -21.5978  -41.1477 H         1 UNK         0.0600 
    154 H154       -1.5111  -19.7648  -42.1546 H         1 UNK         0.3000 
    155 H155        0.0076  -18.2222  -42.7235 H         1 UNK         0.0600 
    156 H156        2.4499  -18.6714  -42.9604 H         1 UNK         0.0600 
    157 H157        2.1259  -19.9544  -44.1228 H         1 UNK         0.0600 
    158 H158        1.6153  -20.1307  -42.4463 H         1 UNK         0.0600 
    159 H159        1.4171  -17.9173  -45.2248 H         1 UNK         0.3000 
    160 H160        0.9598  -16.1927  -46.6151 H         1 UNK         0.0600 
    161 H161       -1.6666  -17.3939  -47.5931 H         1 UNK         0.0600 
    162 H162       -0.1520  -18.2666  -47.4860 H         1 UNK         0.0600 
    163 H163       -0.2698  -16.9007  -48.5736 H         1 UNK         0.0600 
    164 H164       -1.7068  -15.0665  -47.0840 H         1 UNK         0.3000 
    165 H165       -1.8952  -12.8484  -47.2163 H         1 UNK         0.0600 
    166 H166       -1.7638  -12.4171  -44.1869 H         1 UNK         0.0600 
    167 H167       -2.9889  -11.7717  -45.2755 H         1 UNK         0.0600 
    168 H168       -2.8627  -13.5060  -45.0230 H         1 UNK         0.0600 
    169 H169       -0.2464  -11.0288  -45.5541 H         1 UNK         0.3000 
    170 H170        1.3535   -9.5873  -48.3029 H         1 UNK         0.0600 
    171 H171       -0.8351   -8.5663  -48.9074 H         1 UNK         0.0600 
    172 H172       -1.2074   -8.3075  -47.2075 H         1 UNK         0.0600 
    173 H173        0.1351   -7.4477  -47.9634 H         1 UNK         0.0600 
    174 H174        0.6208   -8.6730  -45.6226 H         1 UNK         0.3000 
    175 H175        3.8328   -9.1900  -44.4423 H         1 UNK         0.0600 
    176 H176        1.0109   -8.2439  -43.6769 H         1 UNK         0.0600 
    177 H177        2.5151   -7.8439  -42.8616 H         1 UNK         0.0600 
    178 H178        2.2294   -7.2673  -44.4927 H         1 UNK         0.0600 
    179 H179        3.4453  -10.8789  -43.0622 H         1 UNK         0.3000 
    180 H180        1.9259  -12.0181  -41.2872 H         1 UNK         0.0600 
    181 H181       -0.0769  -13.6109  -42.9655 H         1 UNK         0.0600 
    182 H182       -0.4938  -12.4986  -41.6666 H         1 UNK         0.0600 
    183 H183        0.4146  -13.9587  -41.3127 H         1 UNK         0.0600 
    184 H184        2.2768  -14.0020  -43.4530 H         1 UNK         0.3000 
    185 H185        5.8017  -13.9180  -43.3224 H         1 UNK         0.0600 
    186 H186        5.3644  -15.2764  -41.2743 H         1 UNK         0.0600 
    187 H187        3.9938  -16.0521  -42.0606 H         1 UNK         0.0600 
    188 H188        5.6280  -16.3106  -42.6699 H         1 UNK         0.0600 
    189 H189        3.7933  -15.6852  -44.4692 H         1 UNK         0.3000 
    190 H190       -0.8895  -21.7900  -46.5695 H         1 UNK         0.3000 
    191 H191       -1.9050  -21.9640  -49.2105 H         1 UNK         0.0600 
    192 H192       -4.0225  -21.1578  -48.1848 H         1 UNK         0.0600 
    193 H193       -2.6440  -20.2528  -47.5773 H         1 UNK         0.0600 
    194 H194       -3.3947  -21.4926  -46.5737 H         1 UNK         0.0600 
    195 H195       -2.6546  -23.9539  -46.2889 H         1 UNK         0.3000 
    196 H196       -4.4648  -25.7421  -47.5089 H         1 UNK         0.0600 
    197 H197       -3.9456  -27.1990  -45.5378 H         1 UNK         0.0600 
    198 H198       -4.2420  -25.5334  -45.0653 H         1 UNK         0.0600 
    199 H199       -2.5931  -26.1528  -45.1202 H         1 UNK         0.0600 
    200 H200       -0.8895  -26.0064  -47.1269 H         1 UNK         0.3000 
    201 H201       -0.5743  -28.5247  -48.3824 H         1 UNK         0.0600 
    202 H202        1.1793  -27.4627  -46.9877 H         1 UNK         0.0600 
    203 H203        1.3807  -26.1742  -48.1741 H         1 UNK         0.0600 
    204 H204        1.8156  -27.8286  -48.5838 H         1 UNK         0.0600 
    205 H205       -0.8464  -25.2746  -49.7544 H         1 UNK         0.3000 
    206 H206       -0.3873  -26.1522  -52.5159 H         1 UNK         0.0600 
    207 H207        0.5168  -23.9946  -51.7350 H         1 UNK         0.0600 
    208 H208       -0.6734  -23.7284  -52.9950 H         1 UNK         0.0600 
    209 H209       -1.0943  -23.4393  -51.3050 H         1 UNK         0.0600 
    210 H210       -2.7526  -27.1063  -50.8061 H         1 UNK         0.3000 
    211 H211       -4.6949  -27.9881  -51.2134 H         1 UNK         0.0600 
    212 H212       -4.5044  -27.0350  -54.1102 H         1 UNK         0.0600 
    213 H213       -5.6028  -28.2521  -53.4835 H         1 UNK         0.0600 
    214 H214       -3.8739  -28.5490  -53.4716 H         1 UNK         0.0600 
    215 H215       -4.5479  -25.3900  -50.0836 H         1 UNK         0.3000 
    216 H216       -5.9250  -24.0645  -48.9977 H         1 UNK         0.0600 
    217 H217       -8.0485  -26.1304  -49.7925 H         1 UNK         0.0600 
    218 H218       -8.2478  -24.8994  -48.5472 H         1 UNK         0.0600 
    219 H219       -7.0329  -26.1501  -48.3582 H         1 UNK         0.0600 
    220 H220       -8.7411  -24.6286  -50.9696 H         1 UNK         0.3000 
    221 H221       -9.1893  -21.8971  -51.5204 H         1 UNK         0.0600 
    222 H222      -10.3759  -24.4048  -52.8254 H         1 UNK         0.0600 
    223 H223      -10.9947  -23.5903  -51.3877 H         1 UNK         0.0600 
    224 H224      -11.0468  -22.7825  -52.9459 H         1 UNK         0.0600 
    225 H225       -7.2899  -24.2431  -53.2896 H         1 UNK         0.3000 
    226 H226       -7.2020  -22.8459  -55.8243 H         1 UNK         0.0600 
    227 H227       -6.7453  -25.2972  -55.5789 H         1 UNK         0.0600 
    228 H228       -5.3761  -24.4612  -56.2992 H         1 UNK         0.0600 
    229 H229       -5.3213  -24.9289  -54.6053 H         1 UNK         0.0600 
    230 H230       -5.7436  -22.2011  -52.7466 H         1 UNK         0.3000 
    231 H231       -3.8949  -20.1942  -53.8896 H         1 UNK         0.0600 
    232 H232       -3.1010  -22.3985  -51.9132 H         1 UNK         0.0600 
    233 H233       -2.5361  -22.2679  -53.5779 H         1 UNK         0.0600 
    234 H234       -2.0720  -21.0534  -52.3973 H         1 UNK         0.0600 
    235 H235       -6.2949  -19.5619  -53.0079 H         1 UNK         0.3000 
    236 H236       -6.6280  -19.2400  -50.1969 H         1 UNK         0.0600 
    237 H237       -8.5051  -19.5442  -51.7818 H         1 UNK         0.0600 
    238 H238       -8.6988  -18.0504  -50.8835 H         1 UNK         0.0600 
    239 H239       -8.1394  -18.0021  -52.5524 H         1 UNK         0.0600 
    240 H240       -4.2462  -18.1963  -50.4111 H         1 UNK         0.3000 
    241 H241       -4.2897  -15.2529  -50.4991 H         1 UNK         0.0600 
    242 H242       -5.4095  -17.2923  -48.0736 H         1 UNK         0.3800 
    243 H243       -4.9453  -16.3120  -46.7087 H         1 UNK         0.3800 
    244 H244       -1.8191  -15.5127  -49.9673 H         1 UNK         0.0800 
    245 H245       -2.0719  -17.2443  -49.9038 H         1 UNK         0.0800 
    246 H246       -0.8132  -18.0681  -53.3106 H         1 UNK         0.0800 
    247 H247       -1.7340  -18.7674  -52.0005 H         1 UNK         0.0800 
@<TRIPOS>BOND
     1    1    2 1    
     2    1  127 1    
     3    1  128 1    
     4    1  129 1    
     5    2    3 2    
     6    2    4 am   BACKBONE|DICT|INTERRES
     7    4    5 1    
     8    4  130 1    
     9    5    6 1    
    10    5   65 1    
    11    5  131 1    
    12    6    7 1    
    13    6  132 1    
    14    6  133 1    
    15    7    8 1    
    16    8    9 1    
    17    8  134 1    
    18    8  135 1    
    19    9   10 ar   
    20    9   14 ar   
    21   10   11 ar   
    22   10  136 1    
    23   11   12 ar   
    24   11  126 1    
    25   12   13 ar   
    26   12  137 1    
    27   13   14 ar   
    28   13   15 1    
    29   14  138 1    
    30   15   16 1    
    31   15  139 1    
    32   15  140 1    
    33   16   17 1    
    34   17   18 1    
    35   17  141 1    
    36   17  142 1    
    37   18   19 1    
    38   18   67 1    
    39   18  143 1    
    40   19   20 am   BACKBONE|DICT|INTERRES
    41   19  144 1    
    42   20   21 2    
    43   20   22 1    
    44   22   23 1    
    45   22   24 1    
    46   22  145 1    
    47   23  146 1    
    48   23  147 1    
    49   23  148 1    
    50   24   25 am   BACKBONE|DICT|INTERRES
    51   24  149 1    
    52   25   26 2    
    53   25   27 1    
    54   27   28 1    
    55   27   29 1    
    56   27  150 1    
    57   28  151 1    
    58   28  152 1    
    59   28  153 1    
    60   29   30 am   BACKBONE|DICT|INTERRES
    61   29  154 1    
    62   30   31 2    
    63   30   32 1    
    64   32   33 1    
    65   32   34 1    
    66   32  155 1    
    67   33  156 1    
    68   33  157 1    
    69   33  158 1    
    70   34   35 am   BACKBONE|DICT|INTERRES
    71   34  159 1    
    72   35   36 2    
    73   35   37 1    
    74   37   38 1    
    75   37   39 1    
    76   37  160 1    
    77   38  161 1    
    78   38  162 1    
    79   38  163 1    
    80   39   40 am   BACKBONE|DICT|INTERRES
    81   39  164 1    
    82   40   41 2    
    83   40   42 1    
    84   42   43 1    
    85   42   44 1    
    86   42  165 1    
    87   43  166 1    
    88   43  167 1    
    89   43  168 1    
    90   44   45 am   BACKBONE|DICT|INTERRES
    91   44  169 1    
    92   45   46 2    
    93   45   47 1    
    94   47   48 1    
    95   47   49 1    
    96   47  170 1    
    97   48  171 1    
    98   48  172 1    
    99   48  173 1    
   100   49   50 am   BACKBONE|DICT|INTERRES
   101   49  174 1    
   102   50   51 2    
   103   50   52 1    
   104   52   53 1    
   105   52   54 1    
   106   52  175 1    
   107   53  176 1    
   108   53  177 1    
   109   53  178 1    
   110   54   55 am   BACKBONE|DICT|INTERRES
   111   54  179 1    
   112   55   56 2    
   113   55   57 1    
   114   57   58 1    
   115   57   59 1    
   116   57  180 1    
   117   58  181 1    
   118   58  182 1    
   119   58  183 1    
   120   59   60 am   BACKBONE|DICT|INTERRES
   121   59  184 1    
   122   60   61 2    
   123   60   62 1    
   124   62   63 1    
   125   62   64 1    
   126   62  185 1    
   127   63  186 1    
   128   63  187 1    
   129   63  188 1    
   130   64   65 am   BACKBONE|DICT|INTERRES
   131   64  189 1    
   132   65   66 2    
   133   67   68 2    
   134   67   69 am   BACKBONE|DICT|INTERRES
   135   69   70 1    
   136   69  190 1    
   137   70   71 1    
   138   70   72 1    
   139   70  191 1    
   140   71  192 1    
   141   71  193 1    
   142   71  194 1    
   143   72   73 2    
   144   72   74 am   BACKBONE|DICT|INTERRES
   145   74   75 1    
   146   74  195 1    
   147   75   76 1    
   148   75   77 1    
   149   75  196 1    
   150   76  197 1    
   151   76  198 1    
   152   76  199 1    
   153   77   78 2    
   154   77   79 am   BACKBONE|DICT|INTERRES
   155   79   80 1    
   156   79  200 1    
   157   80   81 1    
   158   80   82 1    
   159   80  201 1    
   160   81  202 1    
   161   81  203 1    
   162   81  204 1    
   163   82   83 2    
   164   82   84 am   BACKBONE|DICT|INTERRES
   165   84   85 1    
   166   84  205 1    
   167   85   86 1    
   168   85   87 1    
   169   85  206 1    
   170   86  207 1    
   171   86  208 1    
   172   86  209 1    
   173   87   88 2    
   174   87   89 am   BACKBONE|DICT|INTERRES
   175   89   90 1    
   176   89  210 1    
   177   90   91 1    
   178   90   92 1    
   179   90  211 1    
   180   91  212 1    
   181   91  213 1    
   182   91  214 1    
   183   92   93 2    
   184   92   94 am   BACKBONE|DICT|INTERRES
   185   94   95 1    
   186   94  215 1    
   187   95   96 1    
   188   95   97 1    
   189   95  216 1    
   190   96  217 1    
   191   96  218 1    
   192   96  219 1    
   193   97   98 2    
   194   97   99 am   BACKBONE|DICT|INTERRES
   195   99  100 1    
   196   99  220 1    
   197  100  101 1    
   198  100  102 1    
   199  100  221 1    
   200  101  222 1    
   201  101  223 1    
   202  101  224 1    
   203  102  103 2    
   204  102  104 am   BACKBONE|DICT|INTERRES
   205  104  105 1    
   206  104  225 1    
   207  105  106 1    
   208  105  107 1    
   209  105  226 1    
   210  106  227 1    
   211  106  228 1    
   212  106  229 1    
   213  107  108 2    
   214  107  109 am   BACKBONE|DICT|INTERRES
   215  109  110 1    
   216  109  230 1    
   217  110  111 1    
   218  110  112 1    
   219  110  231 1    
   220  111  232 1    
   221  111  233 1    
   222  111  234 1    
   223  112  113 2    
   224  112  114 am   BACKBONE|DICT|INTERRES
   225  114  115 1    
   226  114  235 1    
   227  115  116 1    
   228  115  117 1    
   229  115  236 1    
   230  116  237 1    
   231  116  238 1    
   232  116  239 1    
   233  117  118 2    
   234  117  119 am   BACKBONE|DICT|INTERRES
   235  119  120 1    
   236  119  240 1    
   237  120  121 1    
   238  120  124 1    
   239  120  241 1    
   240  121  122 am   BACKBONE|DICT|INTERRES
   241  121  123 2    
   242  122  242 1    
   243  122  243 1    
   244  124  125 1    
   245  124  244 1    
   246  124  245 1    
   247  125  126 1    
   248  126  246 1    
   249  126  247 1    
@<TRIPOS>SUBSTRUCTURE
     1 UNK         1 GROUP             0       ****    0 ROOT    
