@<TRIPOS>MOLECULE
3R540
247   249    1
SMALL
USER_CHARGES


@<TRIPOS>ATOM
      1 CA         -5.1283  -15.7401  -46.7863 C.3       0 UNK        -0.1800 
      2 C          -3.7697  -15.0718  -46.9430 C.2       0 UNK         0.5000 
      3 O          -2.7763  -15.5919  -46.4351 O.2       0 UNK        -0.5000 
      4 N          -3.7440  -13.9068  -47.6118 N.am      1 UNK        -0.5000 
      5 CA         -2.5839  -13.0678  -47.9791 C.3       1 UNK         0.1400 
      6 C6         -1.8615  -13.5296  -49.2789 C.3       23 UNK        -0.0398 
      7 S7         -1.1097  -15.1917  -49.2180 S.3       23 UNK        -0.2404 
      8 C8          0.3092  -15.0131  -50.3376 C.3       23 UNK        -0.0205 
      9 C9          0.7537  -16.3717  -50.8579 C.ar      23 UNK        -0.0193 
     10 C10         0.4624  -16.7530  -52.1708 C.ar      23 UNK        -0.1150 
     11 C11         0.8423  -18.0086  -52.6554 C.ar      23 UNK        -0.0193 
     12 C12         1.5131  -18.8915  -51.7970 C.ar      23 UNK        -0.1150 
     13 C13         1.8116  -18.5233  -50.4809 C.ar      23 UNK        -0.0193 
     14 C14         1.4373  -17.2576  -50.0212 C.ar      23 UNK        -0.1150 
     15 C15         2.5335  -19.4904  -49.5498 C.3       23 UNK        -0.0205 
     16 S16         1.4899  -20.8950  -49.0340 S.3       23 UNK        -0.2404 
     17 C17         0.0852  -20.0378  -48.2523 C.3       23 UNK        -0.0398 
     18 CA         -0.9901  -21.0159  -47.7245 C.3       11 UNK         0.1400 
     19 N          -0.5273  -21.8642  -46.6224 N.am      11 UNK        -0.5000 
     20 C          -1.1726  -22.9654  -46.2054 C.2       10 UNK         0.5000 
     21 O          -2.1917  -23.3988  -46.7404 O.2       10 UNK        -0.5000 
     22 CA         -0.6244  -23.6800  -44.9548 C.3       10 UNK         0.1400 
     23 CB          0.4788  -24.6750  -45.3437 C.3       10 UNK        -0.1800 
     24 N          -0.1060  -22.7543  -43.9486 N.am      10 UNK        -0.5000 
     25 C          -0.8316  -21.8188  -43.3200 C.2       9 UNK         0.5000 
     26 O          -2.0498  -21.7010  -43.4487 O.2       9 UNK        -0.5000 
     27 CA         -0.0608  -20.8008  -42.4562 C.3       9 UNK         0.1400 
     28 CB         -0.1162  -21.1890  -40.9722 C.3       9 UNK        -0.1800 
     29 N           1.3378  -20.6124  -42.8574 N.am      9 UNK        -0.5000 
     30 C           1.7443  -20.1863  -44.0596 C.2       8 UNK         0.5000 
     31 O           0.9593  -19.8914  -44.9622 O.2       8 UNK        -0.5000 
     32 CA          3.2680  -20.1249  -44.2963 C.3       8 UNK         0.1400 
     33 CB          3.6230  -19.7616  -45.7489 C.3       8 UNK        -0.1800 
     34 N           3.9591  -19.1945  -43.4037 N.am      8 UNK        -0.5000 
     35 C           4.2138  -19.3805  -42.1021 C.2       7 UNK         0.5000 
     36 O           3.8278  -20.3607  -41.4631 O.2       7 UNK        -0.5000 
     37 CA          5.0706  -18.3093  -41.4095 C.3       7 UNK         0.1400 
     38 CB          6.5578  -18.6670  -41.6362 C.3       7 UNK        -0.1800 
     39 N           4.7221  -16.9644  -41.8924 N.am      7 UNK        -0.5000 
     40 C           5.3838  -15.8192  -41.6622 C.2       6 UNK         0.5000 
     41 O           6.4368  -15.7342  -41.0300 O.2       6 UNK        -0.5000 
     42 CA          4.7328  -14.5296  -42.1933 C.3       6 UNK         0.1400 
     43 CB          4.6813  -14.5010  -43.7303 C.3       6 UNK        -0.1800 
     44 N           3.3925  -14.3499  -41.6403 N.am      6 UNK        -0.5000 
     45 C           3.1371  -13.9797  -40.3761 C.2       5 UNK         0.5000 
     46 O           4.0087  -13.6611  -39.5664 O.2       5 UNK        -0.5000 
     47 CA          1.6631  -13.9758  -39.9311 C.3       5 UNK         0.1400 
     48 CB          1.0444  -12.5779  -40.0898 C.3       5 UNK        -0.1800 
     49 N           0.8678  -14.9546  -40.6728 N.am      5 UNK        -0.5000 
     50 C           0.8676  -16.2697  -40.4092 C.2       4 UNK         0.5000 
     51 O           1.4727  -16.7764  -39.4643 O.2       4 UNK        -0.5000 
     52 CA          0.0773  -17.1807  -41.3674 C.3       4 UNK         0.1400 
     53 CB         -1.3370  -17.4333  -40.8234 C.3       4 UNK        -0.1800 
     54 N          -0.0152  -16.6579  -42.7321 N.am      4 UNK        -0.5000 
     55 C           1.0285  -16.5105  -43.5600 C.2       3 UNK         0.5000 
     56 O           2.1807  -16.8216  -43.2620 O.2       3 UNK        -0.5000 
     57 CA          0.7578  -15.8281  -44.9120 C.3       3 UNK         0.1400 
     58 CB          0.4393  -16.8563  -46.0028 C.3       3 UNK        -0.1800 
     59 N          -0.3092  -14.8275  -44.8544 N.am      3 UNK        -0.5000 
     60 C          -0.2328  -13.6885  -44.1481 C.2       2 UNK         0.5000 
     61 O           0.6979  -13.4421  -43.3794 O.2       2 UNK        -0.5000 
     62 CA         -1.3833  -12.6690  -44.3088 C.3       2 UNK         0.1400 
     63 CB         -0.9188  -11.2141  -44.0921 C.3       2 UNK        -0.1800 
     64 N          -2.1118  -12.8030  -45.5755 N.am      2 UNK        -0.5000 
     65 C          -1.6198  -12.7050  -46.8212 C.2       1 UNK         0.5000 
     66 O          -0.4691  -12.3429  -47.0718 O.2       1 UNK        -0.5000 
     67 C          -2.2562  -20.2436  -47.3202 C.2       11 UNK         0.5000 
     68 O          -3.1865  -20.1617  -48.1207 O.2       11 UNK        -0.5000 
     69 N          -2.2931  -19.7264  -46.0835 N.am      12 UNK        -0.5000 
     70 CA         -3.4511  -19.0204  -45.5314 C.3       12 UNK         0.1400 
     71 CB         -3.0945  -18.3927  -44.1768 C.3       12 UNK        -0.1800 
     72 C          -4.6898  -19.9275  -45.4190 C.2       12 UNK         0.5000 
     73 O          -5.7738  -19.5300  -45.8472 O.2       12 UNK        -0.5000 
     74 N          -4.4891  -21.1525  -44.9118 N.am      13 UNK        -0.5000 
     75 CA         -5.5061  -22.2034  -44.8156 C.3       13 UNK         0.1400 
     76 CB         -4.9247  -23.3952  -44.0405 C.3       13 UNK        -0.1800 
     77 C          -6.0448  -22.6617  -46.1859 C.2       13 UNK         0.5000 
     78 O          -7.2282  -22.9809  -46.2990 O.2       13 UNK        -0.5000 
     79 N          -5.1771  -22.6482  -47.2055 N.am      14 UNK        -0.5000 
     80 CA         -5.4902  -22.9589  -48.6013 C.3       14 UNK         0.1400 
     81 CB         -4.2543  -23.6141  -49.2387 C.3       14 UNK        -0.1800 
     82 C          -5.9864  -21.7357  -49.4071 C.2       14 UNK         0.5000 
     83 O          -6.0337  -21.8100  -50.6371 O.2       14 UNK        -0.5000 
     84 N          -6.3514  -20.6463  -48.7104 N.am      15 UNK        -0.5000 
     85 CA         -6.9251  -19.3979  -49.2224 C.3       15 UNK         0.1400 
     86 CB         -8.3083  -19.6544  -49.8575 C.3       15 UNK        -0.1800 
     87 C          -5.9590  -18.6547  -50.1626 C.2       15 UNK         0.5000 
     88 O          -6.2552  -18.4773  -51.3436 O.2       15 UNK        -0.5000 
     89 N          -4.7926  -18.2780  -49.6199 N.am      16 UNK        -0.5000 
     90 CA         -3.6410  -17.6922  -50.3228 C.3       16 UNK         0.1400 
     91 CB         -3.9924  -16.3184  -50.9334 C.3       16 UNK        -0.1800 
     92 C          -3.0410  -18.6797  -51.3452 C.2       16 UNK         0.5000 
     93 O          -2.6328  -18.2874  -52.4382 O.2       16 UNK        -0.5000 
     94 N          -3.0687  -19.9648  -50.9644 N.am      17 UNK        -0.5000 
     95 CA         -2.7243  -21.1576  -51.7362 C.3       17 UNK         0.1400 
     96 CB         -1.2031  -21.2760  -51.9179 C.3       17 UNK        -0.1800 
     97 C          -3.5038  -21.3258  -53.0550 C.2       17 UNK         0.5000 
     98 O          -3.0636  -22.0916  -53.9124 O.2       17 UNK        -0.5000 
     99 N          -4.6641  -20.6660  -53.1930 N.am      18 UNK        -0.5000 
    100 CA        -5.5408  -20.7565  -54.3621 C.3       18 UNK         0.1400 
    101 CB        -6.6729  -19.7276  -54.2472 C.3       18 UNK        -0.1800 
    102 C         -6.1163  -22.1675  -54.5662 C.2       18 UNK         0.5000 
    103 O         -6.2655  -22.5969  -55.7102 O.2       18 UNK        -0.5000 
    104 N         -6.3579  -22.8905  -53.4622 N.am      19 UNK        -0.5000 
    105 CA        -6.7839  -24.2930  -53.4654 C.3       19 UNK         0.1400 
    106 CB        -7.2013  -24.6922  -52.0418 C.3       19 UNK        -0.1800 
    107 C         -5.7123  -25.2631  -54.0103 C.2       19 UNK         0.5000 
    108 O         -6.0589  -26.3646  -54.4377 O.2       19 UNK        -0.5000 
    109 N         -4.4426  -24.8356  -53.9969 N.am      20 UNK        -0.5000 
    110 CA        -3.2882  -25.5652  -54.5221 C.3       20 UNK         0.1400 
    111 CB        -2.2018  -25.5818  -53.4323 C.3       20 UNK        -0.1800 
    112 C         -2.7412  -24.9316  -55.8184 C.2       20 UNK         0.5000 
    113 O         -1.7140  -25.3917  -56.3192 O.2       20 UNK        -0.5000 
    114 N         -3.3887  -23.8630  -56.3129 N.am      21 UNK        -0.5000 
    115 CA        -2.9809  -23.0095  -57.4385 C.3       21 UNK         0.1400 
    116 CB        -3.1613  -23.7644  -58.7712 C.3       21 UNK        -0.1800 
    117 C         -1.5630  -22.4075  -57.2784 C.2       21 UNK         0.5000 
    118 O         -0.8574  -22.2135  -58.2699 O.2       21 UNK        -0.5000 
    119 N         -1.1639  -22.1501  -56.0253 N.am      22 UNK        -0.5000 
    120 CA         0.1935  -21.7717  -55.5982 C.3       22 UNK         0.1400 
    121 C          1.2801  -22.8759  -55.8152 C.2       22 UNK         0.5000 
    122 N          0.9211  -24.1328  -56.0527 N.am      22 UNK        -0.7600 
    123 O          2.4755  -22.6057  -55.7429 O.2       22 UNK        -0.5000 
    124 C124        0.6151  -20.3641  -56.1155 C.3       23 UNK        -0.0398 
    125 S125        1.6751  -19.4675  -54.9246 S.3       23 UNK        -0.2404 
    126 C126        0.4563  -18.4008  -54.0832 C.3       23 UNK        -0.0205 
    127 H127       -5.9411  -15.0873  -47.1049 H         1 UNK         0.0600 
    128 H128       -5.2976  -16.0082  -45.7434 H         1 UNK         0.0600 
    129 H129       -5.1709  -16.6499  -47.3824 H         1 UNK         0.0600 
    130 H130       -4.6253  -13.5504  -47.9541 H         1 UNK         0.3000 
    131 H131       -3.0346  -12.1062  -48.2291 H         1 UNK         0.0600 
    132 H132       -1.1003  -12.8024  -49.5663 H         1 UNK         0.0800 
    133 H133       -2.5780  -13.5314  -50.1009 H         1 UNK         0.0800 
    134 H134        1.1303  -14.5264  -49.8094 H         1 UNK         0.0800 
    135 H135        0.0401  -14.3603  -51.1694 H         1 UNK         0.0800 
    136 H136       -0.0814  -16.0755  -52.8141 H         1 UNK         0.1150 
    137 H137        1.7903  -19.8773  -52.1419 H         1 UNK         0.1150 
    138 H138        1.6568  -16.9660  -49.0038 H         1 UNK         0.1150 
    139 H139        3.4198  -19.8776  -50.0541 H         1 UNK         0.0800 
    140 H140        2.8928  -18.9711  -48.6601 H         1 UNK         0.0800 
    141 H141       -0.3530  -19.3732  -48.9996 H         1 UNK         0.0800 
    142 H142        0.4615  -19.3976  -47.4554 H         1 UNK         0.0800 
    143 H143       -1.2714  -21.6716  -48.5515 H         1 UNK         0.0600 
    144 H144        0.2649  -21.5176  -46.0956 H         1 UNK         0.3000 
    145 H145       -1.4475  -24.2379  -44.5036 H         1 UNK         0.0600 
    146 H146        0.8212  -25.2431  -44.4785 H         1 UNK         0.0600 
    147 H147        0.1139  -25.3934  -46.0791 H         1 UNK         0.0600 
    148 H148        1.3424  -24.1701  -45.7786 H         1 UNK         0.0600 
    149 H149        0.8875  -22.7805  -43.7755 H         1 UNK         0.3000 
    150 H150       -0.5664  -19.8429  -42.5816 H         1 UNK         0.0600 
    151 H151       -1.1479  -21.3006  -40.6357 H         1 UNK         0.0600 
    152 H152        0.3479  -20.4269  -40.3460 H         1 UNK         0.0600 
    153 H153        0.3957  -22.1338  -40.7857 H         1 UNK         0.0600 
    154 H154        2.0530  -20.7958  -42.1596 H         1 UNK         0.3000 
    155 H155        3.6555  -21.1281  -44.1076 H         1 UNK         0.0600 
    156 H156        3.3018  -18.7513  -46.0022 H         1 UNK         0.0600 
    157 H157        3.1472  -20.4464  -46.4518 H         1 UNK         0.0600 
    158 H158        4.6979  -19.8228  -45.9191 H         1 UNK         0.0600 
    159 H159        4.2832  -18.3393  -43.8301 H         1 UNK         0.3000 
    160 H160        4.8522  -18.3493  -40.3410 H         1 UNK         0.0600 
    161 H161        6.8756  -18.4410  -42.6546 H         1 UNK         0.0600 
    162 H162        6.7403  -19.7293  -41.4656 H         1 UNK         0.0600 
    163 H163        7.2139  -18.1337  -40.9497 H         1 UNK         0.0600 
    164 H164        3.8278  -16.9043  -42.3776 H         1 UNK         0.3000 
    165 H165        5.3493  -13.6868  -41.8726 H         1 UNK         0.0600 
    166 H166        4.0976  -15.3225  -44.1431 H         1 UNK         0.0600 
    167 H167        4.2443  -13.5695  -44.0907 H         1 UNK         0.0600 
    168 H168        5.6849  -14.5731  -44.1510 H         1 UNK         0.0600 
    169 H169        2.6145  -14.5874  -42.2398 H         1 UNK         0.3000 
    170 H170        1.6352  -14.2326  -38.8698 H         1 UNK         0.0600 
    171 H171        1.0966  -12.2225  -41.1186 H         1 UNK         0.0600 
    172 H172       -0.0016  -12.5707  -39.7834 H         1 UNK         0.0600 
    173 H173        1.5697  -11.8507  -39.4695 H         1 UNK         0.0600 
    174 H174        0.3897  -14.6145  -41.4966 H         1 UNK         0.3000 
    175 H175        0.6096  -18.1321  -41.4083 H         1 UNK         0.0600 
    176 H176       -1.9221  -16.5139  -40.7822 H         1 UNK         0.0600 
    177 H177       -1.8802  -18.1487  -41.4389 H         1 UNK         0.0600 
    178 H178       -1.2986  -17.8436  -39.8134 H         1 UNK         0.0600 
    179 H179       -0.9218  -16.3445  -43.0451 H         1 UNK         0.3000 
    180 H180        1.6743  -15.3103  -45.2021 H         1 UNK         0.0600 
    181 H181        0.2779  -16.3717  -46.9638 H         1 UNK         0.0600 
    182 H182       -0.4509  -17.4391  -45.7690 H         1 UNK         0.0600 
    183 H183        1.2690  -17.5496  -46.1309 H         1 UNK         0.0600 
    184 H184       -1.1149  -14.9852  -45.4539 H         1 UNK         0.3000 
    185 H185       -2.1006  -12.9047  -43.5216 H         1 UNK         0.0600 
    186 H186       -0.1383  -10.9285  -44.7978 H         1 UNK         0.0600 
    187 H187       -1.7467  -10.5144  -44.2052 H         1 UNK         0.0600 
    188 H188       -0.5154  -11.0770  -43.0880 H         1 UNK         0.0600 
    189 H189       -3.0671  -13.1210  -45.4923 H         1 UNK         0.3000 
    190 H190       -1.4920  -19.8494  -45.4796 H         1 UNK         0.3000 
    191 H191       -3.6960  -18.2115  -46.2205 H         1 UNK         0.0600 
    192 H192       -3.9392  -17.8317  -43.7753 H         1 UNK         0.0600 
    193 H193       -2.2633  -17.6962  -44.2726 H         1 UNK         0.0600 
    194 H194       -2.8231  -19.1473  -43.4398 H         1 UNK         0.0600 
    195 H195       -3.5685  -21.3807  -44.5441 H         1 UNK         0.3000 
    196 H196       -6.3470  -21.8011  -44.2471 H         1 UNK         0.0600 
    197 H197       -4.0605  -23.8220  -44.5510 H         1 UNK         0.0600 
    198 H198       -4.6084  -23.0985  -43.0403 H         1 UNK         0.0600 
    199 H199       -5.6652  -24.1878  -43.9266 H         1 UNK         0.0600 
    200 H200       -4.2138  -22.4033  -47.0125 H         1 UNK         0.3000 
    201 H201       -6.2996  -23.6908  -48.6319 H         1 UNK         0.0600 
    202 H202       -3.3773  -22.9747  -49.1476 H         1 UNK         0.0600 
    203 H203       -4.4044  -23.8332  -50.2958 H         1 UNK         0.0600 
    204 H204       -4.0201  -24.5583  -48.7468 H         1 UNK         0.0600 
    205 H205       -6.2191  -20.6711  -47.7070 H         1 UNK         0.3000 
    206 H206       -7.0777  -18.7502  -48.3577 H         1 UNK         0.0600 
    207 H207       -8.9803  -20.1431  -49.1523 H         1 UNK         0.0600 
    208 H208       -8.7774  -18.7168  -50.1576 H         1 UNK         0.0600 
    209 H209       -8.2411  -20.2828  -50.7463 H         1 UNK         0.0600 
    210 H210       -4.6006  -18.5852  -48.6747 H         1 UNK         0.3000 
    211 H211       -2.8713  -17.5357  -49.5664 H         1 UNK         0.0600 
    212 H212       -3.1086  -15.8486  -51.3656 H         1 UNK         0.0600 
    213 H213       -4.3834  -15.6398  -50.1756 H         1 UNK         0.0600 
    214 H214       -4.7320  -16.3987  -51.7297 H         1 UNK         0.0600 
    215 H215       -3.4033  -20.1428  -50.0217 H         1 UNK         0.3000 
    216 H216       -3.0328  -22.0015  -51.1262 H         1 UNK         0.0600 
    217 H217       -0.8185  -20.4959  -52.5678 H         1 UNK         0.0600 
    218 H218       -0.9287  -22.2371  -52.3533 H         1 UNK         0.0600 
    219 H219       -0.6870  -21.1980  -50.9637 H         1 UNK         0.0600 
    220 H220       -4.9864  -20.0795  -52.4330 H         1 UNK         0.3000 
    221 H221       -4.9438  -20.5105  -55.2427 H         1 UNK         0.0600 
    222 H222       -6.2782  -18.7162  -54.1482 H         1 UNK         0.0600 
    223 H223       -7.3090  -19.9265  -53.3836 H         1 UNK         0.0600 
    224 H224       -7.3080  -19.7440  -55.1337 H         1 UNK         0.0600 
    225 H225       -6.2107  -22.4590  -52.5535 H         1 UNK         0.3000 
    226 H226       -7.6592  -24.3758  -54.1129 H         1 UNK         0.0600 
    227 H227       -6.3608  -24.6494  -51.3498 H         1 UNK         0.0600 
    228 H228       -7.9831  -24.0353  -51.6599 H         1 UNK         0.0600 
    229 H229       -7.5920  -25.7103  -52.0201 H         1 UNK         0.0600 
    230 H230       -4.2493  -23.9021  -53.6569 H         1 UNK         0.3000 
    231 H231       -3.5577  -26.5970  -54.7553 H         1 UNK         0.0600 
    232 H232       -1.8562  -24.5753  -53.1933 H         1 UNK         0.0600 
    233 H233       -1.3332  -26.1603  -53.7495 H         1 UNK         0.0600 
    234 H234       -2.5730  -26.0352  -52.5131 H         1 UNK         0.0600 
    235 H235       -4.2275  -23.5635  -55.8336 H         1 UNK         0.3000 
    236 H236       -3.6688  -22.1628  -57.4412 H         1 UNK         0.0600 
    237 H237       -4.1727  -24.1596  -58.8656 H         1 UNK         0.0600 
    238 H238       -2.9920  -23.1045  -59.6229 H         1 UNK         0.0600 
    239 H239       -2.4652  -24.5991  -58.8595 H         1 UNK         0.0600 
    240 H240       -1.8339  -22.2976  -55.2732 H         1 UNK         0.3000 
    241 H241        0.1045  -21.7041  -54.5149 H         1 UNK         0.0600 
    242 H242        1.6384  -24.8284  -56.1810 H         1 UNK         0.3800 
    243 H243       -0.0534  -24.4062  -56.1343 H         1 UNK         0.3800 
    244 H244        1.1361  -20.4418  -57.0711 H         1 UNK         0.0800 
    245 H245       -0.2649  -19.7511  -56.3148 H         1 UNK         0.0800 
    246 H246        0.3200  -17.5064  -54.6929 H         1 UNK         0.0800 
    247 H247       -0.5143  -18.8945  -54.0569 H         1 UNK         0.0800 
@<TRIPOS>BOND
     1    1    2 1    
     2    1  127 1    
     3    1  128 1    
     4    1  129 1    
     5    2    3 2    
     6    2    4 am   BACKBONE|DICT|INTERRES
     7    4    5 1    
     8    4  130 1    
     9    5    6 1    
    10    5   65 1    
    11    5  131 1    
    12    6    7 1    
    13    6  132 1    
    14    6  133 1    
    15    7    8 1    
    16    8    9 1    
    17    8  134 1    
    18    8  135 1    
    19    9   10 ar   
    20    9   14 ar   
    21   10   11 ar   
    22   10  136 1    
    23   11   12 ar   
    24   11  126 1    
    25   12   13 ar   
    26   12  137 1    
    27   13   14 ar   
    28   13   15 1    
    29   14  138 1    
    30   15   16 1    
    31   15  139 1    
    32   15  140 1    
    33   16   17 1    
    34   17   18 1    
    35   17  141 1    
    36   17  142 1    
    37   18   19 1    
    38   18   67 1    
    39   18  143 1    
    40   19   20 am   BACKBONE|DICT|INTERRES
    41   19  144 1    
    42   20   21 2    
    43   20   22 1    
    44   22   23 1    
    45   22   24 1    
    46   22  145 1    
    47   23  146 1    
    48   23  147 1    
    49   23  148 1    
    50   24   25 am   BACKBONE|DICT|INTERRES
    51   24  149 1    
    52   25   26 2    
    53   25   27 1    
    54   27   28 1    
    55   27   29 1    
    56   27  150 1    
    57   28  151 1    
    58   28  152 1    
    59   28  153 1    
    60   29   30 am   BACKBONE|DICT|INTERRES
    61   29  154 1    
    62   30   31 2    
    63   30   32 1    
    64   32   33 1    
    65   32   34 1    
    66   32  155 1    
    67   33  156 1    
    68   33  157 1    
    69   33  158 1    
    70   34   35 am   BACKBONE|DICT|INTERRES
    71   34  159 1    
    72   35   36 2    
    73   35   37 1    
    74   37   38 1    
    75   37   39 1    
    76   37  160 1    
    77   38  161 1    
    78   38  162 1    
    79   38  163 1    
    80   39   40 am   BACKBONE|DICT|INTERRES
    81   39  164 1    
    82   40   41 2    
    83   40   42 1    
    84   42   43 1    
    85   42   44 1    
    86   42  165 1    
    87   43  166 1    
    88   43  167 1    
    89   43  168 1    
    90   44   45 am   BACKBONE|DICT|INTERRES
    91   44  169 1    
    92   45   46 2    
    93   45   47 1    
    94   47   48 1    
    95   47   49 1    
    96   47  170 1    
    97   48  171 1    
    98   48  172 1    
    99   48  173 1    
   100   49   50 am   BACKBONE|DICT|INTERRES
   101   49  174 1    
   102   50   51 2    
   103   50   52 1    
   104   52   53 1    
   105   52   54 1    
   106   52  175 1    
   107   53  176 1    
   108   53  177 1    
   109   53  178 1    
   110   54   55 am   BACKBONE|DICT|INTERRES
   111   54  179 1    
   112   55   56 2    
   113   55   57 1    
   114   57   58 1    
   115   57   59 1    
   116   57  180 1    
   117   58  181 1    
   118   58  182 1    
   119   58  183 1    
   120   59   60 am   BACKBONE|DICT|INTERRES
   121   59  184 1    
   122   60   61 2    
   123   60   62 1    
   124   62   63 1    
   125   62   64 1    
   126   62  185 1    
   127   63  186 1    
   128   63  187 1    
   129   63  188 1    
   130   64   65 am   BACKBONE|DICT|INTERRES
   131   64  189 1    
   132   65   66 2    
   133   67   68 2    
   134   67   69 am   BACKBONE|DICT|INTERRES
   135   69   70 1    
   136   69  190 1    
   137   70   71 1    
   138   70   72 1    
   139   70  191 1    
   140   71  192 1    
   141   71  193 1    
   142   71  194 1    
   143   72   73 2    
   144   72   74 am   BACKBONE|DICT|INTERRES
   145   74   75 1    
   146   74  195 1    
   147   75   76 1    
   148   75   77 1    
   149   75  196 1    
   150   76  197 1    
   151   76  198 1    
   152   76  199 1    
   153   77   78 2    
   154   77   79 am   BACKBONE|DICT|INTERRES
   155   79   80 1    
   156   79  200 1    
   157   80   81 1    
   158   80   82 1    
   159   80  201 1    
   160   81  202 1    
   161   81  203 1    
   162   81  204 1    
   163   82   83 2    
   164   82   84 am   BACKBONE|DICT|INTERRES
   165   84   85 1    
   166   84  205 1    
   167   85   86 1    
   168   85   87 1    
   169   85  206 1    
   170   86  207 1    
   171   86  208 1    
   172   86  209 1    
   173   87   88 2    
   174   87   89 am   BACKBONE|DICT|INTERRES
   175   89   90 1    
   176   89  210 1    
   177   90   91 1    
   178   90   92 1    
   179   90  211 1    
   180   91  212 1    
   181   91  213 1    
   182   91  214 1    
   183   92   93 2    
   184   92   94 am   BACKBONE|DICT|INTERRES
   185   94   95 1    
   186   94  215 1    
   187   95   96 1    
   188   95   97 1    
   189   95  216 1    
   190   96  217 1    
   191   96  218 1    
   192   96  219 1    
   193   97   98 2    
   194   97   99 am   BACKBONE|DICT|INTERRES
   195   99  100 1    
   196   99  220 1    
   197  100  101 1    
   198  100  102 1    
   199  100  221 1    
   200  101  222 1    
   201  101  223 1    
   202  101  224 1    
   203  102  103 2    
   204  102  104 am   BACKBONE|DICT|INTERRES
   205  104  105 1    
   206  104  225 1    
   207  105  106 1    
   208  105  107 1    
   209  105  226 1    
   210  106  227 1    
   211  106  228 1    
   212  106  229 1    
   213  107  108 2    
   214  107  109 am   BACKBONE|DICT|INTERRES
   215  109  110 1    
   216  109  230 1    
   217  110  111 1    
   218  110  112 1    
   219  110  231 1    
   220  111  232 1    
   221  111  233 1    
   222  111  234 1    
   223  112  113 2    
   224  112  114 am   BACKBONE|DICT|INTERRES
   225  114  115 1    
   226  114  235 1    
   227  115  116 1    
   228  115  117 1    
   229  115  236 1    
   230  116  237 1    
   231  116  238 1    
   232  116  239 1    
   233  117  118 2    
   234  117  119 am   BACKBONE|DICT|INTERRES
   235  119  120 1    
   236  119  240 1    
   237  120  121 1    
   238  120  124 1    
   239  120  241 1    
   240  121  122 am   BACKBONE|DICT|INTERRES
   241  121  123 2    
   242  122  242 1    
   243  122  243 1    
   244  124  125 1    
   245  124  244 1    
   246  124  245 1    
   247  125  126 1    
   248  126  246 1    
   249  126  247 1    
@<TRIPOS>SUBSTRUCTURE
     1 UNK         1 GROUP             0       ****    0 ROOT    
