@<TRIPOS>MOLECULE
3R540
247   249    1
SMALL
USER_CHARGES


@<TRIPOS>ATOM
      1 CA         -3.3326   -9.9033  -44.7415 C.3       0 UNK        -0.1800 
      2 C          -2.5369  -11.0026  -45.4311 C.2       0 UNK         0.5000 
      3 O          -2.2803  -12.0385  -44.8227 O.2       0 UNK        -0.5000 
      4 N          -2.1575  -10.7789  -46.6957 N.am      1 UNK        -0.5000 
      5 CA         -1.3252  -11.6526  -47.5331 C.3       1 UNK         0.1400 
      6 C6         -1.8968  -13.0948  -47.6931 C.3       23 UNK        -0.0398 
      7 S7         -1.5797  -13.7797  -49.3581 S.3       23 UNK        -0.2404 
      8 C8         -3.2361  -13.7741  -50.1161 C.3       23 UNK        -0.0205 
      9 C9         -3.8285  -15.1740  -50.1520 C.ar      23 UNK        -0.0193 
     10 C10        -3.5263  -16.0255  -51.2193 C.ar      23 UNK        -0.1150 
     11 C11        -4.0457  -17.3218  -51.2626 C.ar      23 UNK        -0.0193 
     12 C12        -4.8850  -17.7599  -50.2382 C.ar      23 UNK        -0.1150 
     13 C13        -5.1889  -16.9227  -49.1625 C.ar      23 UNK        -0.0193 
     14 C14        -4.6646  -15.6259  -49.1254 C.ar      23 UNK        -0.1150 
     15 C15        -6.0529  -17.4492  -48.0282 C.3       23 UNK        -0.0205 
     16 S16        -5.1074  -17.8130  -46.5102 S.3       23 UNK        -0.2404 
     17 C17        -3.5725  -18.6244  -47.0952 C.3       23 UNK        -0.0398 
     18 CA         -3.6697  -20.1525  -47.3213 C.3       11 UNK         0.1400 
     19 N          -2.4558  -20.6319  -47.9911 N.am      11 UNK        -0.5000 
     20 C          -2.1130  -21.9028  -48.2442 C.2       10 UNK         0.5000 
     21 O          -2.8661  -22.8615  -48.0828 O.2       10 UNK        -0.5000 
     22 CA         -0.6518  -22.1611  -48.6680 C.3       10 UNK         0.1400 
     23 CB         -0.5534  -22.4477  -50.1718 C.3       10 UNK        -0.1800 
     24 N           0.2798  -21.0831  -48.3091 N.am      10 UNK        -0.5000 
     25 C           0.5120  -20.6482  -47.0622 C.2       9 UNK         0.5000 
     26 O          -0.0079  -21.1461  -46.0590 O.2       9 UNK        -0.5000 
     27 CA          1.3737  -19.3820  -46.9387 C.3       9 UNK         0.1400 
     28 CB          0.5350  -18.1529  -47.3351 C.3       9 UNK        -0.1800 
     29 N           1.8456  -19.2214  -45.5652 N.am      9 UNK        -0.5000 
     30 C           2.9416  -19.8116  -45.0678 C.2       8 UNK         0.5000 
     31 O           3.7226  -20.4716  -45.7551 O.2       8 UNK        -0.5000 
     32 CA          3.2198  -19.6545  -43.5594 C.3       8 UNK         0.1400 
     33 CB          4.6358  -19.1162  -43.2903 C.3       8 UNK        -0.1800 
     34 N           2.2465  -18.7731  -42.9130 N.am      8 UNK        -0.5000 
     35 C           1.3085  -19.1802  -42.0490 C.2       7 UNK         0.5000 
     36 O           1.2040  -20.3399  -41.6479 O.2       7 UNK        -0.5000 
     37 CA          0.3055  -18.1259  -41.5453 C.3       7 UNK         0.1400 
     38 CB          0.7694  -17.5435  -40.2028 C.3       7 UNK        -0.1800 
     39 N           0.0484  -17.0326  -42.4855 N.am      7 UNK        -0.5000 
     40 C          -0.5526  -17.1700  -43.6755 C.2       6 UNK         0.5000 
     41 O          -0.8462  -18.2638  -44.1574 O.2       6 UNK        -0.5000 
     42 CA         -0.8743  -15.9024  -44.4900 C.3       6 UNK         0.1400 
     43 CB         -2.3968  -15.6895  -44.6092 C.3       6 UNK        -0.1800 
     44 N          -0.1945  -14.6856  -44.0401 N.am      6 UNK        -0.5000 
     45 C          -0.4526  -13.9294  -42.9640 C.2       5 UNK         0.5000 
     46 O          -1.3057  -14.1954  -42.1152 O.2       5 UNK        -0.5000 
     47 CA          0.4616  -12.7005  -42.7946 C.3       5 UNK         0.1400 
     48 CB          0.0422  -11.7818  -41.6281 C.3       5 UNK        -0.1800 
     49 N           1.8687  -13.0955  -42.6722 N.am      5 UNK        -0.5000 
     50 C           2.4020  -13.9140  -41.7513 C.2       4 UNK         0.5000 
     51 O           1.7710  -14.3975  -40.8113 O.2       4 UNK        -0.5000 
     52 CA          3.8959  -14.2540  -41.9349 C.3       4 UNK         0.1400 
     53 CB          4.3419  -15.4873  -41.1188 C.3       4 UNK        -0.1800 
     54 N           4.2758  -14.4013  -43.3456 N.am      4 UNK        -0.5000 
     55 C           3.8076  -15.3126  -44.2106 C.2       3 UNK         0.5000 
     56 O           2.9478  -16.1538  -43.9365 O.2       3 UNK        -0.5000 
     57 CA          4.4007  -15.2267  -45.6297 C.3       3 UNK         0.1400 
     58 CB          4.2032  -16.5200  -46.4433 C.3       3 UNK        -0.1800 
     59 N           3.8995  -14.0700  -46.3815 N.am      3 UNK        -0.5000 
     60 C           2.6231  -13.7790  -46.6751 C.2       2 UNK         0.5000 
     61 O           1.6538  -14.4117  -46.2498 O.2       2 UNK        -0.5000 
     62 CA          2.4092  -12.5875  -47.6308 C.3       2 UNK         0.1400 
     63 CB          3.0920  -12.8370  -48.9876 C.3       2 UNK        -0.1800 
     64 N           0.9880  -12.3576  -47.8805 N.am      2 UNK        -0.5000 
     65 C           0.1645  -11.6449  -47.1061 C.2       1 UNK         0.5000 
     66 O           0.5474  -10.9919  -46.1314 O.2       1 UNK        -0.5000 
     67 C          -3.9425  -20.8974  -45.9934 C.2       11 UNK         0.5000 
     68 O          -5.0733  -21.3217  -45.7549 O.2       11 UNK        -0.5000 
     69 N          -2.8909  -21.0748  -45.1824 N.am      12 UNK        -0.5000 
     70 CA         -2.9351  -21.8156  -43.9267 C.3       12 UNK         0.1400 
     71 CB         -2.1193  -21.0590  -42.8678 C.3       12 UNK        -0.1800 
     72 C          -2.3901  -23.2394  -44.1101 C.2       12 UNK         0.5000 
     73 O          -3.0224  -24.1923  -43.6546 O.2       12 UNK        -0.5000 
     74 N          -1.2304  -23.3641  -44.7718 N.am      13 UNK        -0.5000 
     75 CA         -0.4565  -24.6048  -44.8654 C.3       13 UNK         0.1400 
     76 CB          0.9587  -24.2781  -45.3676 C.3       13 UNK        -0.1800 
     77 C          -1.1029  -25.7024  -45.7316 C.2       13 UNK         0.5000 
     78 O          -0.8243  -26.8809  -45.5068 O.2       13 UNK        -0.5000 
     79 N          -1.9470  -25.3088  -46.6923 N.am      14 UNK        -0.5000 
     80 CA         -2.6710  -26.2050  -47.5952 C.3       14 UNK         0.1400 
     81 CB         -2.0296  -26.1304  -48.9927 C.3       14 UNK        -0.1800 
     82 C          -4.1717  -25.8634  -47.6403 C.2       14 UNK         0.5000 
     83 O          -4.8552  -26.2825  -48.5741 O.2       14 UNK        -0.5000 
     84 N          -4.6583  -25.0800  -46.6634 N.am      15 UNK        -0.5000 
     85 CA         -6.0395  -24.5966  -46.5214 C.3       15 UNK         0.1400 
     86 CB         -6.9615  -25.7580  -46.0959 C.3       15 UNK        -0.1800 
     87 C          -6.5741  -23.8400  -47.7621 C.2       15 UNK         0.5000 
     88 O          -7.7708  -23.8996  -48.0492 O.2       15 UNK        -0.5000 
     89 N          -5.6661  -23.1705  -48.4887 N.am      16 UNK        -0.5000 
     90 CA         -5.8648  -22.4495  -49.7498 C.3       16 UNK         0.1400 
     91 CB         -6.8978  -21.3141  -49.5890 C.3       16 UNK        -0.1800 
     92 C          -6.1816  -23.3556  -50.9597 C.2       16 UNK         0.5000 
     93 O          -6.5416  -22.8310  -52.0145 O.2       16 UNK        -0.5000 
     94 N          -6.0297  -24.6835  -50.8220 N.am      17 UNK        -0.5000 
     95 CA         -6.2502  -25.6461  -51.9057 C.3       17 UNK         0.1400 
     96 CB         -6.3579  -27.0671  -51.3335 C.3       17 UNK        -0.1800 
     97 C          -5.1459  -25.5716  -52.9742 C.2       17 UNK         0.5000 
     98 O          -5.4403  -25.6607  -54.1668 O.2       17 UNK        -0.5000 
     99 N          -3.9004  -25.3494  -52.5327 N.am      18 UNK        -0.5000 
    100 CA        -2.7400  -25.0882  -53.3839 C.3       18 UNK         0.1400 
    101 CB        -1.4689  -25.5962  -52.6802 C.3       18 UNK        -0.1800 
    102 C         -2.6708  -23.5906  -53.7416 C.2       18 UNK         0.5000 
    103 O         -1.6900  -22.9169  -53.4237 O.2       18 UNK        -0.5000 
    104 N         -3.7310  -23.0900  -54.3907 N.am      19 UNK        -0.5000 
    105 CA        -3.9311  -21.6815  -54.7457 C.3       19 UNK         0.1400 
    106 CB        -5.2953  -21.5245  -55.4319 C.3       19 UNK        -0.1800 
    107 C         -2.8120  -21.0880  -55.6229 C.2       19 UNK         0.5000 
    108 O         -2.5014  -19.9034  -55.5016 O.2       19 UNK        -0.5000 
    109 N         -2.1990  -21.9329  -56.4620 N.am      20 UNK        -0.5000 
    110 CA        -1.0644  -21.5884  -57.3174 C.3       20 UNK         0.1400 
    111 CB        -0.8376  -22.7300  -58.3204 C.3       20 UNK        -0.1800 
    112 C          0.2348  -21.2875  -56.5421 C.2       20 UNK         0.5000 
    113 O          1.1005  -20.5975  -57.0821 O.2       20 UNK        -0.5000 
    114 N          0.3635  -21.8051  -55.3106 N.am      21 UNK        -0.5000 
    115 CA         1.5265  -21.5779  -54.4539 C.3       21 UNK         0.1400 
    116 CB         1.6622  -22.7251  -53.4410 C.3       21 UNK        -0.1800 
    117 C          1.4531  -20.2159  -53.7439 C.2       21 UNK         0.5000 
    118 O          2.4619  -19.5110  -53.6909 O.2       21 UNK        -0.5000 
    119 N          0.2704  -19.8668  -53.2197 N.am      22 UNK        -0.5000 
    120 CA         0.0067  -18.5671  -52.5794 C.3       22 UNK         0.1400 
    121 C         -0.3172  -17.4160  -53.5730 C.2       22 UNK         0.5000 
    122 N         -0.8400  -17.6852  -54.7623 N.am      22 UNK        -0.7600 
    123 O         -0.0723  -16.2536  -53.2637 O.2       22 UNK        -0.5000 
    124 C124       -1.0373  -18.6605  -51.4361 C.3       23 UNK        -0.0398 
    125 S125       -2.5590  -19.5836  -51.8531 S.3       23 UNK        -0.2404 
    126 C126       -3.6875  -18.2632  -52.3999 C.3       23 UNK        -0.0205 
    127 H127       -4.3074  -10.2824  -44.4346 H         1 UNK         0.0600 
    128 H128       -3.4913   -9.0450  -45.3948 H         1 UNK         0.0600 
    129 H129       -2.8034   -9.5609  -43.8522 H         1 UNK         0.0600 
    130 H130       -2.3906   -9.8904  -47.1163 H         1 UNK         0.3000 
    131 H131       -1.3507  -11.1682  -48.5107 H         1 UNK         0.0600 
    132 H132       -1.4708  -13.7710  -46.9499 H         1 UNK         0.0800 
    133 H133       -2.9714  -13.1061  -47.5083 H         1 UNK         0.0800 
    134 H134       -3.1487  -13.3915  -51.1342 H         1 UNK         0.0800 
    135 H135       -3.9040  -13.0850  -49.5976 H         1 UNK         0.0800 
    136 H136       -2.8686  -15.6841  -52.0069 H         1 UNK         0.1150 
    137 H137       -5.2739  -18.7677  -50.2663 H         1 UNK         0.1150 
    138 H138       -4.8900  -14.9800  -48.2885 H         1 UNK         0.1150 
    139 H139       -6.8258  -16.7160  -47.7938 H         1 UNK         0.0800 
    140 H140       -6.5804  -18.3521  -48.3369 H         1 UNK         0.0800 
    141 H141       -2.7968  -18.4202  -46.3565 H         1 UNK         0.0800 
    142 H142       -3.2209  -18.1305  -47.9999 H         1 UNK         0.0800 
    143 H143       -4.5024  -20.3494  -47.9963 H         1 UNK         0.0600 
    144 H144       -1.7571  -19.9309  -48.1783 H         1 UNK         0.3000 
    145 H145       -0.3365  -23.0622  -48.1407 H         1 UNK         0.0600 
    146 H146        0.4040  -22.9068  -50.4165 H         1 UNK         0.0600 
    147 H147       -1.3351  -23.1335  -50.4969 H         1 UNK         0.0600 
    148 H148       -0.6533  -21.5453  -50.7710 H         1 UNK         0.0600 
    149 H149        0.7555  -20.6334  -49.0774 H         1 UNK         0.3000 
    150 H150        2.2288  -19.4594  -47.6135 H         1 UNK         0.0600 
    151 H151        0.2989  -18.1650  -48.3994 H         1 UNK         0.0600 
    152 H152        1.0582  -17.2189  -47.1379 H         1 UNK         0.0600 
    153 H153       -0.4103  -18.1191  -46.7948 H         1 UNK         0.0600 
    154 H154        1.1970  -18.7922  -44.9181 H         1 UNK         0.3000 
    155 H155        3.1666  -20.6595  -43.1368 H         1 UNK         0.0600 
    156 H156        4.7785  -18.1194  -43.7034 H         1 UNK         0.0600 
    157 H157        5.3945  -19.7652  -43.7289 H         1 UNK         0.0600 
    158 H158        4.8363  -19.0625  -42.2202 H         1 UNK         0.0600 
    159 H159        2.2825  -17.7944  -43.1918 H         1 UNK         0.3000 
    160 H160       -0.6443  -18.6382  -41.3786 H         1 UNK         0.0600 
    161 H161        1.7344  -17.0454  -40.2942 H         1 UNK         0.0600 
    162 H162        0.8771  -18.3285  -39.4533 H         1 UNK         0.0600 
    163 H163        0.0530  -16.8188  -39.8154 H         1 UNK         0.0600 
    164 H164        0.2726  -16.0991  -42.1685 H         1 UNK         0.3000 
    165 H165       -0.4922  -16.0809  -45.4948 H         1 UNK         0.0600 
    166 H166       -2.6362  -14.8016  -45.1923 H         1 UNK         0.0600 
    167 H167       -2.8743  -15.5878  -43.6348 H         1 UNK         0.0600 
    168 H168       -2.8680  -16.5358  -45.1018 H         1 UNK         0.0600 
    169 H169        0.5733  -14.4118  -44.6484 H         1 UNK         0.3000 
    170 H170        0.3761  -12.1200  -43.7135 H         1 UNK         0.0600 
    171 H171       -0.9795  -11.4262  -41.7672 H         1 UNK         0.0600 
    172 H172        0.0815  -12.2952  -40.6671 H         1 UNK         0.0600 
    173 H173        0.6861  -10.9047  -41.5671 H         1 UNK         0.0600 
    174 H174        2.4759  -12.7739  -43.4119 H         1 UNK         0.3000 
    175 H175        4.4481  -13.3935  -41.5546 H         1 UNK         0.0600 
    176 H176        3.8046  -16.3885  -41.4145 H         1 UNK         0.0600 
    177 H177        5.4073  -15.6786  -41.2461 H         1 UNK         0.0600 
    178 H178        4.1659  -15.3374  -40.0530 H         1 UNK         0.0600 
    179 H179        4.9622  -13.7391  -43.6798 H         1 UNK         0.3000 
    180 H180        5.4764  -15.0826  -45.5163 H         1 UNK         0.0600 
    181 H181        3.1500  -16.7598  -46.5674 H         1 UNK         0.0600 
    182 H182        4.6763  -17.3693  -45.9514 H         1 UNK         0.0600 
    183 H183        4.6450  -16.4341  -47.4358 H         1 UNK         0.0600 
    184 H184        4.6168  -13.4674  -46.7599 H         1 UNK         0.3000 
    185 H185        2.8479  -11.6983  -47.1734 H         1 UNK         0.0600 
    186 H186        4.1734  -12.9290  -48.8824 H         1 UNK         0.0600 
    187 H187        2.7285  -13.7517  -49.4581 H         1 UNK         0.0600 
    188 H188        2.9092  -12.0124  -49.6771 H         1 UNK         0.0600 
    189 H189        0.5798  -12.9002  -48.6298 H         1 UNK         0.3000 
    190 H190       -1.9789  -20.7370  -45.4684 H         1 UNK         0.3000 
    191 H191       -3.9623  -21.8916  -43.5636 H         1 UNK         0.0600 
    192 H192       -2.1156  -21.5926  -41.9166 H         1 UNK         0.0600 
    193 H193       -2.5364  -20.0685  -42.6855 H         1 UNK         0.0600 
    194 H194       -1.0815  -20.9293  -43.1773 H         1 UNK         0.0600 
    195 H195       -0.7808  -22.5286  -45.1408 H         1 UNK         0.3000 
    196 H196       -0.3643  -25.0094  -43.8553 H         1 UNK         0.0600 
    197 H197        0.9469  -23.8690  -46.3771 H         1 UNK         0.0600 
    198 H198        1.4493  -23.5511  -44.7198 H         1 UNK         0.0600 
    199 H199        1.5837  -25.1719  -45.3843 H         1 UNK         0.0600 
    200 H200       -2.1257  -24.3202  -46.8263 H         1 UNK         0.3000 
    201 H201       -2.6070  -27.2361  -47.2430 H         1 UNK         0.0600 
    202 H202       -2.1444  -25.1389  -49.4290 H         1 UNK         0.0600 
    203 H203       -2.4868  -26.8463  -49.6769 H         1 UNK         0.0600 
    204 H204       -0.9644  -26.3579  -48.9521 H         1 UNK         0.0600 
    205 H205       -4.0214  -24.7953  -45.9324 H         1 UNK         0.3000 
    206 H206       -6.0269  -23.8714  -45.7071 H         1 UNK         0.0600 
    207 H207       -6.5760  -26.2627  -45.2100 H         1 UNK         0.0600 
    208 H208       -7.9614  -25.3975  -45.8516 H         1 UNK         0.0600 
    209 H209       -7.0647  -26.5010  -46.8874 H         1 UNK         0.0600 
    210 H210       -4.6994  -23.2008  -48.1724 H         1 UNK         0.3000 
    211 H211       -4.9034  -21.9848  -49.9737 H         1 UNK         0.0600 
    212 H212       -6.8654  -20.6339  -50.4406 H         1 UNK         0.0600 
    213 H213       -6.7096  -20.7263  -48.6919 H         1 UNK         0.0600 
    214 H214       -7.9154  -21.6999  -49.5242 H         1 UNK         0.0600 
    215 H215       -5.7282  -25.0641  -49.9303 H         1 UNK         0.3000 
    216 H216       -7.2006  -25.4050  -52.3867 H         1 UNK         0.0600 
    217 H217       -5.4140  -27.4036  -50.9035 H         1 UNK         0.0600 
    218 H218       -6.6319  -27.7789  -52.1130 H         1 UNK         0.0600 
    219 H219       -7.1203  -27.1244  -50.5563 H         1 UNK         0.0600 
    220 H220       -3.7617  -25.2512  -51.5381 H         1 UNK         0.3000 
    221 H221       -2.8401  -25.6424  -54.3195 H         1 UNK         0.0600 
    222 H222       -1.5350  -26.6639  -52.4710 H         1 UNK         0.0600 
    223 H223       -1.2919  -25.0823  -51.7370 H         1 UNK         0.0600 
    224 H224       -0.5887  -25.4419  -53.3057 H         1 UNK         0.0600 
    225 H225       -4.4971  -23.7207  -54.5931 H         1 UNK         0.3000 
    226 H226       -3.9579  -21.1151  -53.8153 H         1 UNK         0.0600 
    227 H227       -5.3511  -22.1031  -56.3547 H         1 UNK         0.0600 
    228 H228       -6.1039  -21.8537  -54.7786 H         1 UNK         0.0600 
    229 H229       -5.4878  -20.4808  -55.6844 H         1 UNK         0.0600 
    230 H230       -2.5159  -22.8906  -56.4901 H         1 UNK         0.3000 
    231 H231       -1.3259  -20.6880  -57.8774 H         1 UNK         0.0600 
    232 H232       -0.5902  -23.6650  -57.8160 H         1 UNK         0.0600 
    233 H233       -0.0168  -22.4966  -58.9999 H         1 UNK         0.0600 
    234 H234       -1.7240  -22.9011  -58.9316 H         1 UNK         0.0600 
    235 H235       -0.4067  -22.3218  -54.9004 H         1 UNK         0.3000 
    236 H236        2.4261  -21.5828  -55.0733 H         1 UNK         0.0600 
    237 H237        1.7505  -23.6878  -53.9446 H         1 UNK         0.0600 
    238 H238        2.5524  -22.5964  -52.8242 H         1 UNK         0.0600 
    239 H239        0.8064  -22.7772  -52.7703 H         1 UNK         0.0600 
    240 H240       -0.5194  -20.4917  -53.3096 H         1 UNK         0.3000 
    241 H241        0.9337  -18.2551  -52.0934 H         1 UNK         0.0600 
    242 H242       -1.0272  -16.9257  -55.3963 H         1 UNK         0.3800 
    243 H243       -1.1743  -18.6158  -54.9940 H         1 UNK         0.3800 
    244 H244       -1.2849  -17.6718  -51.0484 H         1 UNK         0.0800 
    245 H245       -0.5814  -19.1788  -50.5938 H         1 UNK         0.0800 
    246 H246       -4.5991  -18.7203  -52.7871 H         1 UNK         0.0800 
    247 H247       -3.2452  -17.7194  -53.2348 H         1 UNK         0.0800 
@<TRIPOS>BOND
     1    1    2 1    
     2    1  127 1    
     3    1  128 1    
     4    1  129 1    
     5    2    3 2    
     6    2    4 am   BACKBONE|DICT|INTERRES
     7    4    5 1    
     8    4  130 1    
     9    5    6 1    
    10    5   65 1    
    11    5  131 1    
    12    6    7 1    
    13    6  132 1    
    14    6  133 1    
    15    7    8 1    
    16    8    9 1    
    17    8  134 1    
    18    8  135 1    
    19    9   10 ar   
    20    9   14 ar   
    21   10   11 ar   
    22   10  136 1    
    23   11   12 ar   
    24   11  126 1    
    25   12   13 ar   
    26   12  137 1    
    27   13   14 ar   
    28   13   15 1    
    29   14  138 1    
    30   15   16 1    
    31   15  139 1    
    32   15  140 1    
    33   16   17 1    
    34   17   18 1    
    35   17  141 1    
    36   17  142 1    
    37   18   19 1    
    38   18   67 1    
    39   18  143 1    
    40   19   20 am   BACKBONE|DICT|INTERRES
    41   19  144 1    
    42   20   21 2    
    43   20   22 1    
    44   22   23 1    
    45   22   24 1    
    46   22  145 1    
    47   23  146 1    
    48   23  147 1    
    49   23  148 1    
    50   24   25 am   BACKBONE|DICT|INTERRES
    51   24  149 1    
    52   25   26 2    
    53   25   27 1    
    54   27   28 1    
    55   27   29 1    
    56   27  150 1    
    57   28  151 1    
    58   28  152 1    
    59   28  153 1    
    60   29   30 am   BACKBONE|DICT|INTERRES
    61   29  154 1    
    62   30   31 2    
    63   30   32 1    
    64   32   33 1    
    65   32   34 1    
    66   32  155 1    
    67   33  156 1    
    68   33  157 1    
    69   33  158 1    
    70   34   35 am   BACKBONE|DICT|INTERRES
    71   34  159 1    
    72   35   36 2    
    73   35   37 1    
    74   37   38 1    
    75   37   39 1    
    76   37  160 1    
    77   38  161 1    
    78   38  162 1    
    79   38  163 1    
    80   39   40 am   BACKBONE|DICT|INTERRES
    81   39  164 1    
    82   40   41 2    
    83   40   42 1    
    84   42   43 1    
    85   42   44 1    
    86   42  165 1    
    87   43  166 1    
    88   43  167 1    
    89   43  168 1    
    90   44   45 am   BACKBONE|DICT|INTERRES
    91   44  169 1    
    92   45   46 2    
    93   45   47 1    
    94   47   48 1    
    95   47   49 1    
    96   47  170 1    
    97   48  171 1    
    98   48  172 1    
    99   48  173 1    
   100   49   50 am   BACKBONE|DICT|INTERRES
   101   49  174 1    
   102   50   51 2    
   103   50   52 1    
   104   52   53 1    
   105   52   54 1    
   106   52  175 1    
   107   53  176 1    
   108   53  177 1    
   109   53  178 1    
   110   54   55 am   BACKBONE|DICT|INTERRES
   111   54  179 1    
   112   55   56 2    
   113   55   57 1    
   114   57   58 1    
   115   57   59 1    
   116   57  180 1    
   117   58  181 1    
   118   58  182 1    
   119   58  183 1    
   120   59   60 am   BACKBONE|DICT|INTERRES
   121   59  184 1    
   122   60   61 2    
   123   60   62 1    
   124   62   63 1    
   125   62   64 1    
   126   62  185 1    
   127   63  186 1    
   128   63  187 1    
   129   63  188 1    
   130   64   65 am   BACKBONE|DICT|INTERRES
   131   64  189 1    
   132   65   66 2    
   133   67   68 2    
   134   67   69 am   BACKBONE|DICT|INTERRES
   135   69   70 1    
   136   69  190 1    
   137   70   71 1    
   138   70   72 1    
   139   70  191 1    
   140   71  192 1    
   141   71  193 1    
   142   71  194 1    
   143   72   73 2    
   144   72   74 am   BACKBONE|DICT|INTERRES
   145   74   75 1    
   146   74  195 1    
   147   75   76 1    
   148   75   77 1    
   149   75  196 1    
   150   76  197 1    
   151   76  198 1    
   152   76  199 1    
   153   77   78 2    
   154   77   79 am   BACKBONE|DICT|INTERRES
   155   79   80 1    
   156   79  200 1    
   157   80   81 1    
   158   80   82 1    
   159   80  201 1    
   160   81  202 1    
   161   81  203 1    
   162   81  204 1    
   163   82   83 2    
   164   82   84 am   BACKBONE|DICT|INTERRES
   165   84   85 1    
   166   84  205 1    
   167   85   86 1    
   168   85   87 1    
   169   85  206 1    
   170   86  207 1    
   171   86  208 1    
   172   86  209 1    
   173   87   88 2    
   174   87   89 am   BACKBONE|DICT|INTERRES
   175   89   90 1    
   176   89  210 1    
   177   90   91 1    
   178   90   92 1    
   179   90  211 1    
   180   91  212 1    
   181   91  213 1    
   182   91  214 1    
   183   92   93 2    
   184   92   94 am   BACKBONE|DICT|INTERRES
   185   94   95 1    
   186   94  215 1    
   187   95   96 1    
   188   95   97 1    
   189   95  216 1    
   190   96  217 1    
   191   96  218 1    
   192   96  219 1    
   193   97   98 2    
   194   97   99 am   BACKBONE|DICT|INTERRES
   195   99  100 1    
   196   99  220 1    
   197  100  101 1    
   198  100  102 1    
   199  100  221 1    
   200  101  222 1    
   201  101  223 1    
   202  101  224 1    
   203  102  103 2    
   204  102  104 am   BACKBONE|DICT|INTERRES
   205  104  105 1    
   206  104  225 1    
   207  105  106 1    
   208  105  107 1    
   209  105  226 1    
   210  106  227 1    
   211  106  228 1    
   212  106  229 1    
   213  107  108 2    
   214  107  109 am   BACKBONE|DICT|INTERRES
   215  109  110 1    
   216  109  230 1    
   217  110  111 1    
   218  110  112 1    
   219  110  231 1    
   220  111  232 1    
   221  111  233 1    
   222  111  234 1    
   223  112  113 2    
   224  112  114 am   BACKBONE|DICT|INTERRES
   225  114  115 1    
   226  114  235 1    
   227  115  116 1    
   228  115  117 1    
   229  115  236 1    
   230  116  237 1    
   231  116  238 1    
   232  116  239 1    
   233  117  118 2    
   234  117  119 am   BACKBONE|DICT|INTERRES
   235  119  120 1    
   236  119  240 1    
   237  120  121 1    
   238  120  124 1    
   239  120  241 1    
   240  121  122 am   BACKBONE|DICT|INTERRES
   241  121  123 2    
   242  122  242 1    
   243  122  243 1    
   244  124  125 1    
   245  124  244 1    
   246  124  245 1    
   247  125  126 1    
   248  126  246 1    
   249  126  247 1    
@<TRIPOS>SUBSTRUCTURE
     1 UNK         1 GROUP             0       ****    0 ROOT    
