@<TRIPOS>MOLECULE
3R540
247   249    1
SMALL
USER_CHARGES


@<TRIPOS>ATOM
      1 CA          5.6419   -8.7515  -48.9434 C.3       0 UNK        -0.1800 
      2 C           4.6931   -9.8772  -48.5554 C.2       0 UNK         0.5000 
      3 O           4.1341   -9.8560  -47.4584 O.2       0 UNK        -0.5000 
      4 N           4.5173  -10.8617  -49.4454 N.am      1 UNK        -0.5000 
      5 CA          3.5916  -11.9851  -49.2768 C.3       1 UNK         0.1400 
      6 C6          3.9295  -13.1357  -50.2563 C.3       23 UNK        -0.0398 
      7 S7          3.1718  -14.7253  -49.7767 S.3       23 UNK        -0.2404 
      8 C8          3.6114  -15.7359  -51.2209 C.3       23 UNK        -0.0205 
      9 C9          2.8272  -17.0376  -51.2455 C.ar      23 UNK        -0.0193 
     10 C10         1.6891  -17.1550  -52.0509 C.ar      23 UNK        -0.1150 
     11 C11         0.9650  -18.3527  -52.0984 C.ar      23 UNK        -0.0193 
     12 C12         1.4073  -19.4329  -51.3277 C.ar      23 UNK        -0.1150 
     13 C13         2.5491  -19.3361  -50.5293 C.ar      23 UNK        -0.0193 
     14 C14         3.2525  -18.1306  -50.4846 C.ar      23 UNK        -0.1150 
     15 C15         3.0373  -20.5548  -49.7611 C.3       23 UNK        -0.0205 
     16 S16         2.0974  -20.8090  -48.2242 S.3       23 UNK        -0.2404 
     17 C17         2.2133  -22.6236  -48.0419 C.3       23 UNK        -0.0398 
     18 CA          1.1372  -23.2617  -47.1291 C.3       11 UNK         0.1400 
     19 N           1.2204  -22.8024  -45.7411 N.am      11 UNK        -0.5000 
     20 C           0.6539  -23.4347  -44.7046 C.2       10 UNK         0.5000 
     21 O          -0.0068  -24.4652  -44.8329 O.2       10 UNK        -0.5000 
     22 CA          0.7836  -22.8061  -43.3047 C.3       10 UNK         0.1400 
     23 CB          1.1492  -23.8480  -42.2288 C.3       10 UNK        -0.1800 
     24 N           1.6656  -21.6384  -43.2404 N.am      10 UNK        -0.5000 
     25 C           2.9985  -21.5757  -43.3708 C.2       9 UNK         0.5000 
     26 O           3.7175  -22.5521  -43.5827 O.2       9 UNK        -0.5000 
     27 CA          3.6373  -20.1742  -43.2706 C.3       9 UNK         0.1400 
     28 CB          4.0860  -19.6993  -44.6619 C.3       9 UNK        -0.1800 
     29 N           2.7393  -19.1672  -42.6974 N.am      9 UNK        -0.5000 
     30 C           2.3683  -19.1008  -41.4111 C.2       8 UNK         0.5000 
     31 O           2.8265  -19.8270  -40.5287 O.2       8 UNK        -0.5000 
     32 CA          1.2583  -18.0884  -41.0661 C.3       8 UNK         0.1400 
     33 CB          1.8470  -16.6910  -40.8215 C.3       8 UNK        -0.1800 
     34 N           0.2174  -18.0164  -42.0975 N.am      8 UNK        -0.5000 
     35 C          -0.6229  -19.0183  -42.3980 C.2       7 UNK         0.5000 
     36 O          -0.6369  -20.0943  -41.8022 O.2       7 UNK        -0.5000 
     37 CA         -1.5766  -18.8130  -43.5875 C.3       7 UNK         0.1400 
     38 CB         -2.8275  -18.0326  -43.1602 C.3       7 UNK        -0.1800 
     39 N          -0.9242  -18.1383  -44.7089 N.am      7 UNK        -0.5000 
     40 C           0.0026  -18.6995  -45.4984 C.2       6 UNK         0.5000 
     41 O           0.3140  -19.8896  -45.4335 O.2       6 UNK        -0.5000 
     42 CA          0.7164  -17.7781  -46.5087 C.3       6 UNK         0.1400 
     43 CB         -0.0344  -17.7347  -47.8438 C.3       6 UNK        -0.1800 
     44 N           0.8856  -16.4127  -46.0118 N.am      6 UNK        -0.5000 
     45 C           1.6652  -16.0755  -44.9764 C.2       5 UNK         0.5000 
     46 O           2.3573  -16.8785  -44.3537 O.2       5 UNK        -0.5000 
     47 CA          1.6171  -14.6074  -44.5239 C.3       5 UNK         0.1400 
     48 CB          2.5382  -13.7322  -45.3889 C.3       5 UNK        -0.1800 
     49 N           0.2509  -14.0830  -44.5517 N.am      5 UNK        -0.5000 
     50 C          -0.7042  -14.4281  -43.6764 C.2       4 UNK         0.5000 
     51 O          -0.5172  -15.2010  -42.7373 O.2       4 UNK        -0.5000 
     52 CA         -2.1105  -13.8414  -43.9062 C.3       4 UNK         0.1400 
     53 CB         -2.2212  -12.4438  -43.2794 C.3       4 UNK        -0.1800 
     54 N          -2.4709  -13.7658  -45.3226 N.am      4 UNK        -0.5000 
     55 C          -2.6740  -14.8314  -46.1105 C.2       3 UNK         0.5000 
     56 O          -2.6315  -15.9927  -45.7093 O.2       3 UNK        -0.5000 
     57 CA         -2.9020  -14.5572  -47.6097 C.3       3 UNK         0.1400 
     58 CB         -4.3962  -14.3747  -47.9112 C.3       3 UNK        -0.1800 
     59 N          -2.1528  -13.4053  -48.1252 N.am      3 UNK        -0.5000 
     60 C          -0.8198  -13.2852  -48.0706 C.2       2 UNK         0.5000 
     61 O          -0.0821  -14.1110  -47.5232 O.2       2 UNK        -0.5000 
     62 CA         -0.2114  -12.0100  -48.6710 C.3       2 UNK         0.1400 
     63 CB         -0.5718  -10.7714  -47.8286 C.3       2 UNK        -0.1800 
     64 N           1.2325  -12.1925  -48.6927 N.am      2 UNK        -0.5000 
     65 C           2.1245  -11.5190  -49.4197 C.2       1 UNK         0.5000 
     66 O           1.8339  -10.5956  -50.1854 O.2       1 UNK        -0.5000 
     67 C          -0.2944  -23.1245  -47.6887 C.2       11 UNK         0.5000 
     68 O          -0.7620  -24.0262  -48.3850 O.2       11 UNK        -0.5000 
     69 N          -0.9893  -22.0396  -47.3117 N.am      12 UNK        -0.5000 
     70 CA         -2.3951  -21.8053  -47.6458 C.3       12 UNK         0.1400 
     71 CB         -2.7806  -20.3672  -47.2687 C.3       12 UNK        -0.1800 
     72 C          -3.3392  -22.8163  -46.9720 C.2       12 UNK         0.5000 
     73 O          -4.3201  -23.2366  -47.5865 O.2       12 UNK        -0.5000 
     74 N          -3.0065  -23.1986  -45.7313 N.am      13 UNK        -0.5000 
     75 CA         -3.7319  -24.1922  -44.9437 C.3       13 UNK         0.1400 
     76 CB         -3.3146  -24.0845  -43.4685 C.3       13 UNK        -0.1800 
     77 C          -3.5158  -25.6171  -45.4800 C.2       13 UNK         0.5000 
     78 O          -4.4864  -26.3595  -45.6259 O.2       13 UNK        -0.5000 
     79 N          -2.2587  -25.9599  -45.7980 N.am      14 UNK        -0.5000 
     80 CA         -1.8574  -27.2520  -46.3596 C.3       14 UNK         0.1400 
     81 CB         -0.3243  -27.3331  -46.4103 C.3       14 UNK        -0.1800 
     82 C          -2.4580  -27.5191  -47.7514 C.2       14 UNK         0.5000 
     83 O          -2.8610  -28.6482  -48.0329 O.2       14 UNK        -0.5000 
     84 N          -2.5329  -26.4720  -48.5840 N.am      15 UNK        -0.5000 
     85 CA         -3.1552  -26.5115  -49.9083 C.3       15 UNK         0.1400 
     86 CB         -2.6470  -25.3171  -50.7238 C.3       15 UNK        -0.1800 
     87 C          -4.6971  -26.5095  -49.8676 C.2       15 UNK         0.5000 
     88 O          -5.3215  -26.8021  -50.8881 O.2       15 UNK        -0.5000 
     89 N          -5.2805  -26.1558  -48.7129 N.am      16 UNK        -0.5000 
     90 CA         -6.7060  -26.0587  -48.3730 C.3       16 UNK         0.1400 
     91 CB         -7.4200  -27.4135  -48.5355 C.3       16 UNK        -0.1800 
     92 C          -7.4638  -24.9336  -49.1039 C.2       16 UNK         0.5000 
     93 O          -8.1691  -24.1601  -48.4565 O.2       16 UNK        -0.5000 
     94 N          -7.2834  -24.8243  -50.4250 N.am      17 UNK        -0.5000 
     95 CA         -7.8866  -23.8210  -51.3084 C.3       17 UNK         0.1400 
     96 CB         -7.9798  -24.4147  -52.7253 C.3       17 UNK        -0.1800 
     97 C          -7.1267  -22.4752  -51.2894 C.2       17 UNK         0.5000 
     98 O          -6.9856  -21.8277  -52.3303 O.2       17 UNK        -0.5000 
     99 N          -6.5961  -22.1005  -50.1153 N.am      18 UNK        -0.5000 
    100 CA        -5.7985  -20.9018  -49.8278 C.3       18 UNK         0.1400 
    101 CB        -6.6911  -19.6458  -49.8707 C.3       18 UNK        -0.1800 
    102 C         -4.5332  -20.7653  -50.7047 C.2       18 UNK         0.5000 
    103 O         -4.0617  -19.6507  -50.9316 O.2       18 UNK        -0.5000 
    104 N         -4.0339  -21.9058  -51.2074 N.am      19 UNK        -0.5000 
    105 CA        -2.9548  -22.0477  -52.1909 C.3       19 UNK         0.1400 
    106 CB        -1.5899  -21.7264  -51.5498 C.3       19 UNK        -0.1800 
    107 C         -3.2251  -21.2786  -53.5027 C.2       19 UNK         0.5000 
    108 O         -2.3031  -20.7083  -54.0810 O.2       19 UNK        -0.5000 
    109 N         -4.4935  -21.2804  -53.9418 N.am      20 UNK        -0.5000 
    110 CA        -5.0403  -20.4892  -55.0483 C.3       20 UNK         0.1400 
    111 CB        -4.3524  -20.8044  -56.3944 C.3       20 UNK        -0.1800 
    112 C         -5.0612  -18.9896  -54.6926 C.2       20 UNK         0.5000 
    113 O         -4.5153  -18.1566  -55.4171 O.2       20 UNK        -0.5000 
    114 N         -5.7053  -18.6963  -53.5561 N.am      21 UNK        -0.5000 
    115 CA        -6.0327  -17.3859  -52.9835 C.3       21 UNK         0.1400 
    116 CB        -6.8496  -16.5321  -53.9737 C.3       21 UNK        -0.1800 
    117 C         -4.8629  -16.5765  -52.3897 C.2       21 UNK         0.5000 
    118 O         -5.1265  -15.7512  -51.5134 O.2       21 UNK        -0.5000 
    119 N         -3.6191  -16.7826  -52.8457 N.am      22 UNK        -0.5000 
    120 CA        -2.4502  -16.0231  -52.3630 C.3       22 UNK         0.1400 
    121 C         -1.9105  -16.4003  -50.9550 C.2       22 UNK         0.5000 
    122 N         -2.3839  -17.4563  -50.3053 N.am      22 UNK        -0.7600 
    123 O         -1.0552  -15.6968  -50.4299 O.2       22 UNK        -0.5000 
    124 C124       -1.3318  -15.8469  -53.4268 C.3       23 UNK        -0.0398 
    125 S125       -0.6408  -17.3235  -54.2633 S.3       23 UNK        -0.2404 
    126 C126       -0.2813  -18.5601  -52.9643 C.3       23 UNK        -0.0205 
    127 H127        5.1113   -7.7993  -48.9486 H         1 UNK         0.0600 
    128 H128        6.4585   -8.6842  -48.2245 H         1 UNK         0.0600 
    129 H129        6.0723   -8.9062  -49.9331 H         1 UNK         0.0600 
    130 H130        4.9792  -10.8029  -50.3416 H         1 UNK         0.3000 
    131 H131        3.7303  -12.3591  -48.2594 H         1 UNK         0.0600 
    132 H132        5.0088  -13.2931  -50.2849 H         1 UNK         0.0800 
    133 H133        3.6323  -12.8786  -51.2748 H         1 UNK         0.0800 
    134 H134        4.6820  -15.9455  -51.2043 H         1 UNK         0.0800 
    135 H135        3.4220  -15.1712  -52.1352 H         1 UNK         0.0800 
    136 H136        1.3831  -16.3069  -52.6411 H         1 UNK         0.1150 
    137 H137        0.8697  -20.3687  -51.3587 H         1 UNK         0.1150 
    138 H138        4.1370  -18.0445  -49.8693 H         1 UNK         0.1150 
    139 H139        2.9511  -21.4292  -50.4073 H         1 UNK         0.0800 
    140 H140        4.0967  -20.4592  -49.5186 H         1 UNK         0.0800 
    141 H141        3.2053  -22.8590  -47.6540 H         1 UNK         0.0800 
    142 H142        2.1647  -23.0876  -49.0283 H         1 UNK         0.0800 
    143 H143        1.3515  -24.3327  -47.1140 H         1 UNK         0.0600 
    144 H144        1.6668  -21.9098  -45.5810 H         1 UNK         0.3000 
    145 H145       -0.2124  -22.4329  -43.0650 H         1 UNK         0.0600 
    146 H146        1.2149  -23.3885  -41.2425 H         1 UNK         0.0600 
    147 H147        0.3925  -24.6313  -42.1703 H         1 UNK         0.0600 
    148 H148        2.1022  -24.3337  -42.4392 H         1 UNK         0.0600 
    149 H149        1.1842  -20.7624  -43.0888 H         1 UNK         0.3000 
    150 H150        4.5184  -20.2561  -42.6313 H         1 UNK         0.0600 
    151 H151        4.7899  -20.4018  -45.1098 H         1 UNK         0.0600 
    152 H152        4.5834  -18.7308  -44.6076 H         1 UNK         0.0600 
    153 H153        3.2407  -19.6031  -45.3441 H         1 UNK         0.0600 
    154 H154        2.3831  -18.4631  -43.3397 H         1 UNK         0.3000 
    155 H155        0.7855  -18.4204  -40.1394 H         1 UNK         0.0600 
    156 H156        2.3295  -16.2932  -41.7138 H         1 UNK         0.0600 
    157 H157        2.5953  -16.7168  -40.0285 H         1 UNK         0.0600 
    158 H158        1.0740  -15.9855  -40.5161 H         1 UNK         0.0600 
    159 H159        0.1281  -17.1351  -42.5917 H         1 UNK         0.3000 
    160 H160       -1.8986  -19.8008  -43.9231 H         1 UNK         0.0600 
    161 H161       -3.5452  -17.9640  -43.9779 H         1 UNK         0.0600 
    162 H162       -2.5832  -17.0188  -42.8434 H         1 UNK         0.0600 
    163 H163       -3.3304  -18.5256  -42.3274 H         1 UNK         0.0600 
    164 H164       -1.2094  -17.1825  -44.8929 H         1 UNK         0.3000 
    165 H165        1.7097  -18.1913  -46.6921 H         1 UNK         0.0600 
    166 H166        0.4888  -17.1086  -48.5680 H         1 UNK         0.0600 
    167 H167       -0.1147  -18.7297  -48.2818 H         1 UNK         0.0600 
    168 H168       -1.0406  -17.3359  -47.7187 H         1 UNK         0.0600 
    169 H169        0.3833  -15.6773  -46.5019 H         1 UNK         0.3000 
    170 H170        1.9795  -14.5590  -43.4949 H         1 UNK         0.0600 
    171 H171        3.5774  -14.0457  -45.2826 H         1 UNK         0.0600 
    172 H172        2.2897  -13.7994  -46.4471 H         1 UNK         0.0600 
    173 H173        2.4830  -12.6840  -45.0948 H         1 UNK         0.0600 
    174 H174       -0.0009  -13.5216  -45.3527 H         1 UNK         0.3000 
    175 H175       -2.8288  -14.4961  -43.4081 H         1 UNK         0.0600 
    176 H176       -3.2347  -12.0519  -43.3661 H         1 UNK         0.0600 
    177 H177       -1.9749  -12.4724  -42.2170 H         1 UNK         0.0600 
    178 H178       -1.5438  -11.7330  -43.7545 H         1 UNK         0.0600 
    179 H179       -2.5221  -12.8463  -45.7350 H         1 UNK         0.3000 
    180 H180       -2.5562  -15.4394  -48.1492 H         1 UNK         0.0600 
    181 H181       -4.7978  -13.4788  -47.4363 H         1 UNK         0.0600 
    182 H182       -4.9736  -15.2270  -47.5502 H         1 UNK         0.0600 
    183 H183       -4.5737  -14.2981  -48.9843 H         1 UNK         0.0600 
    184 H184       -2.6935  -12.6841  -48.5796 H         1 UNK         0.3000 
    185 H185       -0.5788  -11.8952  -49.6926 H         1 UNK         0.0600 
    186 H186       -0.2230  -10.8713  -46.7999 H         1 UNK         0.0600 
    187 H187       -0.1279   -9.8664  -48.2435 H         1 UNK         0.0600 
    188 H188       -1.6502  -10.6130  -47.7977 H         1 UNK         0.0600 
    189 H189        1.5278  -13.0048  -48.1635 H         1 UNK         0.3000 
    190 H190       -0.5250  -21.3471  -46.7334 H         1 UNK         0.3000 
    191 H191       -2.5122  -21.9188  -48.7236 H         1 UNK         0.0600 
    192 H192       -2.5753  -20.1572  -46.2198 H         1 UNK         0.0600 
    193 H193       -3.8411  -20.1789  -47.4299 H         1 UNK         0.0600 
    194 H194       -2.2348  -19.6456  -47.8734 H         1 UNK         0.0600 
    195 H195       -2.1626  -22.8245  -45.3261 H         1 UNK         0.3000 
    196 H196       -4.7988  -23.9676  -45.0100 H         1 UNK         0.0600 
    197 H197       -3.8757  -24.7900  -42.8545 H         1 UNK         0.0600 
    198 H198       -3.5090  -23.0864  -43.0753 H         1 UNK         0.0600 
    199 H199       -2.2555  -24.3000  -43.3265 H         1 UNK         0.0600 
    200 H200       -1.5050  -25.3084  -45.5936 H         1 UNK         0.3000 
    201 H201       -2.2180  -28.0332  -45.6874 H         1 UNK         0.0600 
    202 H202        0.1088  -27.2315  -45.4151 H         1 UNK         0.0600 
    203 H203        0.0982  -26.5498  -47.0405 H         1 UNK         0.0600 
    204 H204        0.0045  -28.2925  -46.8116 H         1 UNK         0.0600 
    205 H205       -2.1166  -25.5897  -48.3038 H         1 UNK         0.3000 
    206 H206       -2.8427  -27.4271  -50.4148 H         1 UNK         0.0600 
    207 H207       -1.5619  -25.3409  -50.8267 H         1 UNK         0.0600 
    208 H208       -3.0693  -25.3240  -51.7291 H         1 UNK         0.0600 
    209 H209       -2.9164  -24.3736  -50.2488 H         1 UNK         0.0600 
    210 H210       -4.6604  -25.9078  -47.9534 H         1 UNK         0.3000 
    211 H211       -6.7300  -25.8070  -47.3115 H         1 UNK         0.0600 
    212 H212       -7.4579  -27.7358  -49.5763 H         1 UNK         0.0600 
    213 H213       -8.4482  -27.3553  -48.1764 H         1 UNK         0.0600 
    214 H214       -6.9186  -28.1924  -47.9608 H         1 UNK         0.0600 
    215 H215       -6.6574  -25.4992  -50.8579 H         1 UNK         0.3000 
    216 H216       -8.9024  -23.6154  -50.9650 H         1 UNK         0.0600 
    217 H217       -8.4918  -23.7339  -53.4065 H         1 UNK         0.0600 
    218 H218       -8.5406  -25.3496  -52.7242 H         1 UNK         0.0600 
    219 H219       -6.9918  -24.6175  -53.1407 H         1 UNK         0.0600 
    220 H220       -6.7756  -22.7032  -49.3211 H         1 UNK         0.3000 
    221 H221       -5.4454  -21.0174  -48.8046 H         1 UNK         0.0600 
    222 H222       -7.1257  -19.4957  -50.8580 H         1 UNK         0.0600 
    223 H223       -7.5117  -19.7269  -49.1580 H         1 UNK         0.0600 
    224 H224       -6.1302  -18.7463  -49.6132 H         1 UNK         0.0600 
    225 H225       -4.5129  -22.7581  -50.9568 H         1 UNK         0.3000 
    226 H226       -2.9351  -23.0963  -52.4848 H         1 UNK         0.0600 
    227 H227       -1.3690  -22.4111  -50.7320 H         1 UNK         0.0600 
    228 H228       -0.7806  -21.8300  -52.2730 H         1 UNK         0.0600 
    229 H229       -1.5569  -20.7124  -51.1525 H         1 UNK         0.0600 
    230 H230       -5.1910  -21.7467  -53.3717 H         1 UNK         0.3000 
    231 H231       -6.0836  -20.7939  -55.1458 H         1 UNK         0.0600 
    232 H232       -4.3442  -21.8762  -56.5919 H         1 UNK         0.0600 
    233 H233       -3.3230  -20.4477  -56.4280 H         1 UNK         0.0600 
    234 H234       -4.8836  -20.3259  -57.2177 H         1 UNK         0.0600 
    235 H235       -6.0506  -19.4813  -53.0208 H         1 UNK         0.3000 
    236 H236       -6.6913  -17.6025  -52.1424 H         1 UNK         0.0600 
    237 H237       -7.2098  -15.6204  -53.4953 H         1 UNK         0.0600 
    238 H238       -6.2572  -16.2300  -54.8376 H         1 UNK         0.0600 
    239 H239       -7.7232  -17.0738  -54.3363 H         1 UNK         0.0600 
    240 H240       -3.4645  -17.4600  -53.5814 H         1 UNK         0.3000 
    241 H241       -2.8122  -15.0049  -52.2040 H         1 UNK         0.0600 
    242 H242       -2.0012  -17.6680  -49.4020 H         1 UNK         0.3800 
    243 H243       -3.0757  -18.0795  -50.7153 H         1 UNK         0.3800 
    244 H244       -1.7336  -15.2238  -54.2267 H         1 UNK         0.0800 
    245 H245       -0.5120  -15.2561  -53.0179 H         1 UNK         0.0800 
    246 H246       -1.1588  -18.7092  -52.3393 H         1 UNK         0.0800 
    247 H247       -0.1372  -19.5041  -53.4900 H         1 UNK         0.0800 
@<TRIPOS>BOND
     1    1    2 1    
     2    1  127 1    
     3    1  128 1    
     4    1  129 1    
     5    2    3 2    
     6    2    4 am   BACKBONE|DICT|INTERRES
     7    4    5 1    
     8    4  130 1    
     9    5    6 1    
    10    5   65 1    
    11    5  131 1    
    12    6    7 1    
    13    6  132 1    
    14    6  133 1    
    15    7    8 1    
    16    8    9 1    
    17    8  134 1    
    18    8  135 1    
    19    9   10 ar   
    20    9   14 ar   
    21   10   11 ar   
    22   10  136 1    
    23   11   12 ar   
    24   11  126 1    
    25   12   13 ar   
    26   12  137 1    
    27   13   14 ar   
    28   13   15 1    
    29   14  138 1    
    30   15   16 1    
    31   15  139 1    
    32   15  140 1    
    33   16   17 1    
    34   17   18 1    
    35   17  141 1    
    36   17  142 1    
    37   18   19 1    
    38   18   67 1    
    39   18  143 1    
    40   19   20 am   BACKBONE|DICT|INTERRES
    41   19  144 1    
    42   20   21 2    
    43   20   22 1    
    44   22   23 1    
    45   22   24 1    
    46   22  145 1    
    47   23  146 1    
    48   23  147 1    
    49   23  148 1    
    50   24   25 am   BACKBONE|DICT|INTERRES
    51   24  149 1    
    52   25   26 2    
    53   25   27 1    
    54   27   28 1    
    55   27   29 1    
    56   27  150 1    
    57   28  151 1    
    58   28  152 1    
    59   28  153 1    
    60   29   30 am   BACKBONE|DICT|INTERRES
    61   29  154 1    
    62   30   31 2    
    63   30   32 1    
    64   32   33 1    
    65   32   34 1    
    66   32  155 1    
    67   33  156 1    
    68   33  157 1    
    69   33  158 1    
    70   34   35 am   BACKBONE|DICT|INTERRES
    71   34  159 1    
    72   35   36 2    
    73   35   37 1    
    74   37   38 1    
    75   37   39 1    
    76   37  160 1    
    77   38  161 1    
    78   38  162 1    
    79   38  163 1    
    80   39   40 am   BACKBONE|DICT|INTERRES
    81   39  164 1    
    82   40   41 2    
    83   40   42 1    
    84   42   43 1    
    85   42   44 1    
    86   42  165 1    
    87   43  166 1    
    88   43  167 1    
    89   43  168 1    
    90   44   45 am   BACKBONE|DICT|INTERRES
    91   44  169 1    
    92   45   46 2    
    93   45   47 1    
    94   47   48 1    
    95   47   49 1    
    96   47  170 1    
    97   48  171 1    
    98   48  172 1    
    99   48  173 1    
   100   49   50 am   BACKBONE|DICT|INTERRES
   101   49  174 1    
   102   50   51 2    
   103   50   52 1    
   104   52   53 1    
   105   52   54 1    
   106   52  175 1    
   107   53  176 1    
   108   53  177 1    
   109   53  178 1    
   110   54   55 am   BACKBONE|DICT|INTERRES
   111   54  179 1    
   112   55   56 2    
   113   55   57 1    
   114   57   58 1    
   115   57   59 1    
   116   57  180 1    
   117   58  181 1    
   118   58  182 1    
   119   58  183 1    
   120   59   60 am   BACKBONE|DICT|INTERRES
   121   59  184 1    
   122   60   61 2    
   123   60   62 1    
   124   62   63 1    
   125   62   64 1    
   126   62  185 1    
   127   63  186 1    
   128   63  187 1    
   129   63  188 1    
   130   64   65 am   BACKBONE|DICT|INTERRES
   131   64  189 1    
   132   65   66 2    
   133   67   68 2    
   134   67   69 am   BACKBONE|DICT|INTERRES
   135   69   70 1    
   136   69  190 1    
   137   70   71 1    
   138   70   72 1    
   139   70  191 1    
   140   71  192 1    
   141   71  193 1    
   142   71  194 1    
   143   72   73 2    
   144   72   74 am   BACKBONE|DICT|INTERRES
   145   74   75 1    
   146   74  195 1    
   147   75   76 1    
   148   75   77 1    
   149   75  196 1    
   150   76  197 1    
   151   76  198 1    
   152   76  199 1    
   153   77   78 2    
   154   77   79 am   BACKBONE|DICT|INTERRES
   155   79   80 1    
   156   79  200 1    
   157   80   81 1    
   158   80   82 1    
   159   80  201 1    
   160   81  202 1    
   161   81  203 1    
   162   81  204 1    
   163   82   83 2    
   164   82   84 am   BACKBONE|DICT|INTERRES
   165   84   85 1    
   166   84  205 1    
   167   85   86 1    
   168   85   87 1    
   169   85  206 1    
   170   86  207 1    
   171   86  208 1    
   172   86  209 1    
   173   87   88 2    
   174   87   89 am   BACKBONE|DICT|INTERRES
   175   89   90 1    
   176   89  210 1    
   177   90   91 1    
   178   90   92 1    
   179   90  211 1    
   180   91  212 1    
   181   91  213 1    
   182   91  214 1    
   183   92   93 2    
   184   92   94 am   BACKBONE|DICT|INTERRES
   185   94   95 1    
   186   94  215 1    
   187   95   96 1    
   188   95   97 1    
   189   95  216 1    
   190   96  217 1    
   191   96  218 1    
   192   96  219 1    
   193   97   98 2    
   194   97   99 am   BACKBONE|DICT|INTERRES
   195   99  100 1    
   196   99  220 1    
   197  100  101 1    
   198  100  102 1    
   199  100  221 1    
   200  101  222 1    
   201  101  223 1    
   202  101  224 1    
   203  102  103 2    
   204  102  104 am   BACKBONE|DICT|INTERRES
   205  104  105 1    
   206  104  225 1    
   207  105  106 1    
   208  105  107 1    
   209  105  226 1    
   210  106  227 1    
   211  106  228 1    
   212  106  229 1    
   213  107  108 2    
   214  107  109 am   BACKBONE|DICT|INTERRES
   215  109  110 1    
   216  109  230 1    
   217  110  111 1    
   218  110  112 1    
   219  110  231 1    
   220  111  232 1    
   221  111  233 1    
   222  111  234 1    
   223  112  113 2    
   224  112  114 am   BACKBONE|DICT|INTERRES
   225  114  115 1    
   226  114  235 1    
   227  115  116 1    
   228  115  117 1    
   229  115  236 1    
   230  116  237 1    
   231  116  238 1    
   232  116  239 1    
   233  117  118 2    
   234  117  119 am   BACKBONE|DICT|INTERRES
   235  119  120 1    
   236  119  240 1    
   237  120  121 1    
   238  120  124 1    
   239  120  241 1    
   240  121  122 am   BACKBONE|DICT|INTERRES
   241  121  123 2    
   242  122  242 1    
   243  122  243 1    
   244  124  125 1    
   245  124  244 1    
   246  124  245 1    
   247  125  126 1    
   248  126  246 1    
   249  126  247 1    
@<TRIPOS>SUBSTRUCTURE
     1 UNK         1 GROUP             0       ****    0 ROOT    
