@<TRIPOS>MOLECULE
3R540
247   249    1
SMALL
USER_CHARGES


@<TRIPOS>ATOM
      1 CA          0.7760  -13.5223  -53.3416 C.3       0 UNK        -0.1800 
      2 C           0.8037  -13.3008  -51.8383 C.2       0 UNK         0.5000 
      3 O           0.3970  -12.2401  -51.3651 O.2       0 UNK        -0.5000 
      4 N           1.2660  -14.3000  -51.0782 N.am      1 UNK        -0.5000 
      5 CA          1.5015  -14.2323  -49.6284 C.3       1 UNK         0.1400 
      6 C6          2.6337  -15.1890  -49.1710 C.3       23 UNK        -0.0398 
      7 S7          4.1686  -14.9600  -50.1366 S.3       23 UNK        -0.2404 
      8 C8          4.8383  -16.6548  -50.2197 C.3       23 UNK        -0.0205 
      9 C9          3.8599  -17.6902  -50.7667 C.ar      23 UNK        -0.0193 
     10 C10         3.1225  -17.4522  -51.9315 C.ar      23 UNK        -0.1150 
     11 C11         2.2316  -18.4085  -52.4299 C.ar      23 UNK        -0.0193 
     12 C12         2.1069  -19.6306  -51.7502 C.ar      23 UNK        -0.1150 
     13 C13         2.8428  -19.8891  -50.5882 C.ar      23 UNK        -0.0193 
     14 C14         3.7138  -18.9106  -50.1044 C.ar      23 UNK        -0.1150 
     15 C15         2.7668  -21.2477  -49.8955 C.3       23 UNK        -0.0205 
     16 S16         2.3321  -21.1327  -48.1246 S.3       23 UNK        -0.2404 
     17 C17         0.5143  -21.2641  -48.1420 C.3       23 UNK        -0.0398 
     18 CA          0.0166  -22.5117  -47.3737 C.3       11 UNK         0.1400 
     19 N           0.0974  -22.3236  -45.9202 N.am      11 UNK        -0.5000 
     20 C          -0.1274  -23.2828  -45.0115 C.2       10 UNK         0.5000 
     21 O          -0.3859  -24.4502  -45.3000 O.2       10 UNK        -0.5000 
     22 CA         -0.1254  -22.8582  -43.5328 C.3       10 UNK         0.1400 
     23 CB          1.3074  -22.6518  -43.0202 C.3       10 UNK        -0.1800 
     24 N          -0.9260  -21.6556  -43.2960 N.am      10 UNK        -0.5000 
     25 C          -2.2484  -21.5760  -43.5073 C.2       9 UNK         0.5000 
     26 O          -2.9367  -22.5255  -43.8760 O.2       9 UNK        -0.5000 
     27 CA         -2.9134  -20.2017  -43.3203 C.3       9 UNK         0.1400 
     28 CB         -3.2190  -19.9380  -41.8387 C.3       9 UNK        -0.1800 
     29 N          -2.1079  -19.1079  -43.8562 N.am      9 UNK        -0.5000 
     30 C          -1.7667  -18.9557  -45.1436 C.2       8 UNK         0.5000 
     31 O          -2.1315  -19.7021  -46.0509 O.2       8 UNK        -0.5000 
     32 CA         -0.8048  -17.7979  -45.4521 C.3       8 UNK         0.1400 
     33 CB         -1.5584  -16.4604  -45.4646 C.3       8 UNK        -0.1800 
     34 N           0.2917  -17.7483  -44.4850 N.am      8 UNK        -0.5000 
     35 C           1.2341  -18.6956  -44.3681 C.2       7 UNK         0.5000 
     36 O           1.3027  -19.6846  -45.0973 O.2       7 UNK        -0.5000 
     37 CA          2.2290  -18.5423  -43.2045 C.3       7 UNK         0.1400 
     38 CB          3.4345  -17.6876  -43.6163 C.3       7 UNK        -0.1800 
     39 N           1.5972  -17.9689  -42.0149 N.am      7 UNK        -0.5000 
     40 C           0.7485  -18.6499  -41.2312 C.2       6 UNK         0.5000 
     41 O           0.4487  -19.8284  -41.4186 O.2       6 UNK        -0.5000 
     42 CA          0.0878  -17.8813  -40.0717 C.3       6 UNK         0.1400 
     43 CB          0.9786  -17.9204  -38.8215 C.3       6 UNK        -0.1800 
     44 N          -0.2274  -16.4897  -40.3975 N.am      6 UNK        -0.5000 
     45 C          -1.0571  -16.0975  -41.3735 C.2       5 UNK         0.5000 
     46 O          -1.6525  -16.8817  -42.1114 O.2       5 UNK        -0.5000 
     47 CA         -1.2429  -14.5821  -41.5853 C.3       5 UNK         0.1400 
     48 CB         -0.8189  -13.7276  -40.3700 C.3       5 UNK        -0.1800 
     49 N          -0.5755  -14.0953  -42.7973 N.am      5 UNK        -0.5000 
     50 C           0.7210  -14.2099  -43.1219 C.2       4 UNK         0.5000 
     51 O           1.5254  -14.8807  -42.4721 O.2       4 UNK        -0.5000 
     52 CA          1.2160  -13.4484  -44.3735 C.3       4 UNK         0.1400 
     53 CB          2.1902  -14.2943  -45.2080 C.3       4 UNK        -0.1800 
     54 N           0.1553  -12.9366  -45.2512 N.am      4 UNK        -0.5000 
     55 C          -0.5484  -11.8144  -45.0337 C.2       3 UNK         0.5000 
     56 O          -0.4485  -11.1536  -43.9997 O.2       3 UNK        -0.5000 
     57 CA         -1.5104  -11.3259  -46.1379 C.3       3 UNK         0.1400 
     58 CB         -1.0948   -9.9323  -46.6378 C.3       3 UNK        -0.1800 
     59 N          -1.5790  -12.2228  -47.2913 N.am      3 UNK        -0.5000 
     60 C          -2.3877  -13.2844  -47.4005 C.2       2 UNK         0.5000 
     61 O          -3.1934  -13.6218  -46.5340 O.2       2 UNK        -0.5000 
     62 CA         -2.2589  -14.1212  -48.6903 C.3       2 UNK         0.1400 
     63 CB         -3.3384  -13.7192  -49.7057 C.3       2 UNK        -0.1800 
     64 N          -0.9453  -14.0190  -49.3330 N.am      2 UNK        -0.5000 
     65 C           0.2111  -14.4379  -48.8024 C.2       1 UNK         0.5000 
     66 O           0.2759  -14.9597  -47.6916 O.2       1 UNK        -0.5000 
     67 C          -1.4010  -22.9233  -47.8274 C.2       11 UNK         0.5000 
     68 O          -1.5284  -23.8099  -48.6742 O.2       11 UNK        -0.5000 
     69 N          -2.4400  -22.3129  -47.2429 N.am      12 UNK        -0.5000 
     70 CA         -3.8407  -22.6466  -47.5033 C.3       12 UNK         0.1400 
     71 CB         -4.7508  -21.5718  -46.8917 C.3       12 UNK        -0.1800 
     72 C          -4.2277  -24.0523  -47.0103 C.2       12 UNK         0.5000 
     73 O          -4.9713  -24.7492  -47.6991 O.2       12 UNK        -0.5000 
     74 N          -3.7103  -24.4551  -45.8444 N.am      13 UNK        -0.5000 
     75 CA         -3.9446  -25.7701  -45.2544 C.3       13 UNK         0.1400 
     76 CB         -3.5721  -25.7375  -43.7636 C.3       13 UNK        -0.1800 
     77 C          -3.1822  -26.8917  -45.9806 C.2       13 UNK         0.5000 
     78 O          -3.7804  -27.9185  -46.3046 O.2       13 UNK        -0.5000 
     79 N          -1.8747  -26.6937  -46.1930 N.am      14 UNK        -0.5000 
     80 CA         -0.9685  -27.7308  -46.6831 C.3       14 UNK         0.1400 
     81 CB          0.4627  -27.4209  -46.2164 C.3       14 UNK        -0.1800 
     82 C          -1.0019  -27.9036  -48.2088 C.2       14 UNK         0.5000 
     83 O          -0.9773  -29.0409  -48.6817 O.2       14 UNK        -0.5000 
     84 N          -1.0166  -26.7872  -48.9483 N.am      15 UNK        -0.5000 
     85 CA         -0.8119  -26.7694  -50.3994 C.3       15 UNK         0.1400 
     86 CB          0.3987  -25.8684  -50.7034 C.3       15 UNK        -0.1800 
     87 C          -2.0452  -26.2940  -51.1849 C.2       15 UNK         0.5000 
     88 O          -2.0237  -26.3724  -52.4140 O.2       15 UNK        -0.5000 
     89 N          -3.0751  -25.7883  -50.4864 N.am      16 UNK        -0.5000 
     90 CA         -4.2377  -25.0791  -51.0412 C.3       16 UNK         0.1400 
     91 CB         -5.1365  -26.0286  -51.8606 C.3       16 UNK        -0.1800 
     92 C          -3.8141  -23.8120  -51.8146 C.2       16 UNK         0.5000 
     93 O          -4.3507  -23.5233  -52.8852 O.2       16 UNK        -0.5000 
     94 N          -2.8292  -23.1004  -51.2544 N.am      17 UNK        -0.5000 
     95 CA         -2.1465  -21.9657  -51.8619 C.3       17 UNK         0.1400 
     96 CB         -0.6861  -22.3856  -52.0923 C.3       17 UNK        -0.1800 
     97 C          -2.2799  -20.7076  -50.9817 C.2       17 UNK         0.5000 
     98 O          -3.0522  -20.7023  -50.0219 O.2       17 UNK        -0.5000 
     99 N          -1.5499  -19.6434  -51.3449 N.am      18 UNK        -0.5000 
    100 CA        -1.5494  -18.3079  -50.7359 C.3       18 UNK         0.1400 
    101 CB        -0.8249  -18.3205  -49.3763 C.3       18 UNK        -0.1800 
    102 C         -2.9723  -17.7253  -50.6729 C.2       18 UNK         0.5000 
    103 O         -3.5472  -17.4500  -51.7259 O.2       18 UNK        -0.5000 
    104 N         -3.5393  -17.6021  -49.4661 N.am      19 UNK        -0.5000 
    105 CA        -4.9002  -17.1232  -49.2159 C.3       19 UNK         0.1400 
    106 CB        -5.1271  -17.0446  -47.6982 C.3       19 UNK        -0.1800 
    107 C         -6.0061  -17.9600  -49.8911 C.2       19 UNK         0.5000 
    108 O         -7.0881  -17.4281  -50.1422 O.2       19 UNK        -0.5000 
    109 N         -5.7199  -19.2352  -50.1871 N.am      20 UNK        -0.5000 
    110 CA        -6.6334  -20.1358  -50.8851 C.3       20 UNK         0.1400 
    111 CB        -6.4041  -21.5671  -50.3771 C.3       20 UNK        -0.1800 
    112 C         -6.5213  -20.0665  -52.4227 C.2       20 UNK         0.5000 
    113 O         -7.4043  -20.6109  -53.0878 O.2       20 UNK        -0.5000 
    114 N         -5.4814  -19.4209  -52.9789 N.am      21 UNK        -0.5000 
    115 CA        -5.2756  -19.3323  -54.4270 C.3       21 UNK         0.1400 
    116 CB        -4.8033  -20.6841  -55.0081 C.3       21 UNK        -0.1800 
    117 C         -4.3425  -18.1723  -54.8134 C.2       21 UNK         0.5000 
    118 O         -4.8317  -17.1019  -55.1752 O.2       21 UNK        -0.5000 
    119 N         -3.0268  -18.4291  -54.7989 N.am      22 UNK        -0.5000 
    120 CA        -1.9776  -17.5821  -55.3982 C.3       22 UNK         0.1400 
    121 C         -1.7408  -16.1748  -54.7775 C.2       22 UNK         0.5000 
    122 N         -2.2820  -15.8455  -53.6142 N.am      22 UNK        -0.7600 
    123 O         -1.0618  -15.3530  -55.3857 O.2       22 UNK        -0.5000 
    124 C124       -0.6475  -18.3609  -55.5954 C.3       23 UNK        -0.0398 
    125 S125        0.0132  -19.1212  -54.0709 S.3       23 UNK        -0.2404 
    126 C126        1.4748  -18.0837  -53.7239 C.3       23 UNK        -0.0205 
    127 H127        1.0210  -14.5513  -53.6044 H         1 UNK         0.0600 
    128 H128       -0.2142  -13.2962  -53.7365 H         1 UNK         0.0600 
    129 H129        1.4953  -12.8653  -53.8300 H         1 UNK         0.0600 
    130 H130        1.5659  -15.1565  -51.5193 H         1 UNK         0.3000 
    131 H131        1.8380  -13.2199  -49.3947 H         1 UNK         0.0600 
    132 H132        2.2950  -16.2235  -49.2363 H         1 UNK         0.0800 
    133 H133        2.8807  -15.0219  -48.1220 H         1 UNK         0.0800 
    134 H134        5.1731  -16.9353  -49.2198 H         1 UNK         0.0800 
    135 H135        5.7278  -16.6493  -50.8508 H         1 UNK         0.0800 
    136 H136        3.2516  -16.5171  -52.4583 H         1 UNK         0.1150 
    137 H137        1.4631  -20.4017  -52.1361 H         1 UNK         0.1150 
    138 H138        4.2939  -19.1122  -49.2147 H         1 UNK         0.1150 
    139 H139        2.0776  -21.9190  -50.4080 H         1 UNK         0.0800 
    140 H140        3.7484  -21.7171  -49.9718 H         1 UNK         0.0800 
    141 H141        0.1676  -21.2568  -49.1752 H         1 UNK         0.0800 
    142 H142        0.1131  -20.3645  -47.6773 H         1 UNK         0.0800 
    143 H143        0.6679  -23.3509  -47.6280 H         1 UNK         0.0600 
    144 H144        0.3415  -21.3911  -45.5997 H         1 UNK         0.3000 
    145 H145       -0.5733  -23.6703  -42.9563 H         1 UNK         0.0600 
    146 H146        1.3158  -22.4261  -41.9538 H         1 UNK         0.0600 
    147 H147        1.9062  -23.5516  -43.1663 H         1 UNK         0.0600 
    148 H148        1.8103  -21.8365  -43.5393 H         1 UNK         0.0600 
    149 H149       -0.4375  -20.8472  -42.9262 H         1 UNK         0.3000 
    150 H150       -3.8593  -20.2112  -43.8649 H         1 UNK         0.0600 
    151 H151       -3.8568  -20.7210  -41.4269 H         1 UNK         0.0600 
    152 H152       -3.7397  -18.9894  -41.7063 H         1 UNK         0.0600 
    153 H153       -2.3095  -19.9060  -41.2390 H         1 UNK         0.0600 
    154 H154       -1.7996  -18.4035  -43.1903 H         1 UNK         0.3000 
    155 H155       -0.3701  -17.9579  -46.4407 H         1 UNK         0.0600 
    156 H156       -0.8742  -15.6169  -45.5206 H         1 UNK         0.0600 
    157 H157       -2.2182  -16.4044  -46.3290 H         1 UNK         0.0600 
    158 H158       -2.1763  -16.3198  -44.5784 H         1 UNK         0.0600 
    159 H159        0.2673  -17.0054  -43.8025 H         1 UNK         0.3000 
    160 H160        2.5998  -19.5384  -42.9533 H         1 UNK         0.0600 
    161 H161        4.1827  -17.6549  -42.8243 H         1 UNK         0.0600 
    162 H162        3.1408  -16.6643  -43.8402 H         1 UNK         0.0600 
    163 H163        3.9174  -18.0946  -44.5057 H         1 UNK         0.0600 
    164 H164        1.7542  -16.9833  -41.8370 H         1 UNK         0.3000 
    165 H165       -0.8513  -18.3859  -39.8364 H         1 UNK         0.0600 
    166 H166        0.4819  -17.4584  -37.9681 H         1 UNK         0.0600 
    167 H167        1.2136  -18.9483  -38.5417 H         1 UNK         0.0600 
    168 H168        1.9233  -17.3998  -38.9836 H         1 UNK         0.0600 
    169 H169        0.2471  -15.7795  -39.8594 H         1 UNK         0.3000 
    170 H170       -2.3122  -14.4281  -41.7375 H         1 UNK         0.0600 
    171 H171       -1.3268  -14.0538  -39.4614 H         1 UNK         0.0600 
    172 H172        0.2554  -13.7700  -40.1873 H         1 UNK         0.0600 
    173 H173       -1.0817  -12.6809  -40.5240 H         1 UNK         0.0600 
    174 H174       -1.1522  -13.5450  -43.4169 H         1 UNK         0.3000 
    175 H175        1.7798  -12.5909  -44.0005 H         1 UNK         0.0600 
    176 H176        1.7496  -15.2470  -45.5037 H         1 UNK         0.0600 
    177 H177        2.4950  -13.7659  -46.1109 H         1 UNK         0.0600 
    178 H178        3.0993  -14.5074  -44.6458 H         1 UNK         0.0600 
    179 H179       -0.0006  -13.4555  -46.1069 H         1 UNK         0.3000 
    180 H180       -2.5022  -11.2417  -45.6886 H         1 UNK         0.0600 
    181 H181       -0.0997   -9.9451  -47.0844 H         1 UNK         0.0600 
    182 H182       -1.0790   -9.2090  -45.8214 H         1 UNK         0.0600 
    183 H183       -1.7938   -9.5571  -47.3856 H         1 UNK         0.0600 
    184 H184       -0.9525  -12.0210  -48.0569 H         1 UNK         0.3000 
    185 H185       -2.4165  -15.1654  -48.4171 H         1 UNK         0.0600 
    186 H186       -4.3338  -13.7763  -49.2633 H         1 UNK         0.0600 
    187 H187       -3.1961  -12.6974  -50.0594 H         1 UNK         0.0600 
    188 H188       -3.3291  -14.3795  -50.5733 H         1 UNK         0.0600 
    189 H189       -0.9039  -13.5435  -50.2257 H         1 UNK         0.3000 
    190 H190       -2.2685  -21.5373  -46.6092 H         1 UNK         0.3000 
    191 H191       -3.9946  -22.6371  -48.5826 H         1 UNK         0.0600 
    192 H192       -4.6008  -21.4822  -45.8164 H         1 UNK         0.0600 
    193 H193       -5.8027  -21.8059  -47.0568 H         1 UNK         0.0600 
    194 H194       -4.5584  -20.5971  -47.3409 H         1 UNK         0.0600 
    195 H195       -3.1631  -23.7979  -45.2953 H         1 UNK         0.3000 
    196 H196       -5.0115  -25.9926  -45.3253 H         1 UNK         0.0600 
    197 H197       -3.7329  -26.7105  -43.2977 H         1 UNK         0.0600 
    198 H198       -4.1815  -25.0133  -43.2228 H         1 UNK         0.0600 
    199 H199       -2.5256  -25.4687  -43.6142 H         1 UNK         0.0600 
    200 H200       -1.4447  -25.8220  -45.8879 H         1 UNK         0.3000 
    201 H201       -1.2580  -28.6843  -46.2356 H         1 UNK         0.0600 
    202 H202        0.5145  -27.3380  -45.1307 H         1 UNK         0.0600 
    203 H203        0.8330  -26.4869  -46.6410 H         1 UNK         0.0600 
    204 H204        1.1511  -28.2121  -46.5160 H         1 UNK         0.0600 
    205 H205       -1.0652  -25.8833  -48.4924 H         1 UNK         0.3000 
    206 H206       -0.5780  -27.7691  -50.7707 H         1 UNK         0.0600 
    207 H207        1.2962  -26.2354  -50.2054 H         1 UNK         0.0600 
    208 H208        0.6112  -25.8405  -51.7728 H         1 UNK         0.0600 
    209 H209        0.2324  -24.8421  -50.3768 H         1 UNK         0.0600 
    210 H210       -2.9882  -25.7637  -49.4802 H         1 UNK         0.3000 
    211 H211       -4.8299  -24.7259  -50.1996 H         1 UNK         0.0600 
    212 H212       -4.6476  -26.3698  -52.7732 H         1 UNK         0.0600 
    213 H213       -6.0607  -25.5298  -52.1545 H         1 UNK         0.0600 
    214 H214       -5.4137  -26.9073  -51.2785 H         1 UNK         0.0600 
    215 H215       -2.4716  -23.3884  -50.3485 H         1 UNK         0.3000 
    216 H216       -2.5906  -21.7292  -52.8278 H         1 UNK         0.0600 
    217 H217       -0.1766  -21.6937  -52.7575 H         1 UNK         0.0600 
    218 H218       -0.6305  -23.3644  -52.5699 H         1 UNK         0.0600 
    219 H219       -0.1278  -22.4451  -51.1593 H         1 UNK         0.0600 
    220 H220       -0.9719  -19.7202  -52.1722 H         1 UNK         0.3000 
    221 H221       -0.9818  -17.6586  -51.4045 H         1 UNK         0.0600 
    222 H222       -1.3270  -18.9687  -48.6590 H         1 UNK         0.0600 
    223 H223        0.2034  -18.6642  -49.4870 H         1 UNK         0.0600 
    224 H224       -0.7795  -17.3205  -48.9444 H         1 UNK         0.0600 
    225 H225       -3.0245  -17.9326  -48.6632 H         1 UNK         0.3000 
    226 H226       -4.9772  -16.1156  -49.6263 H         1 UNK         0.0600 
    227 H227       -4.4505  -16.3273  -47.2346 H         1 UNK         0.0600 
    228 H228       -6.1428  -16.7193  -47.4692 H         1 UNK         0.0600 
    229 H229       -4.9755  -18.0121  -47.2175 H         1 UNK         0.0600 
    230 H230       -4.8003  -19.6036  -49.9646 H         1 UNK         0.3000 
    231 H231       -7.6626  -19.8689  -50.6360 H         1 UNK         0.0600 
    232 H232       -5.3680  -21.8702  -50.5032 H         1 UNK         0.0600 
    233 H233       -6.6506  -21.6513  -49.3195 H         1 UNK         0.0600 
    234 H234       -7.0260  -22.2857  -50.9123 H         1 UNK         0.0600 
    235 H235       -4.8333  -18.8998  -52.3967 H         1 UNK         0.3000 
    236 H236       -6.2379  -19.1003  -54.8892 H         1 UNK         0.0600 
    237 H237       -4.5936  -20.5997  -56.0752 H         1 UNK         0.0600 
    238 H238       -3.8993  -21.0469  -54.5234 H         1 UNK         0.0600 
    239 H239       -5.5649  -21.4555  -54.8953 H         1 UNK         0.0600 
    240 H240       -2.7158  -19.3280  -54.4664 H         1 UNK         0.3000 
    241 H241       -2.3390  -17.3588  -56.4040 H         1 UNK         0.0600 
    242 H242       -2.1480  -14.9149  -53.2592 H         1 UNK         0.3800 
    243 H243       -2.8624  -16.5039  -53.0995 H         1 UNK         0.3800 
    244 H244        0.1138  -17.7289  -56.0564 H         1 UNK         0.0800 
    245 H245       -0.8139  -19.1689  -56.3090 H         1 UNK         0.0800 
    246 H246        2.1704  -18.1699  -54.5596 H         1 UNK         0.0800 
    247 H247        1.1485  -17.0433  -53.6944 H         1 UNK         0.0800 
@<TRIPOS>BOND
     1    1    2 1    
     2    1  127 1    
     3    1  128 1    
     4    1  129 1    
     5    2    3 2    
     6    2    4 am   BACKBONE|DICT|INTERRES
     7    4    5 1    
     8    4  130 1    
     9    5    6 1    
    10    5   65 1    
    11    5  131 1    
    12    6    7 1    
    13    6  132 1    
    14    6  133 1    
    15    7    8 1    
    16    8    9 1    
    17    8  134 1    
    18    8  135 1    
    19    9   10 ar   
    20    9   14 ar   
    21   10   11 ar   
    22   10  136 1    
    23   11   12 ar   
    24   11  126 1    
    25   12   13 ar   
    26   12  137 1    
    27   13   14 ar   
    28   13   15 1    
    29   14  138 1    
    30   15   16 1    
    31   15  139 1    
    32   15  140 1    
    33   16   17 1    
    34   17   18 1    
    35   17  141 1    
    36   17  142 1    
    37   18   19 1    
    38   18   67 1    
    39   18  143 1    
    40   19   20 am   BACKBONE|DICT|INTERRES
    41   19  144 1    
    42   20   21 2    
    43   20   22 1    
    44   22   23 1    
    45   22   24 1    
    46   22  145 1    
    47   23  146 1    
    48   23  147 1    
    49   23  148 1    
    50   24   25 am   BACKBONE|DICT|INTERRES
    51   24  149 1    
    52   25   26 2    
    53   25   27 1    
    54   27   28 1    
    55   27   29 1    
    56   27  150 1    
    57   28  151 1    
    58   28  152 1    
    59   28  153 1    
    60   29   30 am   BACKBONE|DICT|INTERRES
    61   29  154 1    
    62   30   31 2    
    63   30   32 1    
    64   32   33 1    
    65   32   34 1    
    66   32  155 1    
    67   33  156 1    
    68   33  157 1    
    69   33  158 1    
    70   34   35 am   BACKBONE|DICT|INTERRES
    71   34  159 1    
    72   35   36 2    
    73   35   37 1    
    74   37   38 1    
    75   37   39 1    
    76   37  160 1    
    77   38  161 1    
    78   38  162 1    
    79   38  163 1    
    80   39   40 am   BACKBONE|DICT|INTERRES
    81   39  164 1    
    82   40   41 2    
    83   40   42 1    
    84   42   43 1    
    85   42   44 1    
    86   42  165 1    
    87   43  166 1    
    88   43  167 1    
    89   43  168 1    
    90   44   45 am   BACKBONE|DICT|INTERRES
    91   44  169 1    
    92   45   46 2    
    93   45   47 1    
    94   47   48 1    
    95   47   49 1    
    96   47  170 1    
    97   48  171 1    
    98   48  172 1    
    99   48  173 1    
   100   49   50 am   BACKBONE|DICT|INTERRES
   101   49  174 1    
   102   50   51 2    
   103   50   52 1    
   104   52   53 1    
   105   52   54 1    
   106   52  175 1    
   107   53  176 1    
   108   53  177 1    
   109   53  178 1    
   110   54   55 am   BACKBONE|DICT|INTERRES
   111   54  179 1    
   112   55   56 2    
   113   55   57 1    
   114   57   58 1    
   115   57   59 1    
   116   57  180 1    
   117   58  181 1    
   118   58  182 1    
   119   58  183 1    
   120   59   60 am   BACKBONE|DICT|INTERRES
   121   59  184 1    
   122   60   61 2    
   123   60   62 1    
   124   62   63 1    
   125   62   64 1    
   126   62  185 1    
   127   63  186 1    
   128   63  187 1    
   129   63  188 1    
   130   64   65 am   BACKBONE|DICT|INTERRES
   131   64  189 1    
   132   65   66 2    
   133   67   68 2    
   134   67   69 am   BACKBONE|DICT|INTERRES
   135   69   70 1    
   136   69  190 1    
   137   70   71 1    
   138   70   72 1    
   139   70  191 1    
   140   71  192 1    
   141   71  193 1    
   142   71  194 1    
   143   72   73 2    
   144   72   74 am   BACKBONE|DICT|INTERRES
   145   74   75 1    
   146   74  195 1    
   147   75   76 1    
   148   75   77 1    
   149   75  196 1    
   150   76  197 1    
   151   76  198 1    
   152   76  199 1    
   153   77   78 2    
   154   77   79 am   BACKBONE|DICT|INTERRES
   155   79   80 1    
   156   79  200 1    
   157   80   81 1    
   158   80   82 1    
   159   80  201 1    
   160   81  202 1    
   161   81  203 1    
   162   81  204 1    
   163   82   83 2    
   164   82   84 am   BACKBONE|DICT|INTERRES
   165   84   85 1    
   166   84  205 1    
   167   85   86 1    
   168   85   87 1    
   169   85  206 1    
   170   86  207 1    
   171   86  208 1    
   172   86  209 1    
   173   87   88 2    
   174   87   89 am   BACKBONE|DICT|INTERRES
   175   89   90 1    
   176   89  210 1    
   177   90   91 1    
   178   90   92 1    
   179   90  211 1    
   180   91  212 1    
   181   91  213 1    
   182   91  214 1    
   183   92   93 2    
   184   92   94 am   BACKBONE|DICT|INTERRES
   185   94   95 1    
   186   94  215 1    
   187   95   96 1    
   188   95   97 1    
   189   95  216 1    
   190   96  217 1    
   191   96  218 1    
   192   96  219 1    
   193   97   98 2    
   194   97   99 am   BACKBONE|DICT|INTERRES
   195   99  100 1    
   196   99  220 1    
   197  100  101 1    
   198  100  102 1    
   199  100  221 1    
   200  101  222 1    
   201  101  223 1    
   202  101  224 1    
   203  102  103 2    
   204  102  104 am   BACKBONE|DICT|INTERRES
   205  104  105 1    
   206  104  225 1    
   207  105  106 1    
   208  105  107 1    
   209  105  226 1    
   210  106  227 1    
   211  106  228 1    
   212  106  229 1    
   213  107  108 2    
   214  107  109 am   BACKBONE|DICT|INTERRES
   215  109  110 1    
   216  109  230 1    
   217  110  111 1    
   218  110  112 1    
   219  110  231 1    
   220  111  232 1    
   221  111  233 1    
   222  111  234 1    
   223  112  113 2    
   224  112  114 am   BACKBONE|DICT|INTERRES
   225  114  115 1    
   226  114  235 1    
   227  115  116 1    
   228  115  117 1    
   229  115  236 1    
   230  116  237 1    
   231  116  238 1    
   232  116  239 1    
   233  117  118 2    
   234  117  119 am   BACKBONE|DICT|INTERRES
   235  119  120 1    
   236  119  240 1    
   237  120  121 1    
   238  120  124 1    
   239  120  241 1    
   240  121  122 am   BACKBONE|DICT|INTERRES
   241  121  123 2    
   242  122  242 1    
   243  122  243 1    
   244  124  125 1    
   245  124  244 1    
   246  124  245 1    
   247  125  126 1    
   248  126  246 1    
   249  126  247 1    
@<TRIPOS>SUBSTRUCTURE
     1 UNK         1 GROUP             0       ****    0 ROOT    
