@<TRIPOS>MOLECULE
3R540
247   249    1
SMALL
USER_CHARGES


@<TRIPOS>ATOM
      1 CA         -5.1561  -14.9243  -49.7576 C.3       0 UNK        -0.1800 
      2 C          -3.9142  -14.0657  -49.9525 C.2       0 UNK         0.5000 
      3 O          -3.8848  -13.2257  -50.8534 O.2       0 UNK        -0.5000 
      4 N          -2.8866  -14.2854  -49.1248 N.am      1 UNK        -0.5000 
      5 CA         -1.6158  -13.5537  -49.1398 C.3       1 UNK         0.1400 
      6 C6         -0.5358  -14.2523  -48.2736 C.3       23 UNK        -0.0398 
      7 S7         -0.2551  -15.9736  -48.7998 S.3       23 UNK        -0.2404 
      8 C8          1.5444  -16.0510  -49.0259 C.3       23 UNK        -0.0205 
      9 C9          1.9146  -17.3051  -49.8015 C.ar      23 UNK        -0.0193 
     10 C10         1.8221  -17.3013  -51.1939 C.ar      23 UNK        -0.1150 
     11 C11         2.1125  -18.4493  -51.9335 C.ar      23 UNK        -0.0193 
     12 C12         2.5271  -19.6050  -51.2628 C.ar      23 UNK        -0.1150 
     13 C13         2.6563  -19.6205  -49.8681 C.ar      23 UNK        -0.0193 
     14 C14         2.3396  -18.4630  -49.1430 C.ar      23 UNK        -0.1150 
     15 C15         3.2094  -20.8761  -49.1890 C.3       23 UNK        -0.0205 
     16 S16         2.6027  -21.1920  -47.4963 S.3       23 UNK        -0.2404 
     17 C17         0.8143  -21.4422  -47.7420 C.3       23 UNK        -0.0398 
     18 CA          0.2664  -22.6762  -46.9832 C.3       11 UNK         0.1400 
     19 N           0.3362  -22.5216  -45.5244 N.am      11 UNK        -0.5000 
     20 C           0.0373  -23.4801  -44.6345 C.2       10 UNK         0.5000 
     21 O          -0.2518  -24.6361  -44.9453 O.2       10 UNK        -0.5000 
     22 CA          0.0134  -23.0753  -43.1475 C.3       10 UNK         0.1400 
     23 CB          1.4213  -23.1359  -42.5366 C.3       10 UNK        -0.1800 
     24 N          -0.5732  -21.7524  -42.9199 N.am      10 UNK        -0.5000 
     25 C          -1.8508  -21.4337  -43.1750 C.2       9 UNK         0.5000 
     26 O          -2.6789  -22.2347  -43.6024 O.2       9 UNK        -0.5000 
     27 CA         -2.2674  -19.9647  -42.9758 C.3       9 UNK         0.1400 
     28 CB         -2.5282  -19.6552  -41.4947 C.3       9 UNK        -0.1800 
     29 N          -1.2829  -19.0288  -43.5151 N.am      9 UNK        -0.5000 
     30 C          -0.9410  -18.9585  -44.8096 C.2       8 UNK         0.5000 
     31 O          -1.4663  -19.6322  -45.6966 O.2       8 UNK        -0.5000 
     32 CA          0.2249  -18.0166  -45.1560 C.3       8 UNK         0.1400 
     33 CB         -0.2732  -16.5705  -45.2918 C.3       8 UNK        -0.1800 
     34 N           1.3018  -18.0774  -44.1638 N.am      8 UNK        -0.5000 
     35 C           2.0335  -19.1717  -43.9064 C.2       7 UNK         0.5000 
     36 O           1.8866  -20.2423  -44.4906 O.2       7 UNK        -0.5000 
     37 CA          3.0556  -19.0712  -42.7599 C.3       7 UNK         0.1400 
     38 CB          4.2903  -18.2675  -43.1952 C.3       7 UNK        -0.1800 
     39 N           2.4790  -18.4711  -41.5569 N.am      7 UNK        -0.5000 
     40 C           1.4839  -19.0112  -40.8374 C.2       6 UNK         0.5000 
     41 O           0.9993  -20.1180  -41.0681 O.2       6 UNK        -0.5000 
     42 CA          0.8969  -18.1492  -39.7006 C.3       6 UNK         0.1400 
     43 CB          1.6080  -18.4523  -38.3737 C.3       6 UNK        -0.1800 
     44 N           0.9633  -16.7086  -39.9684 N.am      6 UNK        -0.5000 
     45 C           0.3775  -16.0991  -41.0077 C.2       5 UNK         0.5000 
     46 O          -0.3321  -16.6869  -41.8305 O.2       5 UNK        -0.5000 
     47 CA          0.6897  -14.6057  -41.1911 C.3       5 UNK         0.1400 
     48 CB          2.2044  -14.3880  -41.4040 C.3       5 UNK        -0.1800 
     49 N          -0.0529  -14.1222  -42.3503 N.am      5 UNK        -0.5000 
     50 C          -0.1867  -12.8500  -42.7324 C.2       4 UNK         0.5000 
     51 O           0.2349  -11.8873  -42.0863 O.2       4 UNK        -0.5000 
     52 CA         -0.9166  -12.6113  -44.0673 C.3       4 UNK         0.1400 
     53 CB         -2.3564  -12.1328  -43.8299 C.3       4 UNK        -0.1800 
     54 N          -0.2100  -11.6260  -44.8847 N.am      4 UNK        -0.5000 
     55 C           0.9958  -11.8180  -45.4339 C.2       3 UNK         0.5000 
     56 O           1.5981  -12.8926  -45.3956 O.2       3 UNK        -0.5000 
     57 CA          1.5872  -10.6231  -46.2043 C.3       3 UNK         0.1400 
     58 CB          3.0623  -10.8360  -46.5899 C.3       3 UNK        -0.1800 
     59 N           0.8096  -10.4135  -47.4209 N.am      3 UNK        -0.5000 
     60 C          -0.2661   -9.6233  -47.5306 C.2       2 UNK         0.5000 
     61 O          -0.6604   -8.8703  -46.6396 O.2       2 UNK        -0.5000 
     62 CA         -1.0664   -9.7554  -48.8408 C.3       2 UNK         0.1400 
     63 CB         -0.4510   -8.8867  -49.9483 C.3       2 UNK        -0.1800 
     64 N          -1.1366  -11.1494  -49.2921 N.am      2 UNK        -0.5000 
     65 C          -1.8172  -12.1077  -48.6474 C.2       1 UNK         0.5000 
     66 O          -2.5369  -11.8943  -47.6686 O.2       1 UNK        -0.5000 
     67 C          -1.1692  -23.0059  -47.4449 C.2       11 UNK         0.5000 
     68 O          -1.3528  -23.9512  -48.2116 O.2       11 UNK        -0.5000 
     69 N          -2.1586  -22.2556  -46.9368 N.am      12 UNK        -0.5000 
     70 CA         -3.5785  -22.4587  -47.2298 C.3       12 UNK         0.1400 
     71 CB         -4.3876  -21.2673  -46.6946 C.3       12 UNK        -0.1800 
     72 C          -4.1247  -23.7863  -46.6692 C.2       12 UNK         0.5000 
     73 O          -4.8684  -24.4802  -47.3640 O.2       12 UNK        -0.5000 
     74 N          -3.7230  -24.1361  -45.4381 N.am      13 UNK        -0.5000 
     75 CA         -4.1277  -25.3484  -44.7167 C.3       13 UNK         0.1400 
     76 CB         -3.5974  -25.2879  -43.2763 C.3       13 UNK        -0.1800 
     77 C          -3.7018  -26.6693  -45.3864 C.2       13 UNK         0.5000 
     78 O          -4.2943  -27.7085  -45.0930 O.2       13 UNK        -0.5000 
     79 N          -2.7143  -26.6132  -46.2908 N.am      14 UNK        -0.5000 
     80 CA         -2.2963  -27.7318  -47.1375 C.3       14 UNK         0.1400 
     81 CB         -0.9470  -27.3868  -47.7874 C.3       14 UNK        -0.1800 
     82 C          -3.3349  -28.1068  -48.2180 C.2       14 UNK         0.5000 
     83 O          -3.2142  -29.1800  -48.8096 O.2       14 UNK        -0.5000 
     84 N          -4.3161  -27.2219  -48.4673 N.am      15 UNK        -0.5000 
     85 CA         -5.3937  -27.3307  -49.4602 C.3       15 UNK         0.1400 
     86 CB         -6.3113  -28.5342  -49.1603 C.3       15 UNK        -0.1800 
     87 C          -4.8911  -27.3039  -50.9199 C.2       15 UNK         0.5000 
     88 O          -5.5853  -27.7706  -51.8249 O.2       15 UNK        -0.5000 
     89 N          -3.6958  -26.7400  -51.1190 N.am      16 UNK        -0.5000 
     90 CA         -3.0747  -26.4876  -52.4134 C.3       16 UNK         0.1400 
     91 CB         -1.5500  -26.5714  -52.2229 C.3       16 UNK        -0.1800 
     92 C          -3.4915  -25.1070  -52.9547 C.2       16 UNK         0.5000 
     93 O          -4.2260  -24.3694  -52.2933 O.2       16 UNK        -0.5000 
     94 N          -2.9739  -24.7586  -54.1402 N.am      17 UNK        -0.5000 
     95 CA         -3.0785  -23.4162  -54.7221 C.3       17 UNK         0.1400 
     96 CB         -2.6380  -23.4739  -56.1919 C.3       17 UNK        -0.1800 
     97 C          -2.2570  -22.3612  -53.9508 C.2       17 UNK         0.5000 
     98 O          -2.5538  -21.1710  -54.0531 O.2       17 UNK        -0.5000 
     99 N          -1.2553  -22.8180  -53.1843 N.am      18 UNK        -0.5000 
    100 CA        -0.4279  -22.0275  -52.2755 C.3       18 UNK         0.1400 
    101 CB         0.5171  -22.9774  -51.5280 C.3       18 UNK        -0.1800 
    102 C         -1.2805  -21.2136  -51.2842 C.2       18 UNK         0.5000 
    103 O         -2.1831  -21.7711  -50.6579 O.2       18 UNK        -0.5000 
    104 N         -1.0104  -19.9052  -51.2088 N.am      19 UNK        -0.5000 
    105 CA        -1.7657  -18.8552  -50.5151 C.3       19 UNK         0.1400 
    106 CB        -1.8300  -19.0854  -48.9956 C.3       19 UNK        -0.1800 
    107 C         -3.1628  -18.5869  -51.1068 C.2       19 UNK         0.5000 
    108 O         -3.4840  -17.4318  -51.3855 O.2       19 UNK        -0.5000 
    109 N         -3.9531  -19.6485  -51.3046 N.am      20 UNK        -0.5000 
    110 CA        -5.3363  -19.6296  -51.7787 C.3       20 UNK         0.1400 
    111 CB        -5.8768  -21.0676  -51.7989 C.3       20 UNK        -0.1800 
    112 C         -5.5218  -18.9561  -53.1507 C.2       20 UNK         0.5000 
    113 O         -6.4110  -18.1160  -53.2944 O.2       20 UNK        -0.5000 
    114 N         -4.6769  -19.3215  -54.1232 N.am      21 UNK        -0.5000 
    115 CA        -4.6457  -18.7130  -55.4539 C.3       21 UNK         0.1400 
    116 CB        -4.2926  -19.7858  -56.4961 C.3       21 UNK        -0.1800 
    117 C         -3.6407  -17.5500  -55.5224 C.2       21 UNK         0.5000 
    118 O         -3.7974  -16.6718  -56.3719 O.2       21 UNK        -0.5000 
    119 N         -2.6269  -17.5667  -54.6459 N.am      22 UNK        -0.5000 
    120 CA        -1.5894  -16.5282  -54.5473 C.3       22 UNK         0.1400 
    121 C         -2.1284  -15.1578  -54.0484 C.2       22 UNK         0.5000 
    122 N         -3.0499  -15.1389  -53.0939 N.am      22 UNK        -0.7600 
    123 O         -1.6963  -14.1105  -54.5211 O.2       22 UNK        -0.5000 
    124 C124       -0.3973  -16.9600  -53.6575 C.3       23 UNK        -0.0398 
    125 S125        0.3087  -18.5952  -54.0629 S.3       23 UNK        -0.2404 
    126 C126        2.0199  -18.4229  -53.4553 C.3       23 UNK        -0.0205 
    127 H127       -5.0052  -15.6864  -48.9929 H         1 UNK         0.0600 
    128 H128       -5.4122  -15.4293  -50.6892 H         1 UNK         0.0600 
    129 H129       -6.0006  -14.3027  -49.4612 H         1 UNK         0.0600 
    130 H130       -2.9708  -14.9893  -48.4071 H         1 UNK         0.3000 
    131 H131       -1.2618  -13.5248  -50.1729 H         1 UNK         0.0600 
    132 H132        0.4067  -13.7041  -48.3180 H         1 UNK         0.0800 
    133 H133       -0.8299  -14.2620  -47.2225 H         1 UNK         0.0800 
    134 H134        1.8905  -15.1695  -49.5670 H         1 UNK         0.0800 
    135 H135        2.0353  -16.0369  -48.0518 H         1 UNK         0.0800 
    136 H136        1.5171  -16.3962  -51.6978 H         1 UNK         0.1150 
    137 H137        2.7802  -20.4881  -51.8329 H         1 UNK         0.1150 
    138 H138        2.4345  -18.4536  -48.0668 H         1 UNK         0.1150 
    139 H139        3.0242  -21.7614  -49.7956 H         1 UNK         0.0800 
    140 H140        4.2939  -20.7731  -49.1395 H         1 UNK         0.0800 
    141 H141        0.6127  -21.5230  -48.8101 H         1 UNK         0.0800 
    142 H142        0.3094  -20.5397  -47.4044 H         1 UNK         0.0800 
    143 H143        0.8879  -23.5347  -47.2468 H         1 UNK         0.0600 
    144 H144        0.6450  -21.6172  -45.1788 H         1 UNK         0.3000 
    145 H145       -0.6075  -23.8020  -42.6202 H         1 UNK         0.0600 
    146 H146        1.3957  -22.9273  -41.4670 H         1 UNK         0.0600 
    147 H147        1.8592  -24.1265  -42.6646 H         1 UNK         0.0600 
    148 H148        2.0964  -22.4173  -43.0006 H         1 UNK         0.0600 
    149 H149        0.0406  -21.0458  -42.5265 H         1 UNK         0.3000 
    150 H150       -3.2004  -19.8080  -43.5212 H         1 UNK         0.0600 
    151 H151       -3.3306  -20.2821  -41.1043 H         1 UNK         0.0600 
    152 H152       -2.8271  -18.6163  -41.3538 H         1 UNK         0.0600 
    153 H153       -1.6467  -19.8367  -40.8814 H         1 UNK         0.0600 
    154 H154       -0.8223  -18.4091  -42.8573 H         1 UNK         0.3000 
    155 H155        0.6333  -18.3299  -46.1193 H         1 UNK         0.0600 
    156 H156       -0.6747  -16.1883  -44.3554 H         1 UNK         0.0600 
    157 H157        0.5257  -15.9031  -45.6163 H         1 UNK         0.0600 
    158 H158       -1.0745  -16.5087  -46.0282 H         1 UNK         0.0600 
    159 H159        1.4429  -17.2550  -43.5976 H         1 UNK         0.3000 
    160 H160        3.3783  -20.0844  -42.5108 H         1 UNK         0.0600 
    161 H161        5.0533  -18.2659  -42.4166 H         1 UNK         0.0600 
    162 H162        4.0407  -17.2303  -43.4225 H         1 UNK         0.0600 
    163 H163        4.7408  -18.7004  -44.0894 H         1 UNK         0.0600 
    164 H164        2.8256  -17.5628  -41.2883 H         1 UNK         0.3000 
    165 H165       -0.1555  -18.4180  -39.5929 H         1 UNK         0.0600 
    166 H166        1.1466  -17.9130  -37.5462 H         1 UNK         0.0600 
    167 H167        1.5544  -19.5158  -38.1365 H         1 UNK         0.0600 
    168 H168        2.6627  -18.1766  -38.4092 H         1 UNK         0.0600 
    169 H169        1.5264  -16.1613  -39.3335 H         1 UNK         0.3000 
    170 H170        0.3542  -14.0708  -40.3008 H         1 UNK         0.0600 
    171 H171        2.4457  -13.3325  -41.5266 H         1 UNK         0.0600 
    172 H172        2.5632  -14.9128  -42.2903 H         1 UNK         0.0600 
    173 H173        2.7857  -14.7423  -40.5524 H         1 UNK         0.0600 
    174 H174       -0.4843  -14.8665  -42.8836 H         1 UNK         0.3000 
    175 H175       -0.9546  -13.5483  -44.6268 H         1 UNK         0.0600 
    176 H176       -2.8868  -11.9985  -44.7730 H         1 UNK         0.0600 
    177 H177       -2.3822  -11.1844  -43.2918 H         1 UNK         0.0600 
    178 H178       -2.9173  -12.8605  -43.2422 H         1 UNK         0.0600 
    179 H179       -0.6445  -10.7182  -44.9779 H         1 UNK         0.3000 
    180 H180        1.5311   -9.7430  -45.5602 H         1 UNK         0.0600 
    181 H181        3.1908  -11.6963  -47.2481 H         1 UNK         0.0600 
    182 H182        3.6759  -11.0045  -45.7040 H         1 UNK         0.0600 
    183 H183        3.4643   -9.9613  -47.1013 H         1 UNK         0.0600 
    184 H184        1.0388  -11.0119  -48.2000 H         1 UNK         0.3000 
    185 H185       -2.0820   -9.4009  -48.6522 H         1 UNK         0.0600 
    186 H186        0.5626   -9.2037  -50.1964 H         1 UNK         0.0600 
    187 H187       -1.0484   -8.9284  -50.8591 H         1 UNK         0.0600 
    188 H188       -0.4019   -7.8413  -49.6407 H         1 UNK         0.0600 
    189 H189       -0.5884  -11.3898  -50.1056 H         1 UNK         0.3000 
    190 H190       -1.9251  -21.4774  -46.3270 H         1 UNK         0.3000 
    191 H191       -3.6939  -22.4852  -48.3157 H         1 UNK         0.0600 
    192 H192       -4.0611  -20.3309  -47.1463 H         1 UNK         0.0600 
    193 H193       -5.4484  -21.3836  -46.9195 H         1 UNK         0.0600 
    194 H194       -4.2889  -21.1663  -45.6135 H         1 UNK         0.0600 
    195 H195       -3.1525  -23.4778  -44.9121 H         1 UNK         0.3000 
    196 H196       -5.2186  -25.3519  -44.6748 H         1 UNK         0.0600 
    197 H197       -3.8876  -26.1748  -42.7117 H         1 UNK         0.0600 
    198 H198       -3.9963  -24.4245  -42.7442 H         1 UNK         0.0600 
    199 H199       -2.5093  -25.2261  -43.2543 H         1 UNK         0.0600 
    200 H200       -2.2624  -25.7231  -46.4551 H         1 UNK         0.3000 
    201 H201       -2.1543  -28.6064  -46.4996 H         1 UNK         0.0600 
    202 H202       -0.2053  -27.1074  -47.0386 H         1 UNK         0.0600 
    203 H203       -1.0394  -26.5615  -48.4934 H         1 UNK         0.0600 
    204 H204       -0.5497  -28.2411  -48.3367 H         1 UNK         0.0600 
    205 H205       -4.3216  -26.3569  -47.9356 H         1 UNK         0.3000 
    206 H206       -5.9942  -26.4280  -49.3401 H         1 UNK         0.0600 
    207 H207       -6.6464  -28.5253  -48.1232 H         1 UNK         0.0600 
    208 H208       -7.2027  -28.5113  -49.7880 H         1 UNK         0.0600 
    209 H209       -5.8097  -29.4844  -49.3436 H         1 UNK         0.0600 
    210 H210       -3.2334  -26.3359  -50.3185 H         1 UNK         0.3000 
    211 H211       -3.3857  -27.2488  -53.1307 H         1 UNK         0.0600 
    212 H212       -1.1858  -25.7973  -51.5477 H         1 UNK         0.0600 
    213 H213       -1.0202  -26.4630  -53.1690 H         1 UNK         0.0600 
    214 H214       -1.2605  -27.5355  -51.8050 H         1 UNK         0.0600 
    215 H215       -2.4022  -25.4224  -54.6426 H         1 UNK         0.3000 
    216 H216       -4.1243  -23.1044  -54.6889 H         1 UNK         0.0600 
    217 H217       -2.7278  -22.4969  -56.6662 H         1 UNK         0.0600 
    218 H218       -3.2558  -24.1672  -56.7622 H         1 UNK         0.0600 
    219 H219       -1.5994  -23.7904  -56.2895 H         1 UNK         0.0600 
    220 H220       -1.1094  -23.8144  -53.1591 H         1 UNK         0.3000 
    221 H221        0.1708  -21.3484  -52.8835 H         1 UNK         0.0600 
    222 H222       -0.0294  -23.6660  -50.8829 H         1 UNK         0.0600 
    223 H223        1.1204  -23.5667  -52.2183 H         1 UNK         0.0600 
    224 H224        1.2028  -22.4170  -50.8992 H         1 UNK         0.0600 
    225 H225       -0.2595  -19.5550  -51.7891 H         1 UNK         0.3000 
    226 H226       -1.1936  -17.9422  -50.6660 H         1 UNK         0.0600 
    227 H227       -0.8350  -19.0229  -48.5598 H         1 UNK         0.0600 
    228 H228       -2.4356  -18.3207  -48.5077 H         1 UNK         0.0600 
    229 H229       -2.2576  -20.0515  -48.7352 H         1 UNK         0.0600 
    230 H230       -3.5627  -20.5579  -51.0699 H         1 UNK         0.3000 
    231 H231       -5.9176  -19.0584  -51.0522 H         1 UNK         0.0600 
    232 H232       -5.2991  -21.7044  -52.4703 H         1 UNK         0.0600 
    233 H233       -6.9149  -21.0925  -52.1324 H         1 UNK         0.0600 
    234 H234       -5.8428  -21.5162  -50.8058 H         1 UNK         0.0600 
    235 H235       -3.9617  -20.0212  -53.9333 H         1 UNK         0.3000 
    236 H236       -5.6329  -18.3185  -55.7038 H         1 UNK         0.0600 
    237 H237       -4.9553  -20.6479  -56.4205 H         1 UNK         0.0600 
    238 H238       -4.3874  -19.3885  -57.5072 H         1 UNK         0.0600 
    239 H239       -3.2669  -20.1364  -56.3815 H         1 UNK         0.0600 
    240 H240       -2.5615  -18.3362  -53.9975 H         1 UNK         0.3000 
    241 H241       -1.2017  -16.3709  -55.5558 H         1 UNK         0.0600 
    242 H242       -3.3465  -16.0004  -52.6435 H         1 UNK         0.3800 
    243 H243       -3.3802  -14.2560  -52.7295 H         1 UNK         0.3800 
    244 H244        0.3950  -16.2144  -53.7417 H         1 UNK         0.0800 
    245 H245       -0.6953  -16.9692  -52.6104 H         1 UNK         0.0800 
    246 H246        2.4572  -17.4999  -53.8389 H         1 UNK         0.0800 
    247 H247        2.6173  -19.2325  -53.8773 H         1 UNK         0.0800 
@<TRIPOS>BOND
     1    1    2 1    
     2    1  127 1    
     3    1  128 1    
     4    1  129 1    
     5    2    3 2    
     6    2    4 am   BACKBONE|DICT|INTERRES
     7    4    5 1    
     8    4  130 1    
     9    5    6 1    
    10    5   65 1    
    11    5  131 1    
    12    6    7 1    
    13    6  132 1    
    14    6  133 1    
    15    7    8 1    
    16    8    9 1    
    17    8  134 1    
    18    8  135 1    
    19    9   10 ar   
    20    9   14 ar   
    21   10   11 ar   
    22   10  136 1    
    23   11   12 ar   
    24   11  126 1    
    25   12   13 ar   
    26   12  137 1    
    27   13   14 ar   
    28   13   15 1    
    29   14  138 1    
    30   15   16 1    
    31   15  139 1    
    32   15  140 1    
    33   16   17 1    
    34   17   18 1    
    35   17  141 1    
    36   17  142 1    
    37   18   19 1    
    38   18   67 1    
    39   18  143 1    
    40   19   20 am   BACKBONE|DICT|INTERRES
    41   19  144 1    
    42   20   21 2    
    43   20   22 1    
    44   22   23 1    
    45   22   24 1    
    46   22  145 1    
    47   23  146 1    
    48   23  147 1    
    49   23  148 1    
    50   24   25 am   BACKBONE|DICT|INTERRES
    51   24  149 1    
    52   25   26 2    
    53   25   27 1    
    54   27   28 1    
    55   27   29 1    
    56   27  150 1    
    57   28  151 1    
    58   28  152 1    
    59   28  153 1    
    60   29   30 am   BACKBONE|DICT|INTERRES
    61   29  154 1    
    62   30   31 2    
    63   30   32 1    
    64   32   33 1    
    65   32   34 1    
    66   32  155 1    
    67   33  156 1    
    68   33  157 1    
    69   33  158 1    
    70   34   35 am   BACKBONE|DICT|INTERRES
    71   34  159 1    
    72   35   36 2    
    73   35   37 1    
    74   37   38 1    
    75   37   39 1    
    76   37  160 1    
    77   38  161 1    
    78   38  162 1    
    79   38  163 1    
    80   39   40 am   BACKBONE|DICT|INTERRES
    81   39  164 1    
    82   40   41 2    
    83   40   42 1    
    84   42   43 1    
    85   42   44 1    
    86   42  165 1    
    87   43  166 1    
    88   43  167 1    
    89   43  168 1    
    90   44   45 am   BACKBONE|DICT|INTERRES
    91   44  169 1    
    92   45   46 2    
    93   45   47 1    
    94   47   48 1    
    95   47   49 1    
    96   47  170 1    
    97   48  171 1    
    98   48  172 1    
    99   48  173 1    
   100   49   50 am   BACKBONE|DICT|INTERRES
   101   49  174 1    
   102   50   51 2    
   103   50   52 1    
   104   52   53 1    
   105   52   54 1    
   106   52  175 1    
   107   53  176 1    
   108   53  177 1    
   109   53  178 1    
   110   54   55 am   BACKBONE|DICT|INTERRES
   111   54  179 1    
   112   55   56 2    
   113   55   57 1    
   114   57   58 1    
   115   57   59 1    
   116   57  180 1    
   117   58  181 1    
   118   58  182 1    
   119   58  183 1    
   120   59   60 am   BACKBONE|DICT|INTERRES
   121   59  184 1    
   122   60   61 2    
   123   60   62 1    
   124   62   63 1    
   125   62   64 1    
   126   62  185 1    
   127   63  186 1    
   128   63  187 1    
   129   63  188 1    
   130   64   65 am   BACKBONE|DICT|INTERRES
   131   64  189 1    
   132   65   66 2    
   133   67   68 2    
   134   67   69 am   BACKBONE|DICT|INTERRES
   135   69   70 1    
   136   69  190 1    
   137   70   71 1    
   138   70   72 1    
   139   70  191 1    
   140   71  192 1    
   141   71  193 1    
   142   71  194 1    
   143   72   73 2    
   144   72   74 am   BACKBONE|DICT|INTERRES
   145   74   75 1    
   146   74  195 1    
   147   75   76 1    
   148   75   77 1    
   149   75  196 1    
   150   76  197 1    
   151   76  198 1    
   152   76  199 1    
   153   77   78 2    
   154   77   79 am   BACKBONE|DICT|INTERRES
   155   79   80 1    
   156   79  200 1    
   157   80   81 1    
   158   80   82 1    
   159   80  201 1    
   160   81  202 1    
   161   81  203 1    
   162   81  204 1    
   163   82   83 2    
   164   82   84 am   BACKBONE|DICT|INTERRES
   165   84   85 1    
   166   84  205 1    
   167   85   86 1    
   168   85   87 1    
   169   85  206 1    
   170   86  207 1    
   171   86  208 1    
   172   86  209 1    
   173   87   88 2    
   174   87   89 am   BACKBONE|DICT|INTERRES
   175   89   90 1    
   176   89  210 1    
   177   90   91 1    
   178   90   92 1    
   179   90  211 1    
   180   91  212 1    
   181   91  213 1    
   182   91  214 1    
   183   92   93 2    
   184   92   94 am   BACKBONE|DICT|INTERRES
   185   94   95 1    
   186   94  215 1    
   187   95   96 1    
   188   95   97 1    
   189   95  216 1    
   190   96  217 1    
   191   96  218 1    
   192   96  219 1    
   193   97   98 2    
   194   97   99 am   BACKBONE|DICT|INTERRES
   195   99  100 1    
   196   99  220 1    
   197  100  101 1    
   198  100  102 1    
   199  100  221 1    
   200  101  222 1    
   201  101  223 1    
   202  101  224 1    
   203  102  103 2    
   204  102  104 am   BACKBONE|DICT|INTERRES
   205  104  105 1    
   206  104  225 1    
   207  105  106 1    
   208  105  107 1    
   209  105  226 1    
   210  106  227 1    
   211  106  228 1    
   212  106  229 1    
   213  107  108 2    
   214  107  109 am   BACKBONE|DICT|INTERRES
   215  109  110 1    
   216  109  230 1    
   217  110  111 1    
   218  110  112 1    
   219  110  231 1    
   220  111  232 1    
   221  111  233 1    
   222  111  234 1    
   223  112  113 2    
   224  112  114 am   BACKBONE|DICT|INTERRES
   225  114  115 1    
   226  114  235 1    
   227  115  116 1    
   228  115  117 1    
   229  115  236 1    
   230  116  237 1    
   231  116  238 1    
   232  116  239 1    
   233  117  118 2    
   234  117  119 am   BACKBONE|DICT|INTERRES
   235  119  120 1    
   236  119  240 1    
   237  120  121 1    
   238  120  124 1    
   239  120  241 1    
   240  121  122 am   BACKBONE|DICT|INTERRES
   241  121  123 2    
   242  122  242 1    
   243  122  243 1    
   244  124  125 1    
   245  124  244 1    
   246  124  245 1    
   247  125  126 1    
   248  126  246 1    
   249  126  247 1    
@<TRIPOS>SUBSTRUCTURE
     1 UNK         1 GROUP             0       ****    0 ROOT    
