@<TRIPOS>MOLECULE
3R540
247   249    1
SMALL
USER_CHARGES


@<TRIPOS>ATOM
      1 CA         -7.3330  -11.6280  -49.0909 C.3       0 UNK        -0.1800 
      2 C          -5.8190  -11.7601  -49.0027 C.2       0 UNK         0.5000 
      3 O          -5.1026  -10.8030  -49.2974 O.2       0 UNK        -0.5000 
      4 N          -5.3324  -12.9428  -48.6082 N.am      1 UNK        -0.5000 
      5 CA         -3.9118  -13.2502  -48.4158 C.3       1 UNK         0.1400 
      6 C6         -3.6693  -14.7685  -48.2472 C.3       23 UNK        -0.0398 
      7 S7         -4.1702  -15.7216  -49.7231 S.3       23 UNK        -0.2404 
      8 C8         -4.8097  -17.2531  -48.9668 C.3       23 UNK        -0.0205 
      9 C9         -3.7545  -17.9531  -48.1236 C.ar      23 UNK        -0.0193 
     10 C10        -2.5575  -18.3699  -48.7085 C.ar      23 UNK        -0.1150 
     11 C11        -1.5608  -18.9646  -47.9351 C.ar      23 UNK        -0.0193 
     12 C12        -1.7711  -19.1610  -46.5690 C.ar      23 UNK        -0.1150 
     13 C13        -2.9733  -18.7655  -45.9724 C.ar      23 UNK        -0.0193 
     14 C14        -3.9619  -18.1640  -46.7575 C.ar      23 UNK        -0.1150 
     15 C15        -3.1858  -18.9228  -44.4730 C.3       23 UNK        -0.0205 
     16 S16        -3.5754  -20.6367  -44.0011 S.3       23 UNK        -0.2404 
     17 C17        -1.9118  -21.3783  -43.9015 C.3       23 UNK        -0.0398 
     18 CA         -1.6507  -22.3956  -45.0390 C.3       11 UNK         0.1400 
     19 N          -0.2442  -22.4217  -45.4543 N.am      11 UNK        -0.5000 
     20 C           0.2594  -23.1447  -46.4660 C.2       10 UNK         0.5000 
     21 O          -0.4290  -23.8537  -47.1996 O.2       10 UNK        -0.5000 
     22 CA          1.7876  -23.1170  -46.6515 C.3       10 UNK         0.1400 
     23 CB          2.2254  -21.9755  -47.5772 C.3       10 UNK        -0.1800 
     24 N           2.4763  -22.9778  -45.3702 N.am      10 UNK        -0.5000 
     25 C           2.7820  -24.0015  -44.5628 C.2       9 UNK         0.5000 
     26 O           2.5847  -25.1824  -44.8484 O.2       9 UNK        -0.5000 
     27 CA          3.3915  -23.6433  -43.1939 C.3       9 UNK         0.1400 
     28 CB          4.9226  -23.5656  -43.2894 C.3       9 UNK        -0.1800 
     29 N           2.8796  -22.3854  -42.6444 N.am      9 UNK        -0.5000 
     30 C           1.6116  -22.1838  -42.2609 C.2       8 UNK         0.5000 
     31 O           0.7280  -23.0387  -42.3364 O.2       8 UNK        -0.5000 
     32 CA          1.2622  -20.7738  -41.7477 C.3       8 UNK         0.1400 
     33 CB          1.5774  -20.6565  -40.2492 C.3       8 UNK        -0.1800 
     34 N           1.9196  -19.6760  -42.4679 N.am      8 UNK        -0.5000 
     35 C           1.8310  -19.4484  -43.7851 C.2       7 UNK         0.5000 
     36 O           1.2854  -20.2174  -44.5781 O.2       7 UNK        -0.5000 
     37 CA          2.4507  -18.1456  -44.3155 C.3       7 UNK         0.1400 
     38 CB          3.5786  -18.4471  -45.3148 C.3       7 UNK        -0.1800 
     39 N           1.4292  -17.3384  -44.9791 N.am      7 UNK        -0.5000 
     40 C           0.4590  -16.6587  -44.3505 C.2       6 UNK         0.5000 
     41 O           0.3707  -16.5833  -43.1239 O.2       6 UNK        -0.5000 
     42 CA         -0.5925  -15.9680  -45.2457 C.3       6 UNK         0.1400 
     43 CB         -1.3686  -14.8393  -44.5352 C.3       6 UNK        -0.1800 
     44 N          -0.0505  -15.5435  -46.5410 N.am      6 UNK        -0.5000 
     45 C           0.8082  -14.5398  -46.7652 C.2       5 UNK         0.5000 
     46 O           1.1964  -13.7599  -45.8930 O.2       5 UNK        -0.5000 
     47 CA          1.3146  -14.4066  -48.2142 C.3       5 UNK         0.1400 
     48 CB          0.1586  -14.3325  -49.2300 C.3       5 UNK        -0.1800 
     49 N           2.1529  -13.2211  -48.3686 N.am      5 UNK        -0.5000 
     50 C           3.4850  -13.1978  -48.2241 C.2       4 UNK         0.5000 
     51 O           4.1742  -14.1936  -47.9991 O.2       4 UNK        -0.5000 
     52 CA          4.1729  -11.8242  -48.3471 C.3       4 UNK         0.1400 
     53 CB          4.6379  -11.5830  -49.7915 C.3       4 UNK        -0.1800 
     54 N           3.3092  -10.7184  -47.9327 N.am      4 UNK        -0.5000 
     55 C           2.9759  -10.4511  -46.6635 C.2       3 UNK         0.5000 
     56 O           3.4334  -11.0563  -45.6932 O.2       3 UNK        -0.5000 
     57 CA          1.9586   -9.3184  -46.4273 C.3       3 UNK         0.1400 
     58 CB          1.9120   -8.2685  -47.5610 C.3       3 UNK        -0.1800 
     59 N           0.6188   -9.8431  -46.1457 N.am      3 UNK        -0.5000 
     60 C          -0.1485  -10.5919  -46.9508 C.2       2 UNK         0.5000 
     61 O           0.1904  -10.9702  -48.0774 O.2       2 UNK        -0.5000 
     62 CA         -1.5429  -10.9547  -46.4111 C.3       2 UNK         0.1400 
     63 CB         -2.3718   -9.6861  -46.1120 C.3       2 UNK        -0.1800 
     64 N          -2.2293  -11.7811  -47.4001 N.am      2 UNK        -0.5000 
     65 C          -3.3540  -12.4761  -47.2038 C.2       1 UNK         0.5000 
     66 O          -3.9475  -12.5333  -46.1242 O.2       1 UNK        -0.5000 
     67 C          -2.1848  -23.7904  -44.6550 C.2       11 UNK         0.5000 
     68 O          -3.3311  -24.1144  -44.9696 O.2       11 UNK        -0.5000 
     69 N          -1.3187  -24.6023  -44.0313 N.am      12 UNK        -0.5000 
     70 CA         -1.5640  -25.9969  -43.6624 C.3       12 UNK         0.1400 
     71 CB         -0.3430  -26.5282  -42.8974 C.3       12 UNK        -0.1800 
     72 C          -1.8973  -26.9173  -44.8553 C.2       12 UNK         0.5000 
     73 O          -2.5866  -27.9192  -44.6638 O.2       12 UNK        -0.5000 
     74 N          -1.4573  -26.5494  -46.0673 N.am      13 UNK        -0.5000 
     75 CA         -1.7847  -27.2221  -47.3246 C.3       13 UNK         0.1400 
     76 CB         -0.5798  -27.1190  -48.2778 C.3       13 UNK        -0.1800 
     77 C          -3.0815  -26.6531  -47.9396 C.2       13 UNK         0.5000 
     78 O          -3.1129  -26.3492  -49.1327 O.2       13 UNK        -0.5000 
     79 N          -4.1249  -26.5081  -47.1085 N.am      14 UNK        -0.5000 
     80 CA         -5.4720  -26.0254  -47.4340 C.3       14 UNK         0.1400 
     81 CB         -6.2106  -27.0583  -48.3113 C.3       14 UNK        -0.1800 
     82 C          -5.4694  -24.6125  -48.0519 C.2       14 UNK         0.5000 
     83 O          -5.9736  -24.4236  -49.1607 O.2       14 UNK        -0.5000 
     84 N          -4.8625  -23.6539  -47.3345 N.am      15 UNK        -0.5000 
     85 CA         -4.6559  -22.2563  -47.7434 C.3       15 UNK         0.1400 
     86 CB         -5.9994  -21.5027  -47.8411 C.3       15 UNK        -0.1800 
     87 C          -3.8137  -22.1509  -49.0317 C.2       15 UNK         0.5000 
     88 O          -4.1267  -21.3408  -49.9037 O.2       15 UNK        -0.5000 
     89 N          -2.7992  -23.0233  -49.1430 N.am      16 UNK        -0.5000 
     90 CA         -1.9888  -23.2973  -50.3316 C.3       16 UNK         0.1400 
     91 CB         -1.0294  -22.1328  -50.6304 C.3       16 UNK        -0.1800 
     92 C          -2.8628  -23.6654  -51.5434 C.2       16 UNK         0.5000 
     93 O          -2.9687  -22.8817  -52.4863 O.2       16 UNK        -0.5000 
     94 N          -3.5025  -24.8394  -51.4649 N.am      17 UNK        -0.5000 
     95 CA         -4.3556  -25.4491  -52.4894 C.3       17 UNK         0.1400 
     96 CB         -3.4915  -25.9443  -53.6678 C.3       17 UNK        -0.1800 
     97 C          -5.5158  -24.5339  -52.9364 C.2       17 UNK         0.5000 
     98 O          -5.7403  -24.3591  -54.1359 O.2       17 UNK        -0.5000 
     99 N          -6.2207  -23.9648  -51.9487 N.am      18 UNK        -0.5000 
    100 CA        -7.3268  -23.0166  -52.0816 C.3       18 UNK         0.1400 
    101 CB        -8.5492  -23.6796  -52.7517 C.3       18 UNK        -0.1800 
    102 C         -6.8943  -21.6985  -52.7562 C.2       18 UNK         0.5000 
    103 O         -7.4505  -21.3132  -53.7867 O.2       18 UNK        -0.5000 
    104 N         -5.9218  -21.0231  -52.1296 N.am      19 UNK        -0.5000 
    105 CA        -5.4177  -19.6886  -52.4527 C.3       19 UNK         0.1400 
    106 CB        -6.5294  -18.6241  -52.3267 C.3       19 UNK        -0.1800 
    107 C         -4.6450  -19.6187  -53.7835 C.2       19 UNK         0.5000 
    108 O         -4.8791  -18.7142  -54.5874 O.2       19 UNK        -0.5000 
    109 N         -3.6752  -20.5280  -53.9634 N.am      20 UNK        -0.5000 
    110 CA        -2.6357  -20.4240  -54.9978 C.3       20 UNK         0.1400 
    111 CB        -2.0545  -21.8172  -55.2897 C.3       20 UNK        -0.1800 
    112 C         -1.5136  -19.4273  -54.6168 C.2       20 UNK         0.5000 
    113 O         -0.6200  -19.1913  -55.4313 O.2       20 UNK        -0.5000 
    114 N         -1.5991  -18.8592  -53.4033 N.am      21 UNK        -0.5000 
    115 CA        -0.7113  -17.8850  -52.7629 C.3       21 UNK         0.1400 
    116 CB        -0.4584  -16.6562  -53.6630 C.3       21 UNK        -0.1800 
    117 C          0.5923  -18.5071  -52.2277 C.2       21 UNK         0.5000 
    118 O          0.8671  -19.6914  -52.4318 O.2       21 UNK        -0.5000 
    119 N          1.3475  -17.6856  -51.4975 N.am      22 UNK        -0.5000 
    120 CA         2.5798  -18.0291  -50.7812 C.3       22 UNK         0.1400 
    121 C          3.4222  -16.7520  -50.5038 C.2       22 UNK         0.5000 
    122 N          4.5444  -16.8650  -49.8074 N.am      22 UNK        -0.7600 
    123 O          3.0744  -15.6503  -50.9251 O.2       22 UNK        -0.5000 
    124 C124        2.3168  -18.9001  -49.5157 C.3       23 UNK        -0.0398 
    125 S125        1.0756  -18.2088  -48.3596 S.3       23 UNK        -0.2404 
    126 C126       -0.2673  -19.4104  -48.5843 C.3       23 UNK        -0.0205 
    127 H127       -7.6287  -11.3711  -50.1081 H         1 UNK         0.0600 
    128 H128       -7.6801  -10.8389  -48.4239 H         1 UNK         0.0600 
    129 H129       -7.8379  -12.5539  -48.8139 H         1 UNK         0.0600 
    130 H130       -5.9725  -13.6874  -48.3740 H         1 UNK         0.3000 
    131 H131       -3.3777  -12.9212  -49.3103 H         1 UNK         0.0600 
    132 H132       -2.6140  -14.9740  -48.0633 H         1 UNK         0.0800 
    133 H133       -4.2068  -15.1410  -47.3731 H         1 UNK         0.0800 
    134 H134       -5.1389  -17.9314  -49.7538 H         1 UNK         0.0800 
    135 H135       -5.6939  -17.0173  -48.3727 H         1 UNK         0.0800 
    136 H136       -2.3993  -18.2151  -49.7659 H         1 UNK         0.1150 
    137 H137       -0.9866  -19.6052  -45.9748 H         1 UNK         0.1150 
    138 H138       -4.8861  -17.8402  -46.2999 H         1 UNK         0.1150 
    139 H139       -2.3089  -18.5688  -43.9293 H         1 UNK         0.0800 
    140 H140       -4.0097  -18.2866  -44.1460 H         1 UNK         0.0800 
    141 H141       -1.7887  -21.8334  -42.9168 H         1 UNK         0.0800 
    142 H142       -1.1784  -20.5754  -43.9292 H         1 UNK         0.0800 
    143 H143       -2.1914  -22.0726  -45.9267 H         1 UNK         0.0600 
    144 H144        0.3856  -21.8012  -44.9533 H         1 UNK         0.3000 
    145 H145        2.0794  -24.0583  -47.1223 H         1 UNK         0.0600 
    146 H146        3.2989  -22.0117  -47.7621 H         1 UNK         0.0600 
    147 H147        1.9976  -21.0001  -47.1477 H         1 UNK         0.0600 
    148 H148        1.7298  -22.0461  -48.5453 H         1 UNK         0.0600 
    149 H149        2.6259  -22.0349  -45.0379 H         1 UNK         0.3000 
    150 H150        3.1320  -24.4446  -42.4985 H         1 UNK         0.0600 
    151 H151        5.3374  -24.4976  -43.6757 H         1 UNK         0.0600 
    152 H152        5.3708  -23.3932  -42.3107 H         1 UNK         0.0600 
    153 H153        5.2448  -22.7625  -43.9535 H         1 UNK         0.0600 
    154 H154        3.5360  -21.6236  -42.5554 H         1 UNK         0.3000 
    155 H155        0.1865  -20.6412  -41.8718 H         1 UNK         0.0600 
    156 H156        1.0852  -21.4482  -39.6826 H         1 UNK         0.0600 
    157 H157        1.2278  -19.7060  -39.8455 H         1 UNK         0.0600 
    158 H158        2.6481  -20.7308  -40.0554 H         1 UNK         0.0600 
    159 H159        2.3873  -18.9902  -41.8928 H         1 UNK         0.3000 
    160 H160        2.8683  -17.5736  -43.4844 H         1 UNK         0.0600 
    161 H161        3.2184  -19.0134  -46.1745 H         1 UNK         0.0600 
    162 H162        4.3704  -19.0320  -44.8454 H         1 UNK         0.0600 
    163 H163        4.0301  -17.5277  -45.6882 H         1 UNK         0.0600 
    164 H164        1.4048  -17.3936  -45.9874 H         1 UNK         0.3000 
    165 H165       -1.3250  -16.7333  -45.4804 H         1 UNK         0.0600 
    166 H166       -0.7093  -14.0539  -44.1660 H         1 UNK         0.0600 
    167 H167       -2.0970  -14.3829  -45.2036 H         1 UNK         0.0600 
    168 H168       -1.9190  -15.2277  -43.6777 H         1 UNK         0.0600 
    169 H169       -0.2890  -16.1443  -47.3183 H         1 UNK         0.3000 
    170 H170        1.9039  -15.2975  -48.4330 H         1 UNK         0.0600 
    171 H171       -0.5269  -13.5168  -49.0032 H         1 UNK         0.0600 
    172 H172        0.5378  -14.1766  -50.2402 H         1 UNK         0.0600 
    173 H173       -0.4179  -15.2579  -49.2498 H         1 UNK         0.0600 
    174 H174        1.6579  -12.3398  -48.4518 H         1 UNK         0.3000 
    175 H175        5.0547  -11.8351  -47.7028 H         1 UNK         0.0600 
    176 H176        3.7963  -11.5485  -50.4845 H         1 UNK         0.0600 
    177 H177        5.1859  -10.6447  -49.8791 H         1 UNK         0.0600 
    178 H178        5.3036  -12.3804  -50.1245 H         1 UNK         0.0600 
    179 H179        2.8666  -10.1854  -48.6673 H         1 UNK         0.3000 
    180 H180        2.2840   -8.8016  -45.5232 H         1 UNK         0.0600 
    181 H181        1.5305   -8.6764  -48.4972 H         1 UNK         0.0600 
    182 H182        2.9046   -7.8611  -47.7574 H         1 UNK         0.0600 
    183 H183        1.2711   -7.4310  -47.2854 H         1 UNK         0.0600 
    184 H184        0.2610   -9.6174  -45.2284 H         1 UNK         0.3000 
    185 H185       -1.4097  -11.5365  -45.4968 H         1 UNK         0.0600 
    186 H186       -2.5152   -9.0842  -47.0102 H         1 UNK         0.0600 
    187 H187       -3.3574   -9.9321  -45.7176 H         1 UNK         0.0600 
    188 H188       -1.8863   -9.0550  -45.3674 H         1 UNK         0.0600 
    189 H189       -1.7683  -11.7867  -48.3020 H         1 UNK         0.3000 
    190 H190       -0.4178  -24.2203  -43.7671 H         1 UNK         0.3000 
    191 H191       -2.4238  -26.0107  -42.9898 H         1 UNK         0.0600 
    192 H192       -0.1365  -25.9242  -42.0134 H         1 UNK         0.0600 
    193 H193        0.5520  -26.5264  -43.5205 H         1 UNK         0.0600 
    194 H194       -0.5070  -27.5526  -42.5606 H         1 UNK         0.0600 
    195 H195       -0.9529  -25.6755  -46.1573 H         1 UNK         0.3000 
    196 H196       -1.9604  -28.2830  -47.1357 H         1 UNK         0.0600 
    197 H197       -0.3798  -26.0885  -48.5707 H         1 UNK         0.0600 
    198 H198       -0.7548  -27.6894  -49.1908 H         1 UNK         0.0600 
    199 H199        0.3238  -27.5171  -47.8160 H         1 UNK         0.0600 
    200 H200       -3.9786  -26.7665  -46.1416 H         1 UNK         0.3000 
    201 H201       -6.0121  -25.9477  -46.4893 H         1 UNK         0.0600 
    202 H202       -6.2380  -28.0360  -47.8302 H         1 UNK         0.0600 
    203 H203       -5.7360  -27.1779  -49.2859 H         1 UNK         0.0600 
    204 H204       -7.2432  -26.7541  -48.4865 H         1 UNK         0.0600 
    205 H205       -4.4406  -23.9146  -46.4448 H         1 UNK         0.3000 
    206 H206       -4.0839  -21.7709  -46.9558 H         1 UNK         0.0600 
    207 H207       -6.5675  -21.5905  -46.9153 H         1 UNK         0.0600 
    208 H208       -6.6207  -21.8766  -48.6551 H         1 UNK         0.0600 
    209 H209       -5.8349  -20.4392  -48.0194 H         1 UNK         0.0600 
    210 H210       -2.6301  -23.6489  -48.3679 H         1 UNK         0.3000 
    211 H211       -1.3798  -24.1728  -50.1011 H         1 UNK         0.0600 
    212 H212       -1.5657  -21.2012  -50.8112 H         1 UNK         0.0600 
    213 H213       -0.4277  -22.3372  -51.5168 H         1 UNK         0.0600 
    214 H214       -0.3394  -21.9853  -49.8029 H         1 UNK         0.0600 
    215 H215       -3.3877  -25.3875  -50.6121 H         1 UNK         0.3000 
    216 H216       -4.8153  -26.3224  -52.0245 H         1 UNK         0.0600 
    217 H217       -4.0938  -26.4951  -54.3911 H         1 UNK         0.0600 
    218 H218       -2.7045  -26.6156  -53.3241 H         1 UNK         0.0600 
    219 H219       -3.0184  -25.1162  -54.1972 H         1 UNK         0.0600 
    220 H220       -5.9562  -24.1743  -50.9870 H         1 UNK         0.3000 
    221 H221       -7.6211  -22.7560  -51.0637 H         1 UNK         0.0600 
    222 H222       -8.3530  -23.9480  -53.7900 H         1 UNK         0.0600 
    223 H223       -8.8455  -24.5846  -52.2214 H         1 UNK         0.0600 
    224 H224       -9.4063  -23.0054  -52.7470 H         1 UNK         0.0600 
    225 H225       -5.4700  -21.4447  -51.3224 H         1 UNK         0.3000 
    226 H226       -4.6815  -19.4600  -51.6816 H         1 UNK         0.0600 
    227 H227       -7.0312  -18.6899  -51.3614 H         1 UNK         0.0600 
    228 H228       -6.1147  -17.6184  -52.4067 H         1 UNK         0.0600 
    229 H229       -7.2848  -18.7273  -53.1059 H         1 UNK         0.0600 
    230 H230       -3.5563  -21.2865  -53.2929 H         1 UNK         0.3000 
    231 H231       -3.0964  -20.0595  -55.9181 H         1 UNK         0.0600 
    232 H232       -1.4207  -21.7948  -56.1767 H         1 UNK         0.0600 
    233 H233       -2.8428  -22.5487  -55.4696 H         1 UNK         0.0600 
    234 H234       -1.4405  -22.1779  -54.4640 H         1 UNK         0.0600 
    235 H235       -2.3524  -19.1901  -52.8206 H         1 UNK         0.3000 
    236 H236       -1.2612  -17.5354  -51.8878 H         1 UNK         0.0600 
    237 H237        0.2087  -16.8891  -54.4932 H         1 UNK         0.0600 
    238 H238       -1.3905  -16.2721  -54.0777 H         1 UNK         0.0600 
    239 H239       -0.0001  -15.8422  -53.1005 H         1 UNK         0.0600 
    240 H240        1.0968  -16.7097  -51.4146 H         1 UNK         0.3000 
    241 H241        3.1894  -18.6166  -51.4701 H         1 UNK         0.0600 
    242 H242        5.0540  -16.0220  -49.5898 H         1 UNK         0.3800 
    243 H243        4.8802  -17.7493  -49.4621 H         1 UNK         0.3800 
    244 H244        3.2377  -19.0791  -48.9604 H         1 UNK         0.0800 
    245 H245        1.9924  -19.8906  -49.8360 H         1 UNK         0.0800 
    246 H246        0.0220  -20.3729  -48.1681 H         1 UNK         0.0800 
    247 H247       -0.4250  -19.5603  -49.6510 H         1 UNK         0.0800 
@<TRIPOS>BOND
     1    1    2 1    
     2    1  127 1    
     3    1  128 1    
     4    1  129 1    
     5    2    3 2    
     6    2    4 am   BACKBONE|DICT|INTERRES
     7    4    5 1    
     8    4  130 1    
     9    5    6 1    
    10    5   65 1    
    11    5  131 1    
    12    6    7 1    
    13    6  132 1    
    14    6  133 1    
    15    7    8 1    
    16    8    9 1    
    17    8  134 1    
    18    8  135 1    
    19    9   10 ar   
    20    9   14 ar   
    21   10   11 ar   
    22   10  136 1    
    23   11   12 ar   
    24   11  126 1    
    25   12   13 ar   
    26   12  137 1    
    27   13   14 ar   
    28   13   15 1    
    29   14  138 1    
    30   15   16 1    
    31   15  139 1    
    32   15  140 1    
    33   16   17 1    
    34   17   18 1    
    35   17  141 1    
    36   17  142 1    
    37   18   19 1    
    38   18   67 1    
    39   18  143 1    
    40   19   20 am   BACKBONE|DICT|INTERRES
    41   19  144 1    
    42   20   21 2    
    43   20   22 1    
    44   22   23 1    
    45   22   24 1    
    46   22  145 1    
    47   23  146 1    
    48   23  147 1    
    49   23  148 1    
    50   24   25 am   BACKBONE|DICT|INTERRES
    51   24  149 1    
    52   25   26 2    
    53   25   27 1    
    54   27   28 1    
    55   27   29 1    
    56   27  150 1    
    57   28  151 1    
    58   28  152 1    
    59   28  153 1    
    60   29   30 am   BACKBONE|DICT|INTERRES
    61   29  154 1    
    62   30   31 2    
    63   30   32 1    
    64   32   33 1    
    65   32   34 1    
    66   32  155 1    
    67   33  156 1    
    68   33  157 1    
    69   33  158 1    
    70   34   35 am   BACKBONE|DICT|INTERRES
    71   34  159 1    
    72   35   36 2    
    73   35   37 1    
    74   37   38 1    
    75   37   39 1    
    76   37  160 1    
    77   38  161 1    
    78   38  162 1    
    79   38  163 1    
    80   39   40 am   BACKBONE|DICT|INTERRES
    81   39  164 1    
    82   40   41 2    
    83   40   42 1    
    84   42   43 1    
    85   42   44 1    
    86   42  165 1    
    87   43  166 1    
    88   43  167 1    
    89   43  168 1    
    90   44   45 am   BACKBONE|DICT|INTERRES
    91   44  169 1    
    92   45   46 2    
    93   45   47 1    
    94   47   48 1    
    95   47   49 1    
    96   47  170 1    
    97   48  171 1    
    98   48  172 1    
    99   48  173 1    
   100   49   50 am   BACKBONE|DICT|INTERRES
   101   49  174 1    
   102   50   51 2    
   103   50   52 1    
   104   52   53 1    
   105   52   54 1    
   106   52  175 1    
   107   53  176 1    
   108   53  177 1    
   109   53  178 1    
   110   54   55 am   BACKBONE|DICT|INTERRES
   111   54  179 1    
   112   55   56 2    
   113   55   57 1    
   114   57   58 1    
   115   57   59 1    
   116   57  180 1    
   117   58  181 1    
   118   58  182 1    
   119   58  183 1    
   120   59   60 am   BACKBONE|DICT|INTERRES
   121   59  184 1    
   122   60   61 2    
   123   60   62 1    
   124   62   63 1    
   125   62   64 1    
   126   62  185 1    
   127   63  186 1    
   128   63  187 1    
   129   63  188 1    
   130   64   65 am   BACKBONE|DICT|INTERRES
   131   64  189 1    
   132   65   66 2    
   133   67   68 2    
   134   67   69 am   BACKBONE|DICT|INTERRES
   135   69   70 1    
   136   69  190 1    
   137   70   71 1    
   138   70   72 1    
   139   70  191 1    
   140   71  192 1    
   141   71  193 1    
   142   71  194 1    
   143   72   73 2    
   144   72   74 am   BACKBONE|DICT|INTERRES
   145   74   75 1    
   146   74  195 1    
   147   75   76 1    
   148   75   77 1    
   149   75  196 1    
   150   76  197 1    
   151   76  198 1    
   152   76  199 1    
   153   77   78 2    
   154   77   79 am   BACKBONE|DICT|INTERRES
   155   79   80 1    
   156   79  200 1    
   157   80   81 1    
   158   80   82 1    
   159   80  201 1    
   160   81  202 1    
   161   81  203 1    
   162   81  204 1    
   163   82   83 2    
   164   82   84 am   BACKBONE|DICT|INTERRES
   165   84   85 1    
   166   84  205 1    
   167   85   86 1    
   168   85   87 1    
   169   85  206 1    
   170   86  207 1    
   171   86  208 1    
   172   86  209 1    
   173   87   88 2    
   174   87   89 am   BACKBONE|DICT|INTERRES
   175   89   90 1    
   176   89  210 1    
   177   90   91 1    
   178   90   92 1    
   179   90  211 1    
   180   91  212 1    
   181   91  213 1    
   182   91  214 1    
   183   92   93 2    
   184   92   94 am   BACKBONE|DICT|INTERRES
   185   94   95 1    
   186   94  215 1    
   187   95   96 1    
   188   95   97 1    
   189   95  216 1    
   190   96  217 1    
   191   96  218 1    
   192   96  219 1    
   193   97   98 2    
   194   97   99 am   BACKBONE|DICT|INTERRES
   195   99  100 1    
   196   99  220 1    
   197  100  101 1    
   198  100  102 1    
   199  100  221 1    
   200  101  222 1    
   201  101  223 1    
   202  101  224 1    
   203  102  103 2    
   204  102  104 am   BACKBONE|DICT|INTERRES
   205  104  105 1    
   206  104  225 1    
   207  105  106 1    
   208  105  107 1    
   209  105  226 1    
   210  106  227 1    
   211  106  228 1    
   212  106  229 1    
   213  107  108 2    
   214  107  109 am   BACKBONE|DICT|INTERRES
   215  109  110 1    
   216  109  230 1    
   217  110  111 1    
   218  110  112 1    
   219  110  231 1    
   220  111  232 1    
   221  111  233 1    
   222  111  234 1    
   223  112  113 2    
   224  112  114 am   BACKBONE|DICT|INTERRES
   225  114  115 1    
   226  114  235 1    
   227  115  116 1    
   228  115  117 1    
   229  115  236 1    
   230  116  237 1    
   231  116  238 1    
   232  116  239 1    
   233  117  118 2    
   234  117  119 am   BACKBONE|DICT|INTERRES
   235  119  120 1    
   236  119  240 1    
   237  120  121 1    
   238  120  124 1    
   239  120  241 1    
   240  121  122 am   BACKBONE|DICT|INTERRES
   241  121  123 2    
   242  122  242 1    
   243  122  243 1    
   244  124  125 1    
   245  124  244 1    
   246  124  245 1    
   247  125  126 1    
   248  126  246 1    
   249  126  247 1    
@<TRIPOS>SUBSTRUCTURE
     1 UNK         1 GROUP             0       ****    0 ROOT    
