@<TRIPOS>MOLECULE
3R540
247   249    1
SMALL
USER_CHARGES


@<TRIPOS>ATOM
      1 CA          3.5409   -9.6796  -49.2665 C.3       0 UNK        -0.1800 
      2 C           3.5455  -11.1717  -48.9662 C.2       0 UNK         0.5000 
      3 O           3.7096  -11.5618  -47.8107 O.2       0 UNK        -0.5000 
      4 N           3.3699  -12.0039  -50.0017 N.am      1 UNK        -0.5000 
      5 CA          3.3088  -13.4674  -49.9091 C.3       1 UNK         0.1400 
      6 C6          3.3808  -14.1140  -51.3173 C.3       23 UNK        -0.0398 
      7 S7          3.4240  -15.9425  -51.3226 S.3       23 UNK        -0.2404 
      8 C8          1.6893  -16.3004  -51.7409 C.3       23 UNK        -0.0205 
      9 C9          1.4145  -17.7923  -51.8019 C.ar      23 UNK        -0.0193 
     10 C10         1.5604  -18.4766  -53.0107 C.ar      23 UNK        -0.1150 
     11 C11         1.2472  -19.8362  -53.1040 C.ar      23 UNK        -0.0193 
     12 C12         0.7931  -20.5101  -51.9666 C.ar      23 UNK        -0.1150 
     13 C13         0.6662  -19.8427  -50.7443 C.ar      23 UNK        -0.0193 
     14 C14         0.9816  -18.4826  -50.6652 C.ar      23 UNK        -0.1150 
     15 C15         0.1829  -20.5999  -49.5186 C.3       23 UNK        -0.0205 
     16 S16         1.5524  -21.4694  -48.7053 S.3       23 UNK        -0.2404 
     17 C17         0.6159  -22.6806  -47.7158 C.3       23 UNK        -0.0398 
     18 CA          1.5271  -23.4546  -46.7321 C.3       11 UNK         0.1400 
     19 N           2.1089  -22.5698  -45.7191 N.am      11 UNK        -0.5000 
     20 C           3.3284  -22.6994  -45.1840 C.2       10 UNK         0.5000 
     21 O           4.1221  -23.5893  -45.4912 O.2       10 UNK        -0.5000 
     22 CA          3.7060  -21.6899  -44.0838 C.3       10 UNK         0.1400 
     23 CB          4.2450  -20.3926  -44.7046 C.3       10 UNK        -0.1800 
     24 N           2.5959  -21.3784  -43.1779 N.am      10 UNK        -0.5000 
     25 C           1.9764  -22.2731  -42.3930 C.2       9 UNK         0.5000 
     26 O           2.2742  -23.4674  -42.3494 O.2       9 UNK        -0.5000 
     27 CA          0.7972  -21.7605  -41.5470 C.3       9 UNK         0.1400 
     28 CB          1.2968  -20.9696  -40.3286 C.3       9 UNK        -0.1800 
     29 N          -0.1337  -20.9407  -42.3214 N.am      9 UNK        -0.5000 
     30 C          -0.8692  -21.3924  -43.3468 C.2       8 UNK         0.5000 
     31 O          -0.8812  -22.5646  -43.7192 O.2       8 UNK        -0.5000 
     32 CA         -1.6999  -20.3544  -44.1202 C.3       8 UNK         0.1400 
     33 CB         -2.9929  -20.0180  -43.3637 C.3       8 UNK        -0.1800 
     34 N          -0.9524  -19.1295  -44.3983 N.am      8 UNK        -0.5000 
     35 C           0.1814  -19.0830  -45.1125 C.2       7 UNK         0.5000 
     36 O           0.6837  -20.0613  -45.6611 O.2       7 UNK        -0.5000 
     37 CA          0.9061  -17.7312  -45.1729 C.3       7 UNK         0.1400 
     38 CB          0.2887  -16.8240  -46.2414 C.3       7 UNK        -0.1800 
     39 N           0.8979  -17.0533  -43.8771 N.am      7 UNK        -0.5000 
     40 C           1.5831  -17.4778  -42.8060 C.2       6 UNK         0.5000 
     41 O           2.3393  -18.4489  -42.8167 O.2       6 UNK        -0.5000 
     42 CA          1.3332  -16.7265  -41.4882 C.3       6 UNK         0.1400 
     43 CB          2.2167  -15.4742  -41.3902 C.3       6 UNK        -0.1800 
     44 N          -0.0767  -16.3632  -41.3323 N.am      6 UNK        -0.5000 
     45 C          -1.0424  -17.2573  -41.0731 C.2       5 UNK         0.5000 
     46 O          -0.8273  -18.4588  -40.9162 O.2       5 UNK        -0.5000 
     47 CA         -2.4929  -16.7443  -41.0058 C.3       5 UNK         0.1400 
     48 CB         -2.8547  -16.3503  -39.5663 C.3       5 UNK        -0.1800 
     49 N          -2.7689  -15.6166  -41.8950 N.am      5 UNK        -0.5000 
     50 C          -2.6805  -15.6384  -43.2316 C.2       4 UNK         0.5000 
     51 O          -2.3278  -16.6288  -43.8742 O.2       4 UNK        -0.5000 
     52 CA         -3.0156  -14.3294  -43.9806 C.3       4 UNK         0.1400 
     53 CB         -3.6406  -13.2370  -43.0848 C.3       4 UNK        -0.1800 
     54 N          -1.8663  -13.7693  -44.6984 N.am      4 UNK        -0.5000 
     55 C          -0.6307  -13.5448  -44.2298 C.2       3 UNK         0.5000 
     56 O          -0.2654  -13.8733  -43.0995 O.2       3 UNK        -0.5000 
     57 CA          0.3616  -12.8343  -45.1817 C.3       3 UNK         0.1400 
     58 CB          1.8166  -12.9394  -44.6897 C.3       3 UNK        -0.1800 
     59 N           0.3147  -13.3150  -46.5649 N.am      3 UNK        -0.5000 
     60 C          -0.6332  -13.0804  -47.4781 C.2       2 UNK         0.5000 
     61 O          -1.6473  -12.4217  -47.2441 O.2       2 UNK        -0.5000 
     62 CA         -0.4053  -13.7016  -48.8727 C.3       2 UNK         0.1400 
     63 CB         -1.5003  -13.3227  -49.8859 C.3       2 UNK        -0.1800 
     64 N           0.8994  -13.3481  -49.4362 N.am      2 UNK        -0.5000 
     65 C           2.0645  -13.9319  -49.1225 C.2       1 UNK         0.5000 
     66 O           2.1766  -14.7938  -48.2511 O.2       1 UNK        -0.5000 
     67 C           0.8110  -24.6800  -46.1138 C.2       11 UNK         0.5000 
     68 O           0.1066  -25.3848  -46.8361 O.2       11 UNK        -0.5000 
     69 N           1.0088  -24.9384  -44.8111 N.am      12 UNK        -0.5000 
     70 CA          0.5608  -26.1193  -44.0637 C.3       12 UNK         0.1400 
     71 CB          1.3293  -27.3725  -44.5329 C.3       12 UNK        -0.1800 
     72 C          -0.9707  -26.3129  -44.0683 C.2       12 UNK         0.5000 
     73 O          -1.4612  -27.4098  -44.3415 O.2       12 UNK        -0.5000 
     74 N          -1.6905  -25.2268  -43.7590 N.am      13 UNK        -0.5000 
     75 CA         -3.1474  -25.1130  -43.6320 C.3       13 UNK         0.1400 
     76 CB         -3.7155  -26.1100  -42.5995 C.3       13 UNK        -0.1800 
     77 C          -3.9067  -25.1374  -44.9745 C.2       13 UNK         0.5000 
     78 O          -5.1290  -25.2894  -44.9745 O.2       13 UNK        -0.5000 
     79 N          -3.1966  -24.9257  -46.0926 N.am      14 UNK        -0.5000 
     80 CA         -3.7835  -24.7623  -47.4288 C.3       14 UNK         0.1400 
     81 CB         -2.7166  -25.0683  -48.4904 C.3       14 UNK        -0.1800 
     82 C          -4.3891  -23.3613  -47.6666 C.2       14 UNK         0.5000 
     83 O          -5.0217  -23.1595  -48.7021 O.2       14 UNK        -0.5000 
     84 N          -4.1792  -22.4384  -46.7142 N.am      15 UNK        -0.5000 
     85 CA         -4.5530  -21.0192  -46.7036 C.3       15 UNK         0.1400 
     86 CB         -6.0505  -20.8109  -47.0093 C.3       15 UNK        -0.1800 
     87 C          -3.6528  -20.1548  -47.6070 C.2       15 UNK         0.5000 
     88 O          -2.9025  -20.6748  -48.4363 O.2       15 UNK        -0.5000 
     89 N          -3.7347  -18.8312  -47.4145 N.am      16 UNK        -0.5000 
     90 CA         -3.0146  -17.8228  -48.1944 C.3       16 UNK         0.1400 
     91 CB         -3.3187  -16.4304  -47.6214 C.3       16 UNK        -0.1800 
     92 C          -3.3877  -17.8955  -49.6868 C.2       16 UNK         0.5000 
     93 O          -4.5719  -18.0165  -50.0061 O.2       16 UNK        -0.5000 
     94 N          -2.3676  -17.8777  -50.5576 N.am      17 UNK        -0.5000 
     95 CA         -2.4494  -18.0832  -52.0124 C.3       17 UNK         0.1400 
     96 CB         -3.1811  -16.9079  -52.6921 C.3       17 UNK        -0.1800 
     97 C          -3.0373  -19.4565  -52.4111 C.2       17 UNK         0.5000 
     98 O          -3.5963  -19.5891  -53.5023 O.2       17 UNK        -0.5000 
     99 N          -2.9155  -20.4487  -51.5120 N.am      18 UNK        -0.5000 
    100 CA        -3.5273  -21.7797  -51.5808 C.3       18 UNK         0.1400 
    101 CB        -2.8583  -22.6281  -52.6800 C.3       18 UNK        -0.1800 
    102 C         -5.0619  -21.6807  -51.7162 C.2       18 UNK         0.5000 
    103 O         -5.6582  -22.3166  -52.5895 O.2       18 UNK        -0.5000 
    104 N         -5.6489  -20.7814  -50.9105 N.am      19 UNK        -0.5000 
    105 CA        -7.0347  -20.2967  -50.8924 C.3       19 UNK         0.1400 
    106 CB        -8.0384  -21.4430  -50.6649 C.3       19 UNK        -0.1800 
    107 C         -7.4030  -19.4575  -52.1314 C.2       19 UNK         0.5000 
    108 O         -7.9830  -18.3805  -51.9895 O.2       19 UNK        -0.5000 
    109 N         -7.0373  -19.9601  -53.3122 N.am      20 UNK        -0.5000 
    110 CA        -7.1716  -19.3292  -54.6211 C.3       20 UNK         0.1400 
    111 CB        -8.6520  -19.2850  -55.0482 C.3       20 UNK        -0.1800 
    112 C         -6.3298  -20.0453  -55.6938 C.2       20 UNK         0.5000 
    113 O         -6.1106  -19.4625  -56.7570 O.2       20 UNK        -0.5000 
    114 N         -5.8823  -21.2866  -55.4346 N.am      21 UNK        -0.5000 
    115 CA        -5.2249  -22.1572  -56.4140 C.3       21 UNK         0.1400 
    116 CB        -5.0838  -23.5680  -55.8224 C.3       21 UNK        -0.1800 
    117 C         -3.8716  -21.6431  -56.9437 C.2       21 UNK         0.5000 
    118 O         -3.4791  -22.0338  -58.0443 O.2       21 UNK        -0.5000 
    119 N         -3.1963  -20.7700  -56.1847 N.am      22 UNK        -0.5000 
    120 CA        -1.9885  -20.0553  -56.6272 C.3       22 UNK         0.1400 
    121 C         -2.2850  -18.8084  -57.5190 C.2       22 UNK         0.5000 
    122 N         -3.5342  -18.4038  -57.7228 N.am      22 UNK        -0.7600 
    123 O         -1.3652  -18.1994  -58.0575 O.2       22 UNK        -0.5000 
    124 C124       -1.0696  -19.7120  -55.4250 C.3       23 UNK        -0.0398 
    125 S125        0.7040  -19.7237  -55.8527 S.3       23 UNK        -0.2404 
    126 C126        1.4244  -20.5904  -54.4184 C.3       23 UNK        -0.0205 
    127 H127        4.4895   -9.2338  -48.9671 H         1 UNK         0.0600 
    128 H128        2.7419   -9.1883  -48.7112 H         1 UNK         0.0600 
    129 H129        3.3908   -9.4790  -50.3275 H         1 UNK         0.0600 
    130 H130        3.2557  -11.6141  -50.9268 H         1 UNK         0.3000 
    131 H131        4.1862  -13.7957  -49.3474 H         1 UNK         0.0600 
    132 H132        4.2879  -13.7749  -51.8197 H         1 UNK         0.0800 
    133 H133        2.5555  -13.7676  -51.9417 H         1 UNK         0.0800 
    134 H134        1.0256  -15.8398  -51.0090 H         1 UNK         0.0800 
    135 H135        1.4474  -15.8421  -52.7013 H         1 UNK         0.0800 
    136 H136        1.9111  -17.9459  -53.8847 H         1 UNK         0.1150 
    137 H137        0.5538  -21.5627  -52.0244 H         1 UNK         0.1150 
    138 H138        0.8908  -17.9609  -49.7227 H         1 UNK         0.1150 
    139 H139       -0.2840  -19.9235  -48.8014 H         1 UNK         0.0800 
    140 H140       -0.5825  -21.3193  -49.8135 H         1 UNK         0.0800 
    141 H141       -0.1926  -22.1759  -47.1835 H         1 UNK         0.0800 
    142 H142        0.1480  -23.3610  -48.4275 H         1 UNK         0.0800 
    143 H143        2.3411  -23.8766  -47.3254 H         1 UNK         0.0600 
    144 H144        1.5457  -21.7632  -45.4610 H         1 UNK         0.3000 
    145 H145        4.5031  -22.1364  -43.4859 H         1 UNK         0.0600 
    146 H146        4.5937  -19.7023  -43.9364 H         1 UNK         0.0600 
    147 H147        3.4821  -19.8823  -45.2931 H         1 UNK         0.0600 
    148 H148        5.0881  -20.5962  -45.3659 H         1 UNK         0.0600 
    149 H149        2.3093  -20.4048  -43.1347 H         1 UNK         0.3000 
    150 H150        0.2488  -22.6312  -41.1815 H         1 UNK         0.0600 
    151 H151        1.8185  -20.0588  -40.6235 H         1 UNK         0.0600 
    152 H152        0.4689  -20.6837  -39.6797 H         1 UNK         0.0600 
    153 H153        1.9873  -21.5662  -39.7313 H         1 UNK         0.0600 
    154 H154       -0.2269  -19.9699  -42.0389 H         1 UNK         0.3000 
    155 H155       -1.9650  -20.7963  -45.0819 H         1 UNK         0.0600 
    156 H156       -3.6245  -20.9011  -43.2610 H         1 UNK         0.0600 
    157 H157       -3.5730  -19.2553  -43.8835 H         1 UNK         0.0600 
    158 H158       -2.7870  -19.6509  -42.3592 H         1 UNK         0.0600 
    159 H159       -1.3313  -18.2625  -44.0274 H         1 UNK         0.3000 
    160 H160        1.9444  -17.9208  -45.4528 H         1 UNK         0.0600 
    161 H161       -0.7417  -16.5585  -46.0099 H         1 UNK         0.0600 
    162 H162        0.3021  -17.3037  -47.2205 H         1 UNK         0.0600 
    163 H163        0.8624  -15.9053  -46.3235 H         1 UNK         0.0600 
    164 H164        0.2594  -16.2785  -43.7635 H         1 UNK         0.3000 
    165 H165        1.6078  -17.3928  -40.6675 H         1 UNK         0.0600 
    166 H166        2.0515  -14.9469  -40.4506 H         1 UNK         0.0600 
    167 H167        3.2732  -15.7419  -41.4318 H         1 UNK         0.0600 
    168 H168        2.0267  -14.7760  -42.2046 H         1 UNK         0.0600 
    169 H169       -0.3273  -15.4006  -41.5270 H         1 UNK         0.3000 
    170 H170       -3.1467  -17.5648  -41.3056 H         1 UNK         0.0600 
    171 H171       -2.6847  -17.1808  -38.8796 H         1 UNK         0.0600 
    172 H172       -2.2563  -15.5078  -39.2172 H         1 UNK         0.0600 
    173 H173       -3.9060  -16.0735  -39.4847 H         1 UNK         0.0600 
    174 H174       -3.0374  -14.7508  -41.4510 H         1 UNK         0.3000 
    175 H175       -3.7531  -14.5976  -44.7381 H         1 UNK         0.0600 
    176 H176       -2.9436  -12.8798  -42.3256 H         1 UNK         0.0600 
    177 H177       -3.9423  -12.3755  -43.6807 H         1 UNK         0.0600 
    178 H178       -4.5360  -13.6008  -42.5790 H         1 UNK         0.0600 
    179 H179       -2.0538  -13.4410  -45.6405 H         1 UNK         0.3000 
    180 H180        0.0874  -11.7776  -45.1834 H         1 UNK         0.0600 
    181 H181        1.9282  -12.5215  -43.6885 H         1 UNK         0.0600 
    182 H182        2.4941  -12.3898  -45.3435 H         1 UNK         0.0600 
    183 H183        2.1532  -13.9765  -44.6558 H         1 UNK         0.0600 
    184 H184        1.1065  -13.8736  -46.8683 H         1 UNK         0.3000 
    185 H185       -0.4445  -14.7852  -48.7428 H         1 UNK         0.0600 
    186 H186       -2.4896  -13.6050  -49.5238 H         1 UNK         0.0600 
    187 H187       -1.5155  -12.2493  -50.0786 H         1 UNK         0.0600 
    188 H188       -1.3495  -13.8329  -50.8376 H         1 UNK         0.0600 
    189 H189        0.9038  -12.6022  -50.1166 H         1 UNK         0.3000 
    190 H190        1.5634  -24.2798  -44.2777 H         1 UNK         0.3000 
    191 H191        0.8371  -25.9398  -43.0236 H         1 UNK         0.0600 
    192 H192        1.0922  -28.2338  -43.9073 H         1 UNK         0.0600 
    193 H193        2.4067  -27.2178  -44.4750 H         1 UNK         0.0600 
    194 H194        1.0834  -27.6376  -45.5617 H         1 UNK         0.0600 
    195 H195       -1.1921  -24.3463  -43.6326 H         1 UNK         0.3000 
    196 H196       -3.3164  -24.1137  -43.2284 H         1 UNK         0.0600 
    197 H197       -3.6850  -27.1369  -42.9639 H         1 UNK         0.0600 
    198 H198       -3.1606  -26.0677  -41.6624 H         1 UNK         0.0600 
    199 H199       -4.7563  -25.8811  -42.3680 H         1 UNK         0.0600 
    200 H200       -2.1899  -24.8587  -46.0240 H         1 UNK         0.3000 
    201 H201       -4.5901  -25.4889  -47.5463 H         1 UNK         0.0600 
    202 H202       -3.1471  -25.0595  -49.4926 H         1 UNK         0.0600 
    203 H203       -2.2720  -26.0516  -48.3359 H         1 UNK         0.0600 
    204 H204       -1.9175  -24.3292  -48.4740 H         1 UNK         0.0600 
    205 H205       -3.6217  -22.7389  -45.9297 H         1 UNK         0.3000 
    206 H206       -4.3878  -20.6847  -45.6812 H         1 UNK         0.0600 
    207 H207       -6.6731  -21.4594  -46.3928 H         1 UNK         0.0600 
    208 H208       -6.3551  -19.7839  -46.8064 H         1 UNK         0.0600 
    209 H209       -6.2867  -21.0138  -48.0526 H         1 UNK         0.0600 
    210 H210       -4.3879  -18.4758  -46.7324 H         1 UNK         0.3000 
    211 H211       -1.9470  -18.0200  -48.0812 H         1 UNK         0.0600 
    212 H212       -4.3752  -16.1774  -47.7197 H         1 UNK         0.0600 
    213 H213       -2.7482  -15.6610  -48.1406 H         1 UNK         0.0600 
    214 H214       -3.0595  -16.3708  -46.5648 H         1 UNK         0.0600 
    215 H215       -1.4296  -17.7835  -50.1976 H         1 UNK         0.3000 
    216 H216       -1.4243  -18.0835  -52.3825 H         1 UNK         0.0600 
    217 H217       -2.7475  -15.9514  -52.4001 H         1 UNK         0.0600 
    218 H218       -4.2412  -16.8893  -52.4372 H         1 UNK         0.0600 
    219 H219       -3.1092  -16.9773  -53.7782 H         1 UNK         0.0600 
    220 H220       -2.4847  -20.2309  -50.6229 H         1 UNK         0.3000 
    221 H221       -3.3308  -22.2670  -50.6254 H         1 UNK         0.0600 
    222 H222       -3.2619  -23.6410  -52.6902 H         1 UNK         0.0600 
    223 H223       -3.0088  -22.2018  -53.6708 H         1 UNK         0.0600 
    224 H224       -1.7843  -22.7084  -52.5129 H         1 UNK         0.0600 
    225 H225       -5.0300  -20.2527  -50.3097 H         1 UNK         0.3000 
    226 H226       -7.0978  -19.6288  -50.0319 H         1 UNK         0.0600 
    227 H227       -7.7836  -22.0201  -49.7759 H         1 UNK         0.0600 
    228 H228       -9.0461  -21.0514  -50.5226 H         1 UNK         0.0600 
    229 H229       -8.0746  -22.1308  -51.5099 H         1 UNK         0.0600 
    230 H230       -6.5329  -20.8392  -53.2756 H         1 UNK         0.3000 
    231 H231       -6.7916  -18.3084  -54.5466 H         1 UNK         0.0600 
    232 H232       -8.7612  -18.8488  -56.0420 H         1 UNK         0.0600 
    233 H233       -9.2498  -18.6791  -54.3677 H         1 UNK         0.0600 
    234 H234       -9.0879  -20.2842  -55.0780 H         1 UNK         0.0600 
    235 H235       -6.0485  -21.7114  -54.5320 H         1 UNK         0.3000 
    236 H236       -5.8905  -22.2271  -57.2769 H         1 UNK         0.0600 
    237 H237       -6.0557  -23.9810  -55.5520 H         1 UNK         0.0600 
    238 H238       -4.6303  -24.2515  -56.5415 H         1 UNK         0.0600 
    239 H239       -4.4606  -23.5720  -54.9294 H         1 UNK         0.0600 
    240 H240       -3.5856  -20.4751  -55.2938 H         1 UNK         0.3000 
    241 H241       -1.4341  -20.7433  -57.2683 H         1 UNK         0.0600 
    242 H242       -4.3265  -18.8907  -57.3154 H         1 UNK         0.3800 
    243 H243       -3.6990  -17.6018  -58.3098 H         1 UNK         0.3800 
    244 H244       -1.3274  -18.7462  -54.9876 H         1 UNK         0.0800 
    245 H245       -1.2166  -20.4462  -54.6320 H         1 UNK         0.0800 
    246 H246        2.4915  -20.7302  -54.5950 H         1 UNK         0.0800 
    247 H247        0.9897  -21.5893  -54.3561 H         1 UNK         0.0800 
@<TRIPOS>BOND
     1    1    2 1    
     2    1  127 1    
     3    1  128 1    
     4    1  129 1    
     5    2    3 2    
     6    2    4 am   BACKBONE|DICT|INTERRES
     7    4    5 1    
     8    4  130 1    
     9    5    6 1    
    10    5   65 1    
    11    5  131 1    
    12    6    7 1    
    13    6  132 1    
    14    6  133 1    
    15    7    8 1    
    16    8    9 1    
    17    8  134 1    
    18    8  135 1    
    19    9   10 ar   
    20    9   14 ar   
    21   10   11 ar   
    22   10  136 1    
    23   11   12 ar   
    24   11  126 1    
    25   12   13 ar   
    26   12  137 1    
    27   13   14 ar   
    28   13   15 1    
    29   14  138 1    
    30   15   16 1    
    31   15  139 1    
    32   15  140 1    
    33   16   17 1    
    34   17   18 1    
    35   17  141 1    
    36   17  142 1    
    37   18   19 1    
    38   18   67 1    
    39   18  143 1    
    40   19   20 am   BACKBONE|DICT|INTERRES
    41   19  144 1    
    42   20   21 2    
    43   20   22 1    
    44   22   23 1    
    45   22   24 1    
    46   22  145 1    
    47   23  146 1    
    48   23  147 1    
    49   23  148 1    
    50   24   25 am   BACKBONE|DICT|INTERRES
    51   24  149 1    
    52   25   26 2    
    53   25   27 1    
    54   27   28 1    
    55   27   29 1    
    56   27  150 1    
    57   28  151 1    
    58   28  152 1    
    59   28  153 1    
    60   29   30 am   BACKBONE|DICT|INTERRES
    61   29  154 1    
    62   30   31 2    
    63   30   32 1    
    64   32   33 1    
    65   32   34 1    
    66   32  155 1    
    67   33  156 1    
    68   33  157 1    
    69   33  158 1    
    70   34   35 am   BACKBONE|DICT|INTERRES
    71   34  159 1    
    72   35   36 2    
    73   35   37 1    
    74   37   38 1    
    75   37   39 1    
    76   37  160 1    
    77   38  161 1    
    78   38  162 1    
    79   38  163 1    
    80   39   40 am   BACKBONE|DICT|INTERRES
    81   39  164 1    
    82   40   41 2    
    83   40   42 1    
    84   42   43 1    
    85   42   44 1    
    86   42  165 1    
    87   43  166 1    
    88   43  167 1    
    89   43  168 1    
    90   44   45 am   BACKBONE|DICT|INTERRES
    91   44  169 1    
    92   45   46 2    
    93   45   47 1    
    94   47   48 1    
    95   47   49 1    
    96   47  170 1    
    97   48  171 1    
    98   48  172 1    
    99   48  173 1    
   100   49   50 am   BACKBONE|DICT|INTERRES
   101   49  174 1    
   102   50   51 2    
   103   50   52 1    
   104   52   53 1    
   105   52   54 1    
   106   52  175 1    
   107   53  176 1    
   108   53  177 1    
   109   53  178 1    
   110   54   55 am   BACKBONE|DICT|INTERRES
   111   54  179 1    
   112   55   56 2    
   113   55   57 1    
   114   57   58 1    
   115   57   59 1    
   116   57  180 1    
   117   58  181 1    
   118   58  182 1    
   119   58  183 1    
   120   59   60 am   BACKBONE|DICT|INTERRES
   121   59  184 1    
   122   60   61 2    
   123   60   62 1    
   124   62   63 1    
   125   62   64 1    
   126   62  185 1    
   127   63  186 1    
   128   63  187 1    
   129   63  188 1    
   130   64   65 am   BACKBONE|DICT|INTERRES
   131   64  189 1    
   132   65   66 2    
   133   67   68 2    
   134   67   69 am   BACKBONE|DICT|INTERRES
   135   69   70 1    
   136   69  190 1    
   137   70   71 1    
   138   70   72 1    
   139   70  191 1    
   140   71  192 1    
   141   71  193 1    
   142   71  194 1    
   143   72   73 2    
   144   72   74 am   BACKBONE|DICT|INTERRES
   145   74   75 1    
   146   74  195 1    
   147   75   76 1    
   148   75   77 1    
   149   75  196 1    
   150   76  197 1    
   151   76  198 1    
   152   76  199 1    
   153   77   78 2    
   154   77   79 am   BACKBONE|DICT|INTERRES
   155   79   80 1    
   156   79  200 1    
   157   80   81 1    
   158   80   82 1    
   159   80  201 1    
   160   81  202 1    
   161   81  203 1    
   162   81  204 1    
   163   82   83 2    
   164   82   84 am   BACKBONE|DICT|INTERRES
   165   84   85 1    
   166   84  205 1    
   167   85   86 1    
   168   85   87 1    
   169   85  206 1    
   170   86  207 1    
   171   86  208 1    
   172   86  209 1    
   173   87   88 2    
   174   87   89 am   BACKBONE|DICT|INTERRES
   175   89   90 1    
   176   89  210 1    
   177   90   91 1    
   178   90   92 1    
   179   90  211 1    
   180   91  212 1    
   181   91  213 1    
   182   91  214 1    
   183   92   93 2    
   184   92   94 am   BACKBONE|DICT|INTERRES
   185   94   95 1    
   186   94  215 1    
   187   95   96 1    
   188   95   97 1    
   189   95  216 1    
   190   96  217 1    
   191   96  218 1    
   192   96  219 1    
   193   97   98 2    
   194   97   99 am   BACKBONE|DICT|INTERRES
   195   99  100 1    
   196   99  220 1    
   197  100  101 1    
   198  100  102 1    
   199  100  221 1    
   200  101  222 1    
   201  101  223 1    
   202  101  224 1    
   203  102  103 2    
   204  102  104 am   BACKBONE|DICT|INTERRES
   205  104  105 1    
   206  104  225 1    
   207  105  106 1    
   208  105  107 1    
   209  105  226 1    
   210  106  227 1    
   211  106  228 1    
   212  106  229 1    
   213  107  108 2    
   214  107  109 am   BACKBONE|DICT|INTERRES
   215  109  110 1    
   216  109  230 1    
   217  110  111 1    
   218  110  112 1    
   219  110  231 1    
   220  111  232 1    
   221  111  233 1    
   222  111  234 1    
   223  112  113 2    
   224  112  114 am   BACKBONE|DICT|INTERRES
   225  114  115 1    
   226  114  235 1    
   227  115  116 1    
   228  115  117 1    
   229  115  236 1    
   230  116  237 1    
   231  116  238 1    
   232  116  239 1    
   233  117  118 2    
   234  117  119 am   BACKBONE|DICT|INTERRES
   235  119  120 1    
   236  119  240 1    
   237  120  121 1    
   238  120  124 1    
   239  120  241 1    
   240  121  122 am   BACKBONE|DICT|INTERRES
   241  121  123 2    
   242  122  242 1    
   243  122  243 1    
   244  124  125 1    
   245  124  244 1    
   246  124  245 1    
   247  125  126 1    
   248  126  246 1    
   249  126  247 1    
@<TRIPOS>SUBSTRUCTURE
     1 UNK         1 GROUP             0       ****    0 ROOT    
