@<TRIPOS>MOLECULE
3R540
247   249    1
SMALL
USER_CHARGES


@<TRIPOS>ATOM
      1 CA          3.9563  -13.7342  -48.4175 C.3       0 UNK        -0.1800 
      2 C           3.5793  -15.0321  -47.7053 C.2       0 UNK         0.5000 
      3 O           4.3675  -15.9749  -47.7272 O.2       0 UNK        -0.5000 
      4 N           2.4006  -15.1537  -47.0783 N.am      1 UNK        -0.5000 
      5 CA          1.3463  -14.1503  -46.8817 C.3       1 UNK         0.1400 
      6 C6          0.7535  -13.5913  -48.2095 C.3       23 UNK        -0.0398 
      7 S7         -1.0261  -13.1707  -48.1248 S.3       23 UNK        -0.2404 
      8 C8         -1.8569  -14.7784  -47.8867 C.3       23 UNK        -0.0205 
      9 C9         -1.7205  -15.7092  -49.0807 C.ar      23 UNK        -0.0193 
     10 C10        -2.7244  -15.7549  -50.0499 C.ar      23 UNK        -0.1150 
     11 C11        -2.6304  -16.6358  -51.1305 C.ar      23 UNK        -0.0193 
     12 C12        -1.5064  -17.4599  -51.2523 C.ar      23 UNK        -0.1150 
     13 C13        -0.4902  -17.4163  -50.2914 C.ar      23 UNK        -0.0193 
     14 C14        -0.6120  -16.5515  -49.2007 C.ar      23 UNK        -0.1150 
     15 C15         0.7525  -18.2820  -50.4400 C.3       23 UNK        -0.0205 
     16 S16         0.4612  -20.0085  -49.9523 S.3       23 UNK        -0.2404 
     17 C17         0.2381  -19.8640  -48.1474 C.3       23 UNK        -0.0398 
     18 CA         -0.2602  -21.1872  -47.5215 C.3       11 UNK         0.1400 
     19 N           0.0385  -21.2725  -46.0903 N.am      11 UNK        -0.5000 
     20 C          -0.0798  -22.3925  -45.3626 C.2       10 UNK         0.5000 
     21 O          -0.4388  -23.4732  -45.8275 O.2       10 UNK        -0.5000 
     22 CA          0.2095  -22.2830  -43.8562 C.3       10 UNK         0.1400 
     23 CB          1.7219  -22.2537  -43.5918 C.3       10 UNK        -0.1800 
     24 N          -0.4285  -21.1193  -43.2409 N.am      10 UNK        -0.5000 
     25 C          -1.7544  -20.9241  -43.1869 C.2       9 UNK         0.5000 
     26 O          -2.5834  -21.7186  -43.6304 O.2       9 UNK        -0.5000 
     27 CA         -2.2380  -19.5988  -42.5747 C.3       9 UNK         0.1400 
     28 CB         -2.1869  -19.6551  -41.0407 C.3       9 UNK        -0.1800 
     29 N          -1.4771  -18.4443  -43.0505 N.am      9 UNK        -0.5000 
     30 C          -1.4091  -18.0479  -44.3296 C.2       8 UNK         0.5000 
     31 O          -1.9951  -18.6041  -45.2584 O.2       8 UNK        -0.5000 
     32 CA         -0.4786  -16.8609  -44.6289 C.3       8 UNK         0.1400 
     33 CB         -1.0935  -15.5413  -44.1311 C.3       8 UNK        -0.1800 
     34 N           0.8525  -17.0398  -44.0501 N.am      8 UNK        -0.5000 
     35 C           1.6793  -18.0559  -44.3383 C.2       7 UNK         0.5000 
     36 O           1.4430  -18.9123  -45.1893 O.2       7 UNK        -0.5000 
     37 CA          2.9645  -18.1566  -43.5030 C.3       7 UNK         0.1400 
     38 CB          4.0618  -17.2509  -44.0820 C.3       7 UNK        -0.1800 
     39 N           2.7226  -17.8212  -42.0990 N.am      7 UNK        -0.5000 
     40 C           2.0230  -18.5897  -41.2508 C.2       6 UNK         0.5000 
     41 O           1.5388  -19.6791  -41.5566 O.2       6 UNK        -0.5000 
     42 CA          1.7878  -18.0264  -39.8371 C.3       6 UNK         0.1400 
     43 CB          3.0151  -18.2664  -38.9454 C.3       6 UNK        -0.1800 
     44 N           1.4663  -16.5989  -39.8491 N.am      6 UNK        -0.5000 
     45 C           0.3480  -16.0811  -40.3763 C.2       5 UNK         0.5000 
     46 O          -0.5574  -16.7625  -40.8560 O.2       5 UNK        -0.5000 
     47 CA          0.2445  -14.5437  -40.4209 C.3       5 UNK         0.1400 
     48 CB         -0.4151  -14.0111  -39.1407 C.3       5 UNK        -0.1800 
     49 N           1.5280  -13.8633  -40.6221 N.am      5 UNK        -0.5000 
     50 C           2.3496  -14.0511  -41.6627 C.2       4 UNK         0.5000 
     51 O           2.1159  -14.8481  -42.5723 O.2       4 UNK        -0.5000 
     52 CA          3.6334  -13.1987  -41.6802 C.3       4 UNK         0.1400 
     53 CB          4.7864  -13.8898  -42.4283 C.3       4 UNK        -0.1800 
     54 N           3.3830  -11.8884  -42.2799 N.am      4 UNK        -0.5000 
     55 C           2.7376  -10.8839  -41.6711 C.2       3 UNK         0.5000 
     56 O           2.3325  -10.9527  -40.5098 O.2       3 UNK        -0.5000 
     57 CA          2.4874   -9.5869  -42.4706 C.3       3 UNK         0.1400 
     58 CB          3.1713   -8.3948  -41.7811 C.3       3 UNK        -0.1800 
     59 N           2.9396   -9.6256  -43.8666 N.am      3 UNK        -0.5000 
     60 C           2.3233  -10.1627  -44.9299 C.2       2 UNK         0.5000 
     61 O           2.7857  -10.0286  -46.0638 O.2       2 UNK        -0.5000 
     62 CA          0.9982  -10.9440  -44.7494 C.3       2 UNK         0.1400 
     63 CB         -0.2071  -10.0083  -44.9327 C.3       2 UNK        -0.1800 
     64 N           0.8610  -12.0618  -45.6858 N.am      2 UNK        -0.5000 
     65 C           1.7313  -13.0677  -45.8467 C.2       1 UNK         0.5000 
     66 O           2.7753  -13.1725  -45.2011 O.2       1 UNK        -0.5000 
     67 C          -1.7541  -21.4390  -47.8141 C.2       11 UNK         0.5000 
     68 O          -2.0680  -22.1811  -48.7457 O.2       11 UNK        -0.5000 
     69 N          -2.6456  -20.8658  -46.9919 N.am      12 UNK        -0.5000 
     70 CA         -4.0920  -21.0739  -47.0695 C.3       12 UNK         0.1400 
     71 CB         -4.8079  -20.1296  -46.0927 C.3       12 UNK        -0.1800 
     72 C          -4.4915  -22.5394  -46.8176 C.2       12 UNK         0.5000 
     73 O          -5.2637  -23.0974  -47.5982 O.2       12 UNK        -0.5000 
     74 N          -3.9157  -23.1545  -45.7737 N.am      13 UNK        -0.5000 
     75 CA         -4.0935  -24.5703  -45.4356 C.3       13 UNK         0.1400 
     76 CB         -3.4188  -24.8634  -44.0874 C.3       13 UNK        -0.1800 
     77 C          -3.5648  -25.5241  -46.5246 C.2       13 UNK         0.5000 
     78 O          -4.1583  -26.5786  -46.7516 O.2       13 UNK        -0.5000 
     79 N          -2.4867  -25.1156  -47.2054 N.am      14 UNK        -0.5000 
     80 CA         -1.8908  -25.8058  -48.3485 C.3       14 UNK         0.1400 
     81 CB         -0.4062  -25.4147  -48.4447 C.3       14 UNK        -0.1800 
     82 C          -2.6166  -25.5378  -49.6843 C.2       14 UNK         0.5000 
     83 O          -2.1172  -25.9767  -50.7192 O.2       14 UNK        -0.5000 
     84 N          -3.7501  -24.8187  -49.6658 N.am      15 UNK        -0.5000 
     85 CA         -4.5813  -24.4537  -50.8189 C.3       15 UNK         0.1400 
     86 CB         -5.2191  -25.7041  -51.4602 C.3       15 UNK        -0.1800 
     87 C          -3.8242  -23.5766  -51.8353 C.2       15 UNK         0.5000 
     88 O          -3.8258  -23.8642  -53.0342 O.2       15 UNK        -0.5000 
     89 N          -3.1828  -22.5187  -51.3209 N.am      16 UNK        -0.5000 
     90 CA         -2.3300  -21.5658  -52.0375 C.3       16 UNK         0.1400 
     91 CB         -3.1334  -20.7677  -53.0840 C.3       16 UNK        -0.1800 
     92 C          -1.0664  -22.2423  -52.6052 C.2       16 UNK         0.5000 
     93 O          -0.6525  -21.9434  -53.7255 O.2       16 UNK        -0.5000 
     94 N          -0.4962  -23.1561  -51.8042 N.am      17 UNK        -0.5000 
     95 CA          0.6400  -24.0275  -52.1157 C.3       17 UNK         0.1400 
     96 CB          1.9316  -23.2052  -52.3078 C.3       17 UNK        -0.1800 
     97 C           0.3274  -24.9756  -53.2926 C.2       17 UNK         0.5000 
     98 O           1.0568  -25.0009  -54.2859 O.2       17 UNK        -0.5000 
     99 N          -0.7672  -25.7350  -53.1380 N.am      18 UNK        -0.5000 
    100 CA        -1.3289  -26.7127  -54.0724 C.3       18 UNK         0.1400 
    101 CB        -0.3927  -27.9317  -54.2101 C.3       18 UNK        -0.1800 
    102 C         -1.7167  -26.0834  -55.4249 C.2       18 UNK         0.5000 
    103 O         -1.2942  -26.5650  -56.4788 O.2       18 UNK        -0.5000 
    104 N         -2.5089  -25.0079  -55.3633 N.am      19 UNK        -0.5000 
    105 CA        -3.0029  -24.2642  -56.5167 C.3       19 UNK         0.1400 
    106 CB        -2.2398  -22.9286  -56.6221 C.3       19 UNK        -0.1800 
    107 C         -4.5322  -24.1129  -56.4166 C.2       19 UNK         0.5000 
    108 O         -5.2143  -25.0427  -55.9810 O.2       19 UNK        -0.5000 
    109 N         -5.0545  -22.9582  -56.8458 N.am      20 UNK        -0.5000 
    110 CA        -6.4834  -22.6593  -56.9676 C.3       20 UNK         0.1400 
    111 CB        -6.6619  -21.6426  -58.1097 C.3       20 UNK        -0.1800 
    112 C         -7.1372  -22.1533  -55.6635 C.2       20 UNK         0.5000 
    113 O         -8.2334  -21.5936  -55.7273 O.2       20 UNK        -0.5000 
    114 N         -6.4586  -22.3068  -54.5141 N.am      21 UNK        -0.5000 
    115 CA        -6.8934  -21.8733  -53.1766 C.3       21 UNK         0.1400 
    116 CB        -8.0487  -22.7604  -52.6702 C.3       21 UNK        -0.1800 
    117 C         -7.2076  -20.3633  -53.0981 C.2       21 UNK         0.5000 
    118 O         -8.1587  -19.9564  -52.4290 O.2       21 UNK        -0.5000 
    119 N         -6.3987  -19.5739  -53.8168 N.am      22 UNK        -0.5000 
    120 CA        -6.5129  -18.1176  -54.0022 C.3       22 UNK         0.1400 
    121 C         -7.6922  -17.6736  -54.9229 C.2       22 UNK         0.5000 
    122 N         -8.4040  -18.5748  -55.5913 N.am      22 UNK        -0.7600 
    123 O         -7.9496  -16.4811  -55.0641 O.2       22 UNK        -0.5000 
    124 C124       -6.4669  -17.3002  -52.6779 C.3       23 UNK        -0.0398 
    125 S125       -5.1015  -17.7606  -51.5546 S.3       23 UNK        -0.2404 
    126 C126       -3.7559  -16.6927  -52.1503 C.3       23 UNK        -0.0205 
    127 H127        5.0269  -13.7147  -48.6218 H         1 UNK         0.0600 
    128 H128        3.7272  -12.8538  -47.8194 H         1 UNK         0.0600 
    129 H129        3.4360  -13.6592  -49.3719 H         1 UNK         0.0600 
    130 H130        2.2328  -16.0235  -46.5960 H         1 UNK         0.3000 
    131 H131        0.5668  -14.7213  -46.3876 H         1 UNK         0.0600 
    132 H132        1.2929  -12.6982  -48.5288 H         1 UNK         0.0800 
    133 H133        0.8865  -14.3034  -49.0232 H         1 UNK         0.0800 
    134 H134       -2.9137  -14.5867  -47.6943 H         1 UNK         0.0800 
    135 H135       -1.4897  -15.2712  -46.9915 H         1 UNK         0.0800 
    136 H136       -3.5920  -15.1170  -49.9547 H         1 UNK         0.1150 
    137 H137       -1.4228  -18.1376  -52.0901 H         1 UNK         0.1150 
    138 H138        0.1634  -16.5287  -48.4488 H         1 UNK         0.1150 
    139 H139        1.0792  -18.2638  -51.4806 H         1 UNK         0.0800 
    140 H140        1.5801  -17.8758  -49.8559 H         1 UNK         0.0800 
    141 H141       -0.4354  -19.0406  -47.9057 H         1 UNK         0.0800 
    142 H142        1.2100  -19.5956  -47.7320 H         1 UNK         0.0800 
    143 H143        0.2962  -22.0020  -47.9902 H         1 UNK         0.0600 
    144 H144        0.3696  -20.4219  -45.6420 H         1 UNK         0.3000 
    145 H145       -0.1991  -23.1749  -43.3766 H         1 UNK         0.0600 
    146 H146        1.9351  -22.2713  -42.5229 H         1 UNK         0.0600 
    147 H147        2.2130  -23.1209  -44.0351 H         1 UNK         0.0600 
    148 H148        2.1874  -21.3620  -44.0115 H         1 UNK         0.0600 
    149 H149        0.1889  -20.4356  -42.8140 H         1 UNK         0.3000 
    150 H150       -3.2779  -19.4557  -42.8749 H         1 UNK         0.0600 
    151 H151       -2.7540  -20.5059  -40.6611 H         1 UNK         0.0600 
    152 H152       -2.6158  -18.7551  -40.5999 H         1 UNK         0.0600 
    153 H153       -1.1640  -19.7504  -40.6747 H         1 UNK         0.0600 
    154 H154       -0.9847  -17.9060  -42.3426 H         1 UNK         0.3000 
    155 H155       -0.3540  -16.8082  -45.7111 H         1 UNK         0.0600 
    156 H156       -1.3346  -15.5824  -43.0703 H         1 UNK         0.0600 
    157 H157       -2.0221  -15.3207  -44.6581 H         1 UNK         0.0600 
    158 H158       -0.4210  -14.6972  -44.2788 H         1 UNK         0.0600 
    159 H159        1.1596  -16.3504  -43.3695 H         1 UNK         0.3000 
    160 H160        3.3186  -19.1883  -43.5499 H         1 UNK         0.0600 
    161 H161        3.7452  -16.2094  -44.1344 H         1 UNK         0.0600 
    162 H162        4.3216  -17.5586  -45.0957 H         1 UNK         0.0600 
    163 H163        4.9722  -17.2975  -43.4846 H         1 UNK         0.0600 
    164 H164        3.0176  -16.9043  -41.7970 H         1 UNK         0.3000 
    165 H165        0.9405  -18.5615  -39.4027 H         1 UNK         0.0600 
    166 H166        2.8281  -17.9409  -37.9219 H         1 UNK         0.0600 
    167 H167        3.2672  -19.3270  -38.9070 H         1 UNK         0.0600 
    168 H168        3.8929  -17.7332  -39.3126 H         1 UNK         0.0600 
    169 H169        2.1577  -15.9679  -39.4721 H         1 UNK         0.3000 
    170 H170       -0.3958  -14.2834  -41.2654 H         1 UNK         0.0600 
    171 H171       -1.3863  -14.4802  -38.9771 H         1 UNK         0.0600 
    172 H172        0.1978  -14.2079  -38.2602 H         1 UNK         0.0600 
    173 H173       -0.5812  -12.9353  -39.2010 H         1 UNK         0.0600 
    174 H174        1.7646  -13.1387  -39.9565 H         1 UNK         0.3000 
    175 H175        3.9580  -13.0587  -40.6468 H         1 UNK         0.0600 
    176 H176        4.5694  -14.0135  -43.4889 H         1 UNK         0.0600 
    177 H177        5.7087  -13.3152  -42.3437 H         1 UNK         0.0600 
    178 H178        4.9820  -14.8803  -42.0159 H         1 UNK         0.0600 
    179 H179        3.6466  -11.7867  -43.2505 H         1 UNK         0.3000 
    180 H180        1.4126   -9.4013  -42.4503 H         1 UNK         0.0600 
    181 H181        4.2552   -8.5133  -41.7543 H         1 UNK         0.0600 
    182 H182        2.8282   -8.2832  -40.7515 H         1 UNK         0.0600 
    183 H183        2.9482   -7.4599  -42.2956 H         1 UNK         0.0600 
    184 H184        3.8113   -9.1456  -44.0359 H         1 UNK         0.3000 
    185 H185        0.9499  -11.3795  -43.7525 H         1 UNK         0.0600 
    186 H186       -0.1644   -9.1646  -44.2433 H         1 UNK         0.0600 
    187 H187       -0.2465   -9.6006  -45.9437 H         1 UNK         0.0600 
    188 H188       -1.1454  -10.5310  -44.7455 H         1 UNK         0.0600 
    189 H189        0.0414  -12.0441  -46.2777 H         1 UNK         0.3000 
    190 H190       -2.3172  -20.2372  -46.2635 H         1 UNK         0.3000 
    191 H191       -4.4089  -20.8140  -48.0817 H         1 UNK         0.0600 
    192 H192       -4.5968  -19.0866  -46.3295 H         1 UNK         0.0600 
    193 H193       -5.8893  -20.2622  -46.1419 H         1 UNK         0.0600 
    194 H194       -4.5006  -20.3060  -45.0617 H         1 UNK         0.0600 
    195 H195       -3.3129  -22.6158  -45.1563 H         1 UNK         0.3000 
    196 H196       -5.1643  -24.7541  -45.3281 H         1 UNK         0.0600 
    197 H197       -3.5482  -25.9084  -43.8030 H         1 UNK         0.0600 
    198 H198       -3.8479  -24.2542  -43.2917 H         1 UNK         0.0600 
    199 H199       -2.3477  -24.6613  -44.1221 H         1 UNK         0.0600 
    200 H200       -2.0242  -24.2628  -46.9089 H         1 UNK         0.3000 
    201 H201       -1.9412  -26.8818  -48.1707 H         1 UNK         0.0600 
    202 H202        0.1177  -25.6272  -47.5127 H         1 UNK         0.0600 
    203 H203       -0.2831  -24.3538  -48.6629 H         1 UNK         0.0600 
    204 H204        0.1004  -25.9760  -49.2304 H         1 UNK         0.0600 
    205 H205       -4.0675  -24.4557  -48.7748 H         1 UNK         0.3000 
    206 H206       -5.3923  -23.8370  -50.4288 H         1 UNK         0.0600 
    207 H207       -5.7748  -26.2842  -50.7237 H         1 UNK         0.0600 
    208 H208       -5.9187  -25.4239  -52.2484 H         1 UNK         0.0600 
    209 H209       -4.4726  -26.3591  -51.9101 H         1 UNK         0.0600 
    210 H210       -3.1528  -22.4240  -50.3088 H         1 UNK         0.3000 
    211 H211       -1.9849  -20.8511  -51.2907 H         1 UNK         0.0600 
    212 H212       -3.5154  -21.4012  -53.8828 H         1 UNK         0.0600 
    213 H213       -2.5186  -19.9933  -53.5436 H         1 UNK         0.0600 
    214 H214       -3.9795  -20.2709  -52.6142 H         1 UNK         0.0600 
    215 H215       -0.9377  -23.3152  -50.9096 H         1 UNK         0.3000 
    216 H216        0.7887  -24.6627  -51.2419 H         1 UNK         0.0600 
    217 H217        2.7949  -23.8609  -52.4261 H         1 UNK         0.0600 
    218 H218        2.1232  -22.5672  -51.4450 H         1 UNK         0.0600 
    219 H219        1.8838  -22.5678  -53.1909 H         1 UNK         0.0600 
    220 H220       -1.2843  -25.6536  -52.2632 H         1 UNK         0.3000 
    221 H221       -2.2584  -27.0633  -53.6211 H         1 UNK         0.0600 
    222 H222        0.5557  -27.6659  -54.6779 H         1 UNK         0.0600 
    223 H223       -0.1749  -28.3716  -53.2369 H         1 UNK         0.0600 
    224 H224       -0.8525  -28.7090  -54.8214 H         1 UNK         0.0600 
    225 H225       -2.8646  -24.6965  -54.4618 H         1 UNK         0.3000 
    226 H226       -2.8218  -24.8263  -57.4347 H         1 UNK         0.0600 
    227 H227       -1.1622  -23.0956  -56.6232 H         1 UNK         0.0600 
    228 H228       -2.4791  -22.4007  -57.5457 H         1 UNK         0.0600 
    229 H229       -2.4651  -22.2673  -55.7862 H         1 UNK         0.0600 
    230 H230       -4.4225  -22.2398  -57.1686 H         1 UNK         0.3000 
    231 H231       -7.0114  -23.5727  -57.2493 H         1 UNK         0.0600 
    232 H232       -6.1965  -20.6852  -57.8720 H         1 UNK         0.0600 
    233 H233       -7.7171  -21.4535  -58.3113 H         1 UNK         0.0600 
    234 H234       -6.2218  -22.0093  -59.0373 H         1 UNK         0.0600 
    235 H235       -5.5725  -22.7932  -54.5520 H         1 UNK         0.3000 
    236 H236       -6.0482  -22.0254  -52.5085 H         1 UNK         0.0600 
    237 H237       -7.7851  -23.8166  -52.7190 H         1 UNK         0.0600 
    238 H238       -8.2895  -22.5349  -51.6307 H         1 UNK         0.0600 
    239 H239       -8.9567  -22.6146  -53.2562 H         1 UNK         0.0600 
    240 H240       -5.6654  -20.0177  -54.3486 H         1 UNK         0.3000 
    241 H241       -5.6198  -17.8444  -54.5647 H         1 UNK         0.0600 
    242 H242       -9.1525  -18.2615  -56.1887 H         1 UNK         0.3800 
    243 H243       -8.2338  -19.5691  -55.4905 H         1 UNK         0.3800 
    244 H244       -6.3962  -16.2326  -52.8914 H         1 UNK         0.0800 
    245 H245       -7.4006  -17.4258  -52.1282 H         1 UNK         0.0800 
    246 H246       -3.3907  -17.0681  -53.1074 H         1 UNK         0.0800 
    247 H247       -4.1317  -15.6847  -52.3323 H         1 UNK         0.0800 
@<TRIPOS>BOND
     1    1    2 1    
     2    1  127 1    
     3    1  128 1    
     4    1  129 1    
     5    2    3 2    
     6    2    4 am   BACKBONE|DICT|INTERRES
     7    4    5 1    
     8    4  130 1    
     9    5    6 1    
    10    5   65 1    
    11    5  131 1    
    12    6    7 1    
    13    6  132 1    
    14    6  133 1    
    15    7    8 1    
    16    8    9 1    
    17    8  134 1    
    18    8  135 1    
    19    9   10 ar   
    20    9   14 ar   
    21   10   11 ar   
    22   10  136 1    
    23   11   12 ar   
    24   11  126 1    
    25   12   13 ar   
    26   12  137 1    
    27   13   14 ar   
    28   13   15 1    
    29   14  138 1    
    30   15   16 1    
    31   15  139 1    
    32   15  140 1    
    33   16   17 1    
    34   17   18 1    
    35   17  141 1    
    36   17  142 1    
    37   18   19 1    
    38   18   67 1    
    39   18  143 1    
    40   19   20 am   BACKBONE|DICT|INTERRES
    41   19  144 1    
    42   20   21 2    
    43   20   22 1    
    44   22   23 1    
    45   22   24 1    
    46   22  145 1    
    47   23  146 1    
    48   23  147 1    
    49   23  148 1    
    50   24   25 am   BACKBONE|DICT|INTERRES
    51   24  149 1    
    52   25   26 2    
    53   25   27 1    
    54   27   28 1    
    55   27   29 1    
    56   27  150 1    
    57   28  151 1    
    58   28  152 1    
    59   28  153 1    
    60   29   30 am   BACKBONE|DICT|INTERRES
    61   29  154 1    
    62   30   31 2    
    63   30   32 1    
    64   32   33 1    
    65   32   34 1    
    66   32  155 1    
    67   33  156 1    
    68   33  157 1    
    69   33  158 1    
    70   34   35 am   BACKBONE|DICT|INTERRES
    71   34  159 1    
    72   35   36 2    
    73   35   37 1    
    74   37   38 1    
    75   37   39 1    
    76   37  160 1    
    77   38  161 1    
    78   38  162 1    
    79   38  163 1    
    80   39   40 am   BACKBONE|DICT|INTERRES
    81   39  164 1    
    82   40   41 2    
    83   40   42 1    
    84   42   43 1    
    85   42   44 1    
    86   42  165 1    
    87   43  166 1    
    88   43  167 1    
    89   43  168 1    
    90   44   45 am   BACKBONE|DICT|INTERRES
    91   44  169 1    
    92   45   46 2    
    93   45   47 1    
    94   47   48 1    
    95   47   49 1    
    96   47  170 1    
    97   48  171 1    
    98   48  172 1    
    99   48  173 1    
   100   49   50 am   BACKBONE|DICT|INTERRES
   101   49  174 1    
   102   50   51 2    
   103   50   52 1    
   104   52   53 1    
   105   52   54 1    
   106   52  175 1    
   107   53  176 1    
   108   53  177 1    
   109   53  178 1    
   110   54   55 am   BACKBONE|DICT|INTERRES
   111   54  179 1    
   112   55   56 2    
   113   55   57 1    
   114   57   58 1    
   115   57   59 1    
   116   57  180 1    
   117   58  181 1    
   118   58  182 1    
   119   58  183 1    
   120   59   60 am   BACKBONE|DICT|INTERRES
   121   59  184 1    
   122   60   61 2    
   123   60   62 1    
   124   62   63 1    
   125   62   64 1    
   126   62  185 1    
   127   63  186 1    
   128   63  187 1    
   129   63  188 1    
   130   64   65 am   BACKBONE|DICT|INTERRES
   131   64  189 1    
   132   65   66 2    
   133   67   68 2    
   134   67   69 am   BACKBONE|DICT|INTERRES
   135   69   70 1    
   136   69  190 1    
   137   70   71 1    
   138   70   72 1    
   139   70  191 1    
   140   71  192 1    
   141   71  193 1    
   142   71  194 1    
   143   72   73 2    
   144   72   74 am   BACKBONE|DICT|INTERRES
   145   74   75 1    
   146   74  195 1    
   147   75   76 1    
   148   75   77 1    
   149   75  196 1    
   150   76  197 1    
   151   76  198 1    
   152   76  199 1    
   153   77   78 2    
   154   77   79 am   BACKBONE|DICT|INTERRES
   155   79   80 1    
   156   79  200 1    
   157   80   81 1    
   158   80   82 1    
   159   80  201 1    
   160   81  202 1    
   161   81  203 1    
   162   81  204 1    
   163   82   83 2    
   164   82   84 am   BACKBONE|DICT|INTERRES
   165   84   85 1    
   166   84  205 1    
   167   85   86 1    
   168   85   87 1    
   169   85  206 1    
   170   86  207 1    
   171   86  208 1    
   172   86  209 1    
   173   87   88 2    
   174   87   89 am   BACKBONE|DICT|INTERRES
   175   89   90 1    
   176   89  210 1    
   177   90   91 1    
   178   90   92 1    
   179   90  211 1    
   180   91  212 1    
   181   91  213 1    
   182   91  214 1    
   183   92   93 2    
   184   92   94 am   BACKBONE|DICT|INTERRES
   185   94   95 1    
   186   94  215 1    
   187   95   96 1    
   188   95   97 1    
   189   95  216 1    
   190   96  217 1    
   191   96  218 1    
   192   96  219 1    
   193   97   98 2    
   194   97   99 am   BACKBONE|DICT|INTERRES
   195   99  100 1    
   196   99  220 1    
   197  100  101 1    
   198  100  102 1    
   199  100  221 1    
   200  101  222 1    
   201  101  223 1    
   202  101  224 1    
   203  102  103 2    
   204  102  104 am   BACKBONE|DICT|INTERRES
   205  104  105 1    
   206  104  225 1    
   207  105  106 1    
   208  105  107 1    
   209  105  226 1    
   210  106  227 1    
   211  106  228 1    
   212  106  229 1    
   213  107  108 2    
   214  107  109 am   BACKBONE|DICT|INTERRES
   215  109  110 1    
   216  109  230 1    
   217  110  111 1    
   218  110  112 1    
   219  110  231 1    
   220  111  232 1    
   221  111  233 1    
   222  111  234 1    
   223  112  113 2    
   224  112  114 am   BACKBONE|DICT|INTERRES
   225  114  115 1    
   226  114  235 1    
   227  115  116 1    
   228  115  117 1    
   229  115  236 1    
   230  116  237 1    
   231  116  238 1    
   232  116  239 1    
   233  117  118 2    
   234  117  119 am   BACKBONE|DICT|INTERRES
   235  119  120 1    
   236  119  240 1    
   237  120  121 1    
   238  120  124 1    
   239  120  241 1    
   240  121  122 am   BACKBONE|DICT|INTERRES
   241  121  123 2    
   242  122  242 1    
   243  122  243 1    
   244  124  125 1    
   245  124  244 1    
   246  124  245 1    
   247  125  126 1    
   248  126  246 1    
   249  126  247 1    
@<TRIPOS>SUBSTRUCTURE
     1 UNK         1 GROUP             0       ****    0 ROOT    
