@<TRIPOS>MOLECULE
3R540
247   249    1
SMALL
USER_CHARGES


@<TRIPOS>ATOM
      1 CA          4.7252  -17.1483  -52.1302 C.3       0 UNK        -0.1800 
      2 C           3.7511  -17.6981  -51.0987 C.2       0 UNK         0.5000 
      3 O           3.8872  -18.8460  -50.6771 O.2       0 UNK        -0.5000 
      4 N           2.7673  -16.8850  -50.6933 N.am      1 UNK        -0.5000 
      5 CA          1.7196  -17.2615  -49.7348 C.3       1 UNK         0.1400 
      6 C6          0.4649  -16.3585  -49.8384 C.3       23 UNK        -0.0398 
      7 S7         -0.2201  -16.2560  -51.5292 S.3       23 UNK        -0.2404 
      8 C8         -1.2372  -14.7460  -51.4433 C.3       23 UNK        -0.0205 
      9 C9         -2.6652  -15.0376  -51.0012 C.ar      23 UNK        -0.0193 
     10 C10        -3.7262  -14.9263  -51.9075 C.ar      23 UNK        -0.1150 
     11 C11        -5.0461  -15.1765  -51.5016 C.ar      23 UNK        -0.0193 
     12 C12        -5.2842  -15.5512  -50.1760 C.ar      23 UNK        -0.1150 
     13 C13        -4.2350  -15.6636  -49.2626 C.ar      23 UNK        -0.0193 
     14 C14        -2.9307  -15.3939  -49.6776 C.ar      23 UNK        -0.1150 
     15 C15        -4.5072  -16.0699  -47.8259 C.3       23 UNK        -0.0205 
     16 S16        -4.7395  -17.8708  -47.6972 S.3       23 UNK        -0.2404 
     17 C17        -3.9145  -18.2450  -46.1136 C.3       23 UNK        -0.0398 
     18 CA         -2.6628  -19.1343  -46.3170 C.3       11 UNK         0.1400 
     19 N          -1.6696  -18.9444  -45.2582 N.am      11 UNK        -0.5000 
     20 C          -0.4681  -19.5396  -45.2161 C.2       10 UNK         0.5000 
     21 O          -0.0558  -20.3264  -46.0662 O.2       10 UNK        -0.5000 
     22 CA          0.3869  -19.2669  -43.9709 C.3       10 UNK         0.1400 
     23 CB          0.9687  -17.8469  -44.0072 C.3       10 UNK        -0.1800 
     24 N          -0.3717  -19.4502  -42.7369 N.am      10 UNK        -0.5000 
     25 C          -0.9532  -20.5932  -42.3474 C.2       9 UNK         0.5000 
     26 O          -0.8949  -21.6472  -42.9771 O.2       9 UNK        -0.5000 
     27 CA         -1.7842  -20.5322  -41.0576 C.3       9 UNK         0.1400 
     28 CB         -0.8775  -20.6405  -39.8227 C.3       9 UNK        -0.1800 
     29 N          -2.5790  -19.3071  -40.9847 N.am      9 UNK        -0.5000 
     30 C          -3.6015  -19.0178  -41.8027 C.2       8 UNK         0.5000 
     31 O          -4.0110  -19.7701  -42.6889 O.2       8 UNK        -0.5000 
     32 CA         -4.2376  -17.6277  -41.6245 C.3       8 UNK         0.1400 
     33 CB         -5.2020  -17.6165  -40.4289 C.3       8 UNK        -0.1800 
     34 N          -3.2349  -16.5731  -41.4546 N.am      8 UNK        -0.5000 
     35 C          -2.3783  -16.1945  -42.4131 C.2       7 UNK         0.5000 
     36 O          -2.3520  -16.6911  -43.5384 O.2       7 UNK        -0.5000 
     37 CA         -1.3581  -15.1012  -42.0486 C.3       7 UNK         0.1400 
     38 CB         -1.9808  -13.7072  -42.2163 C.3       7 UNK        -0.1800 
     39 N          -0.7916  -15.2222  -40.7018 N.am      7 UNK        -0.5000 
     40 C          -0.1045  -16.2796  -40.2516 C.2       6 UNK         0.5000 
     41 O           0.0193  -17.3365  -40.8722 O.2       6 UNK        -0.5000 
     42 CA          0.5618  -16.1417  -38.8762 C.3       6 UNK         0.1400 
     43 CB         -0.0703  -17.1058  -37.8605 C.3       6 UNK        -0.1800 
     44 N           1.9864  -16.4387  -39.0057 N.am      6 UNK        -0.5000 
     45 C           2.9166  -15.5460  -39.3708 C.2       5 UNK         0.5000 
     46 O           2.6841  -14.3493  -39.5473 O.2       5 UNK        -0.5000 
     47 CA          4.3472  -16.0792  -39.5787 C.3       5 UNK         0.1400 
     48 CB          5.1171  -16.0917  -38.2489 C.3       5 UNK        -0.1800 
     49 N           4.3717  -17.4222  -40.1638 N.am      5 UNK        -0.5000 
     50 C           4.1087  -17.6861  -41.4499 C.2       4 UNK         0.5000 
     51 O           3.8604  -16.8192  -42.2928 O.2       4 UNK        -0.5000 
     52 CA          4.1228  -19.1679  -41.8558 C.3       4 UNK         0.1400 
     53 CB          2.9439  -19.9305  -41.2223 C.3       4 UNK        -0.1800 
     54 N           4.0544  -19.2652  -43.3117 N.am      4 UNK        -0.5000 
     55 C           4.5663  -20.2554  -44.0517 C.2       3 UNK         0.5000 
     56 O           5.1254  -21.2393  -43.5652 O.2       3 UNK        -0.5000 
     57 CA          4.4446  -20.1486  -45.5880 C.3       3 UNK         0.1400 
     58 CB          3.5444  -21.2609  -46.1472 C.3       3 UNK        -0.1800 
     59 N           3.9524  -18.8528  -46.0677 N.am      3 UNK        -0.5000 
     60 C           4.6886  -17.7389  -46.1598 C.2       2 UNK         0.5000 
     61 O           5.8832  -17.6959  -45.8607 O.2       2 UNK        -0.5000 
     62 CA          3.9678  -16.4710  -46.6722 C.3       2 UNK         0.1400 
     63 CB          4.8928  -15.2411  -46.7133 C.3       2 UNK        -0.1800 
     64 N           3.3698  -16.6440  -47.9987 N.am      2 UNK        -0.5000 
     65 C           2.2281  -17.2903  -48.2748 C.2       1 UNK         0.5000 
     66 O           1.5689  -17.8802  -47.4210 O.2       1 UNK        -0.5000 
     67 C          -3.0587  -20.6147  -46.4837 C.2       11 UNK         0.5000 
     68 O          -3.0769  -21.1120  -47.6102 O.2       11 UNK        -0.5000 
     69 N          -3.3260  -21.2915  -45.3571 N.am      12 UNK        -0.5000 
     70 CA         -3.6669  -22.7115  -45.3042 C.3       12 UNK         0.1400 
     71 CB         -4.1499  -23.0677  -43.8899 C.3       12 UNK        -0.1800 
     72 C          -2.5044  -23.6242  -45.7354 C.2       12 UNK         0.5000 
     73 O          -2.7224  -24.5463  -46.5213 O.2       12 UNK        -0.5000 
     74 N          -1.2950  -23.3459  -45.2291 N.am      13 UNK        -0.5000 
     75 CA         -0.0754  -24.1006  -45.5195 C.3       13 UNK         0.1400 
     76 CB          1.0376  -23.6759  -44.5490 C.3       13 UNK        -0.1800 
     77 C           0.3889  -23.9584  -46.9790 C.2       13 UNK         0.5000 
     78 O           0.7756  -24.9554  -47.5903 O.2       13 UNK        -0.5000 
     79 N           0.3305  -22.7327  -47.5161 N.am      14 UNK        -0.5000 
     80 CA          0.6887  -22.4311  -48.9013 C.3       14 UNK         0.1400 
     81 CB          0.9897  -20.9302  -49.0321 C.3       14 UNK        -0.1800 
     82 C          -0.4106  -22.8135  -49.9057 C.2       14 UNK         0.5000 
     83 O          -0.1137  -22.9150  -51.0948 O.2       14 UNK        -0.5000 
     84 N          -1.6606  -22.9399  -49.4351 N.am      15 UNK        -0.5000 
     85 CA         -2.8939  -23.0710  -50.2215 C.3       15 UNK         0.1400 
     86 CB         -2.9429  -24.4292  -50.9507 C.3       15 UNK        -0.1800 
     87 C          -3.0977  -21.8659  -51.1656 C.2       15 UNK         0.5000 
     88 O          -3.4753  -22.0416  -52.3258 O.2       15 UNK        -0.5000 
     89 N          -2.7905  -20.6645  -50.6511 N.am      16 UNK        -0.5000 
     90 CA         -2.7104  -19.3862  -51.3696 C.3       16 UNK         0.1400 
     91 CB         -4.1162  -18.9034  -51.7733 C.3       16 UNK        -0.1800 
     92 C          -1.7278  -19.4487  -52.5620 C.2       16 UNK         0.5000 
     93 O          -2.0863  -19.0871  -53.6828 O.2       16 UNK        -0.5000 
     94 N          -0.5142  -19.9515  -52.2867 N.am      17 UNK        -0.5000 
     95 CA          0.5825  -20.2034  -53.2307 C.3       17 UNK         0.1400 
     96 CB          1.1248  -18.8878  -53.8267 C.3       17 UNK        -0.1800 
     97 C           0.2039  -21.2490  -54.3004 C.2       17 UNK         0.5000 
     98 O           0.3617  -21.0077  -55.4983 O.2       17 UNK        -0.5000 
     99 N          -0.3017  -22.3957  -53.8243 N.am      18 UNK        -0.5000 
    100 CA        -0.7277  -23.5828  -54.5740 C.3       18 UNK         0.1400 
    101 CB         0.4710  -24.2274  -55.3007 C.3       18 UNK        -0.1800 
    102 C         -1.9336  -23.3578  -55.5118 C.2       18 UNK         0.5000 
    103 O         -2.1903  -24.1946  -56.3794 O.2       18 UNK        -0.5000 
    104 N         -2.6650  -22.2524  -55.3237 N.am      19 UNK        -0.5000 
    105 CA        -3.8450  -21.9016  -56.1118 C.3       19 UNK         0.1400 
    106 CB        -4.0615  -20.3837  -56.0347 C.3       19 UNK        -0.1800 
    107 C         -5.1133  -22.6432  -55.6524 C.2       19 UNK         0.5000 
    108 O         -6.0276  -22.8110  -56.4597 O.2       19 UNK        -0.5000 
    109 N         -5.1461  -23.0512  -54.3727 N.am      20 UNK        -0.5000 
    110 CA        -6.3053  -23.5575  -53.6294 C.3       20 UNK         0.1400 
    111 CB        -6.8326  -24.8817  -54.2211 C.3       20 UNK        -0.1800 
    112 C         -7.3753  -22.4543  -53.5033 C.2       20 UNK         0.5000 
    113 O         -8.5147  -22.6361  -53.9355 O.2       20 UNK        -0.5000 
    114 N         -6.9330  -21.3210  -52.9351 N.am      21 UNK        -0.5000 
    115 CA        -7.5473  -19.9879  -52.9137 C.3       21 UNK         0.1400 
    116 CB        -9.0389  -20.0009  -52.5265 C.3       21 UNK        -0.1800 
    117 C         -7.2959  -19.2607  -54.2477 C.2       21 UNK         0.5000 
    118 O         -7.5462  -19.8178  -55.3170 O.2       21 UNK        -0.5000 
    119 N         -6.7723  -18.0324  -54.1574 N.am      22 UNK        -0.5000 
    120 CA        -6.3081  -17.2305  -55.3034 C.3       22 UNK         0.1400 
    121 C         -7.4173  -16.6629  -56.2418 C.2       22 UNK         0.5000 
    122 N         -8.6939  -16.7353  -55.8852 N.am      22 UNK        -0.7600 
    123 O         -7.1117  -16.1601  -57.3197 O.2       22 UNK        -0.5000 
    124 C124       -5.2629  -16.1671  -54.8624 C.3       23 UNK        -0.0398 
    125 S125       -5.9363  -14.6126  -54.1682 S.3       23 UNK        -0.2404 
    126 C126       -6.2601  -15.0367  -52.4223 C.3       23 UNK        -0.0205 
    127 H127        4.4883  -16.1201  -52.4044 H         1 UNK         0.0600 
    128 H128        4.6945  -17.7565  -53.0343 H         1 UNK         0.0600 
    129 H129        5.7413  -17.1707  -51.7365 H         1 UNK         0.0600 
    130 H130        2.6871  -15.9597  -51.0909 H         1 UNK         0.3000 
    131 H131        1.4028  -18.2766  -49.9775 H         1 UNK         0.0600 
    132 H132        0.6939  -15.3503  -49.4888 H         1 UNK         0.0800 
    133 H133       -0.3160  -16.7474  -49.1837 H         1 UNK         0.0800 
    134 H134       -1.2389  -14.2823  -52.4308 H         1 UNK         0.0800 
    135 H135       -0.7828  -14.0166  -50.7718 H         1 UNK         0.0800 
    136 H136       -3.5126  -14.6318  -52.9240 H         1 UNK         0.1150 
    137 H137       -6.2947  -15.7523  -49.8479 H         1 UNK         0.1150 
    138 H138       -2.1226  -15.4600  -48.9653 H         1 UNK         0.1150 
    139 H139       -3.6830  -15.7370  -47.1939 H         1 UNK         0.0800 
    140 H140       -5.4000  -15.5641  -47.4556 H         1 UNK         0.0800 
    141 H141       -4.6324  -18.7052  -45.4319 H         1 UNK         0.0800 
    142 H142       -3.6360  -17.3066  -45.6380 H         1 UNK         0.0800 
    143 H143       -2.1659  -18.8255  -47.2397 H         1 UNK         0.0600 
    144 H144       -1.9151  -18.2920  -44.5186 H         1 UNK         0.3000 
    145 H145        1.2127  -19.9806  -43.9590 H         1 UNK         0.0600 
    146 H146        1.4979  -17.6110  -43.0866 H         1 UNK         0.0600 
    147 H147        1.6756  -17.7383  -44.8255 H         1 UNK         0.0600 
    148 H148        0.1971  -17.0909  -44.1448 H         1 UNK         0.0600 
    149 H149       -0.4308  -18.6430  -42.1207 H         1 UNK         0.3000 
    150 H150       -2.4696  -21.3824  -41.0560 H         1 UNK         0.0600 
    151 H151       -0.3344  -21.5863  -39.8236 H         1 UNK         0.0600 
    152 H152       -1.4560  -20.5977  -38.8998 H         1 UNK         0.0600 
    153 H153       -0.1364  -19.8418  -39.7948 H         1 UNK         0.0600 
    154 H154       -2.2732  -18.6062  -40.3265 H         1 UNK         0.3000 
    155 H155       -4.8123  -17.4079  -42.5270 H         1 UNK         0.0600 
    156 H156       -4.6826  -17.7993  -39.4874 H         1 UNK         0.0600 
    157 H157       -5.9662  -18.3873  -40.5375 H         1 UNK         0.0600 
    158 H158       -5.7171  -16.6592  -40.3477 H         1 UNK         0.0600 
    159 H159       -3.1878  -16.1190  -40.5545 H         1 UNK         0.3000 
    160 H160       -0.5295  -15.1851  -42.7546 H         1 UNK         0.0600 
    161 H161       -2.7891  -13.5380  -41.5038 H         1 UNK         0.0600 
    162 H162       -2.3942  -13.5817  -43.2180 H         1 UNK         0.0600 
    163 H163       -1.2371  -12.9229  -42.0737 H         1 UNK         0.0600 
    164 H164       -0.8476  -14.3980  -40.1211 H         1 UNK         0.3000 
    165 H165        0.4288  -15.1228  -38.5062 H         1 UNK         0.0600 
    166 H166        0.3704  -16.9766  -36.8718 H         1 UNK         0.0600 
    167 H167       -1.1418  -16.9260  -37.7646 H         1 UNK         0.0600 
    168 H168        0.0641  -18.1479  -38.1499 H         1 UNK         0.0600 
    169 H169        2.2503  -17.4098  -38.9362 H         1 UNK         0.3000 
    170 H170        4.8606  -15.3954  -40.2585 H         1 UNK         0.0600 
    171 H171        5.1341  -15.0982  -37.7989 H         1 UNK         0.0600 
    172 H172        4.6647  -16.7716  -37.5259 H         1 UNK         0.0600 
    173 H173        6.1530  -16.3979  -38.3960 H         1 UNK         0.0600 
    174 H174        4.5826  -18.1849  -39.5363 H         1 UNK         0.3000 
    175 H175        5.0644  -19.6002  -41.5107 H         1 UNK         0.0600 
    176 H176        1.9960  -19.4293  -41.4121 H         1 UNK         0.0600 
    177 H177        2.8686  -20.9476  -41.6073 H         1 UNK         0.0600 
    178 H178        3.0589  -20.0032  -40.1407 H         1 UNK         0.0600 
    179 H179        3.6835  -18.4422  -43.7673 H         1 UNK         0.3000 
    180 H180        5.4481  -20.3066  -45.9886 H         1 UNK         0.0600 
    181 H181        2.4962  -21.0854  -45.9104 H         1 UNK         0.0600 
    182 H182        3.8146  -22.2376  -45.7437 H         1 UNK         0.0600 
    183 H183        3.6403  -21.3286  -47.2303 H         1 UNK         0.0600 
    184 H184        2.9865  -18.8080  -46.3790 H         1 UNK         0.3000 
    185 H185        3.1698  -16.2498  -45.9610 H         1 UNK         0.0600 
    186 H186        5.3235  -15.0416  -45.7310 H         1 UNK         0.0600 
    187 H187        5.7176  -15.3800  -47.4133 H         1 UNK         0.0600 
    188 H188        4.3463  -14.3463  -47.0118 H         1 UNK         0.0600 
    189 H189        3.8664  -16.2222  -48.7696 H         1 UNK         0.3000 
    190 H190       -3.2900  -20.8009  -44.4708 H         1 UNK         0.3000 
    191 H191       -4.4948  -22.8806  -45.9960 H         1 UNK         0.0600 
    192 H192       -3.3769  -22.8888  -43.1418 H         1 UNK         0.0600 
    193 H193       -4.4326  -24.1191  -43.8264 H         1 UNK         0.0600 
    194 H194       -5.0237  -22.4778  -43.6123 H         1 UNK         0.0600 
    195 H195       -1.2043  -22.5886  -44.5552 H         1 UNK         0.3000 
    196 H196       -0.2870  -25.1575  -45.3446 H         1 UNK         0.0600 
    197 H197        1.9735  -24.1905  -44.7703 H         1 UNK         0.0600 
    198 H198        0.7709  -23.9135  -43.5192 H         1 UNK         0.0600 
    199 H199        1.2284  -22.6041  -44.6015 H         1 UNK         0.0600 
    200 H200        0.0474  -21.9437  -46.9366 H         1 UNK         0.3000 
    201 H201        1.5927  -22.9854  -49.1618 H         1 UNK         0.0600 
    202 H202        1.7422  -20.6074  -48.3155 H         1 UNK         0.0600 
    203 H203        0.0993  -20.3223  -48.8646 H         1 UNK         0.0600 
    204 H204        1.3754  -20.6966  -50.0247 H         1 UNK         0.0600 
    205 H205       -1.8035  -22.7864  -48.4449 H         1 UNK         0.3000 
    206 H206       -3.7202  -23.0477  -49.5097 H         1 UNK         0.0600 
    207 H207       -3.9039  -24.5752  -51.4440 H         1 UNK         0.0600 
    208 H208       -2.8099  -25.2537  -50.2503 H         1 UNK         0.0600 
    209 H209       -2.1692  -24.5110  -51.7131 H         1 UNK         0.0600 
    210 H210       -2.5637  -20.6382  -49.6635 H         1 UNK         0.3000 
    211 H211       -2.3028  -18.6568  -50.6675 H         1 UNK         0.0600 
    212 H212       -4.5605  -19.5499  -52.5287 H         1 UNK         0.0600 
    213 H213       -4.0703  -17.8974  -52.1887 H         1 UNK         0.0600 
    214 H214       -4.7842  -18.8685  -50.9127 H         1 UNK         0.0600 
    215 H215       -0.3517  -20.2750  -51.3459 H         1 UNK         0.3000 
    216 H216        1.3904  -20.6484  -52.6479 H         1 UNK         0.0600 
    217 H217        1.9909  -19.0750  -54.4623 H         1 UNK         0.0600 
    218 H218        1.4455  -18.2052  -53.0418 H         1 UNK         0.0600 
    219 H219        0.3786  -18.3746  -54.4335 H         1 UNK         0.0600 
    220 H220       -0.3561  -22.4987  -52.8112 H         1 UNK         0.3000 
    221 H221       -1.0704  -24.2951  -53.8234 H         1 UNK         0.0600 
    222 H222        0.8311  -23.6044  -56.1198 H         1 UNK         0.0600 
    223 H223        1.3021  -24.3963  -54.6159 H         1 UNK         0.0600 
    224 H224        0.2003  -25.1958  -55.7227 H         1 UNK         0.0600 
    225 H225       -2.4091  -21.6226  -54.5747 H         1 UNK         0.3000 
    226 H226       -3.6634  -22.1633  -57.1565 H         1 UNK         0.0600 
    227 H227       -4.2859  -20.0614  -55.0174 H         1 UNK         0.0600 
    228 H228       -3.1795  -19.8387  -56.3719 H         1 UNK         0.0600 
    229 H229       -4.8961  -20.0802  -56.6675 H         1 UNK         0.0600 
    230 H230       -4.3434  -22.8144  -53.7937 H         1 UNK         0.3000 
    231 H231       -5.9558  -23.7705  -52.6183 H         1 UNK         0.0600 
    232 H232       -6.0366  -25.6223  -54.2974 H         1 UNK         0.0600 
    233 H233       -7.2634  -24.7487  -55.2135 H         1 UNK         0.0600 
    234 H234       -7.6110  -25.3045  -53.5852 H         1 UNK         0.0600 
    235 H235       -5.9659  -21.3303  -52.6411 H         1 UNK         0.3000 
    236 H236       -7.0235  -19.4450  -52.1260 H         1 UNK         0.0600 
    237 H237       -9.3920  -18.9887  -52.3269 H         1 UNK         0.0600 
    238 H238       -9.6662  -20.4065  -53.3206 H         1 UNK         0.0600 
    239 H239       -9.2099  -20.5894  -51.6252 H         1 UNK         0.0600 
    240 H240       -6.6148  -17.6293  -53.2472 H         1 UNK         0.3000 
    241 H241       -5.7593  -17.9274  -55.9388 H         1 UNK         0.0600 
    242 H242       -9.4034  -16.3714  -56.5017 H         1 UNK         0.3800 
    243 H243       -8.9578  -17.1581  -55.0105 H         1 UNK         0.3800 
    244 H244       -4.5494  -16.6028  -54.1625 H         1 UNK         0.0800 
    245 H245       -4.6654  -15.8840  -55.7304 H         1 UNK         0.0800 
    246 H246       -6.8582  -15.9460  -52.3776 H         1 UNK         0.0800 
    247 H247       -6.8924  -14.2470  -52.0140 H         1 UNK         0.0800 
@<TRIPOS>BOND
     1    1    2 1    
     2    1  127 1    
     3    1  128 1    
     4    1  129 1    
     5    2    3 2    
     6    2    4 am   BACKBONE|DICT|INTERRES
     7    4    5 1    
     8    4  130 1    
     9    5    6 1    
    10    5   65 1    
    11    5  131 1    
    12    6    7 1    
    13    6  132 1    
    14    6  133 1    
    15    7    8 1    
    16    8    9 1    
    17    8  134 1    
    18    8  135 1    
    19    9   10 ar   
    20    9   14 ar   
    21   10   11 ar   
    22   10  136 1    
    23   11   12 ar   
    24   11  126 1    
    25   12   13 ar   
    26   12  137 1    
    27   13   14 ar   
    28   13   15 1    
    29   14  138 1    
    30   15   16 1    
    31   15  139 1    
    32   15  140 1    
    33   16   17 1    
    34   17   18 1    
    35   17  141 1    
    36   17  142 1    
    37   18   19 1    
    38   18   67 1    
    39   18  143 1    
    40   19   20 am   BACKBONE|DICT|INTERRES
    41   19  144 1    
    42   20   21 2    
    43   20   22 1    
    44   22   23 1    
    45   22   24 1    
    46   22  145 1    
    47   23  146 1    
    48   23  147 1    
    49   23  148 1    
    50   24   25 am   BACKBONE|DICT|INTERRES
    51   24  149 1    
    52   25   26 2    
    53   25   27 1    
    54   27   28 1    
    55   27   29 1    
    56   27  150 1    
    57   28  151 1    
    58   28  152 1    
    59   28  153 1    
    60   29   30 am   BACKBONE|DICT|INTERRES
    61   29  154 1    
    62   30   31 2    
    63   30   32 1    
    64   32   33 1    
    65   32   34 1    
    66   32  155 1    
    67   33  156 1    
    68   33  157 1    
    69   33  158 1    
    70   34   35 am   BACKBONE|DICT|INTERRES
    71   34  159 1    
    72   35   36 2    
    73   35   37 1    
    74   37   38 1    
    75   37   39 1    
    76   37  160 1    
    77   38  161 1    
    78   38  162 1    
    79   38  163 1    
    80   39   40 am   BACKBONE|DICT|INTERRES
    81   39  164 1    
    82   40   41 2    
    83   40   42 1    
    84   42   43 1    
    85   42   44 1    
    86   42  165 1    
    87   43  166 1    
    88   43  167 1    
    89   43  168 1    
    90   44   45 am   BACKBONE|DICT|INTERRES
    91   44  169 1    
    92   45   46 2    
    93   45   47 1    
    94   47   48 1    
    95   47   49 1    
    96   47  170 1    
    97   48  171 1    
    98   48  172 1    
    99   48  173 1    
   100   49   50 am   BACKBONE|DICT|INTERRES
   101   49  174 1    
   102   50   51 2    
   103   50   52 1    
   104   52   53 1    
   105   52   54 1    
   106   52  175 1    
   107   53  176 1    
   108   53  177 1    
   109   53  178 1    
   110   54   55 am   BACKBONE|DICT|INTERRES
   111   54  179 1    
   112   55   56 2    
   113   55   57 1    
   114   57   58 1    
   115   57   59 1    
   116   57  180 1    
   117   58  181 1    
   118   58  182 1    
   119   58  183 1    
   120   59   60 am   BACKBONE|DICT|INTERRES
   121   59  184 1    
   122   60   61 2    
   123   60   62 1    
   124   62   63 1    
   125   62   64 1    
   126   62  185 1    
   127   63  186 1    
   128   63  187 1    
   129   63  188 1    
   130   64   65 am   BACKBONE|DICT|INTERRES
   131   64  189 1    
   132   65   66 2    
   133   67   68 2    
   134   67   69 am   BACKBONE|DICT|INTERRES
   135   69   70 1    
   136   69  190 1    
   137   70   71 1    
   138   70   72 1    
   139   70  191 1    
   140   71  192 1    
   141   71  193 1    
   142   71  194 1    
   143   72   73 2    
   144   72   74 am   BACKBONE|DICT|INTERRES
   145   74   75 1    
   146   74  195 1    
   147   75   76 1    
   148   75   77 1    
   149   75  196 1    
   150   76  197 1    
   151   76  198 1    
   152   76  199 1    
   153   77   78 2    
   154   77   79 am   BACKBONE|DICT|INTERRES
   155   79   80 1    
   156   79  200 1    
   157   80   81 1    
   158   80   82 1    
   159   80  201 1    
   160   81  202 1    
   161   81  203 1    
   162   81  204 1    
   163   82   83 2    
   164   82   84 am   BACKBONE|DICT|INTERRES
   165   84   85 1    
   166   84  205 1    
   167   85   86 1    
   168   85   87 1    
   169   85  206 1    
   170   86  207 1    
   171   86  208 1    
   172   86  209 1    
   173   87   88 2    
   174   87   89 am   BACKBONE|DICT|INTERRES
   175   89   90 1    
   176   89  210 1    
   177   90   91 1    
   178   90   92 1    
   179   90  211 1    
   180   91  212 1    
   181   91  213 1    
   182   91  214 1    
   183   92   93 2    
   184   92   94 am   BACKBONE|DICT|INTERRES
   185   94   95 1    
   186   94  215 1    
   187   95   96 1    
   188   95   97 1    
   189   95  216 1    
   190   96  217 1    
   191   96  218 1    
   192   96  219 1    
   193   97   98 2    
   194   97   99 am   BACKBONE|DICT|INTERRES
   195   99  100 1    
   196   99  220 1    
   197  100  101 1    
   198  100  102 1    
   199  100  221 1    
   200  101  222 1    
   201  101  223 1    
   202  101  224 1    
   203  102  103 2    
   204  102  104 am   BACKBONE|DICT|INTERRES
   205  104  105 1    
   206  104  225 1    
   207  105  106 1    
   208  105  107 1    
   209  105  226 1    
   210  106  227 1    
   211  106  228 1    
   212  106  229 1    
   213  107  108 2    
   214  107  109 am   BACKBONE|DICT|INTERRES
   215  109  110 1    
   216  109  230 1    
   217  110  111 1    
   218  110  112 1    
   219  110  231 1    
   220  111  232 1    
   221  111  233 1    
   222  111  234 1    
   223  112  113 2    
   224  112  114 am   BACKBONE|DICT|INTERRES
   225  114  115 1    
   226  114  235 1    
   227  115  116 1    
   228  115  117 1    
   229  115  236 1    
   230  116  237 1    
   231  116  238 1    
   232  116  239 1    
   233  117  118 2    
   234  117  119 am   BACKBONE|DICT|INTERRES
   235  119  120 1    
   236  119  240 1    
   237  120  121 1    
   238  120  124 1    
   239  120  241 1    
   240  121  122 am   BACKBONE|DICT|INTERRES
   241  121  123 2    
   242  122  242 1    
   243  122  243 1    
   244  124  125 1    
   245  124  244 1    
   246  124  245 1    
   247  125  126 1    
   248  126  246 1    
   249  126  247 1    
@<TRIPOS>SUBSTRUCTURE
     1 UNK         1 GROUP             0       ****    0 ROOT    
