@<TRIPOS>MOLECULE
3R540
247   249    1
SMALL
USER_CHARGES


@<TRIPOS>ATOM
      1 CA          2.8794  -11.1998  -47.9753 C.3       0 UNK        -0.1800 
      2 C           4.0678  -11.9288  -47.3651 C.2       0 UNK         0.5000 
      3 O           4.9653  -11.2899  -46.8161 O.2       0 UNK        -0.5000 
      4 N           4.0728  -13.2651  -47.4536 N.am      1 UNK        -0.5000 
      5 CA          5.1293  -14.1441  -46.9262 C.3       1 UNK         0.1400 
      6 C6          5.1507  -15.5267  -47.6292 C.3       23 UNK        -0.0398 
      7 S7          5.3173  -15.3780  -49.4435 S.3       23 UNK        -0.2404 
      8 C8          3.7124  -16.0254  -50.0277 C.3       23 UNK        -0.0205 
      9 C9          3.7793  -17.4438  -50.5897 C.ar      23 UNK        -0.0193 
     10 C10         2.9855  -17.7712  -51.6931 C.ar      23 UNK        -0.1150 
     11 C11         3.0106  -19.0583  -52.2353 C.ar      23 UNK        -0.0193 
     12 C12         3.8508  -20.0232  -51.6787 C.ar      23 UNK        -0.1150 
     13 C13         4.6274  -19.7238  -50.5567 C.ar      23 UNK        -0.0193 
     14 C14         4.5863  -18.4349  -50.0151 C.ar      23 UNK        -0.1150 
     15 C15         5.5045  -20.7971  -49.9290 C.3       23 UNK        -0.0205 
     16 S16         4.6497  -21.6777  -48.5830 S.3       23 UNK        -0.2404 
     17 C17         3.3649  -22.5926  -49.5042 C.3       23 UNK        -0.0398 
     18 CA          2.4563  -23.4431  -48.5875 C.3       11 UNK         0.1400 
     19 N           1.7977  -22.6197  -47.5728 N.am      11 UNK        -0.5000 
     20 C           1.1028  -23.0763  -46.5240 C.2       10 UNK         0.5000 
     21 O           1.0692  -24.2621  -46.1941 O.2       10 UNK        -0.5000 
     22 CA          0.3006  -22.0369  -45.7126 C.3       10 UNK         0.1400 
     23 CB          0.9395  -21.8274  -44.3328 C.3       10 UNK        -0.1800 
     24 N           0.1291  -20.7344  -46.3749 N.am      10 UNK        -0.5000 
     25 C          -0.5040  -20.5276  -47.5410 C.2       9 UNK         0.5000 
     26 O          -0.9998  -21.4408  -48.1985 O.2       9 UNK        -0.5000 
     27 CA         -0.5905  -19.0895  -48.0911 C.3       9 UNK         0.1400 
     28 CB         -2.0325  -18.7443  -48.4922 C.3       9 UNK        -0.1800 
     29 N          -0.1042  -18.0727  -47.1598 N.am      9 UNK        -0.5000 
     30 C           1.1778  -17.7242  -46.9954 C.2       8 UNK         0.5000 
     31 O           2.1127  -18.2402  -47.6038 O.2       8 UNK        -0.5000 
     32 CA          1.4599  -16.6446  -45.9364 C.3       8 UNK         0.1400 
     33 CB          1.1310  -15.2440  -46.4760 C.3       8 UNK        -0.1800 
     34 N           0.7094  -16.8796  -44.7045 N.am      8 UNK        -0.5000 
     35 C           0.9291  -17.9008  -43.8651 C.2       7 UNK         0.5000 
     36 O           1.8177  -18.7350  -44.0275 O.2       7 UNK        -0.5000 
     37 CA         -0.0137  -18.0238  -42.6557 C.3       7 UNK         0.1400 
     38 CB          0.4775  -17.1678  -41.4781 C.3       7 UNK        -0.1800 
     39 N          -1.3846  -17.6475  -42.9956 N.am      7 UNK        -0.5000 
     40 C          -2.2219  -18.4142  -43.7083 C.2       6 UNK         0.5000 
     41 O          -1.9457  -19.5463  -44.1025 O.2       6 UNK        -0.5000 
     42 CA         -3.5872  -17.7952  -44.0611 C.3       6 UNK         0.1400 
     43 CB         -4.6036  -18.0486  -42.9379 C.3       6 UNK        -0.1800 
     44 N          -3.5091  -16.3561  -44.3227 N.am      6 UNK        -0.5000 
     45 C          -2.8744  -15.8138  -45.3708 C.2       5 UNK         0.5000 
     46 O          -2.3028  -16.4720  -46.2372 O.2       5 UNK        -0.5000 
     47 CA         -2.8286  -14.2772  -45.4356 C.3       5 UNK         0.1400 
     48 CB         -4.1006  -13.7280  -46.0985 C.3       5 UNK        -0.1800 
     49 N          -2.6448  -13.6423  -44.1271 N.am      5 UNK        -0.5000 
     50 C          -1.5703  -13.8077  -43.3452 C.2       4 UNK         0.5000 
     51 O          -0.6382  -14.5708  -43.6099 O.2       4 UNK        -0.5000 
     52 CA         -1.5529  -13.0252  -42.0277 C.3       4 UNK         0.1400 
     53 CB         -2.1194  -13.8856  -40.8869 C.3       4 UNK        -0.1800 
     54 N          -0.1731  -12.6648  -41.7166 N.am      4 UNK        -0.5000 
     55 C           0.2600  -11.4327  -41.4248 C.2       3 UNK         0.5000 
     56 O          -0.4844  -10.4568  -41.3173 O.2       3 UNK        -0.5000 
     57 CA          1.7761  -11.2429  -41.2042 C.3       3 UNK         0.1400 
     58 CB          2.0789  -11.0593  -39.7084 C.3       3 UNK        -0.1800 
     59 N           2.6104  -12.3334  -41.7192 N.am      3 UNK        -0.5000 
     60 C           2.8249  -12.5916  -43.0150 C.2       2 UNK         0.5000 
     61 O           2.3071  -11.9551  -43.9375 O.2       2 UNK        -0.5000 
     62 CA          3.7670  -13.7666  -43.3230 C.3       2 UNK         0.1400 
     63 CB          3.1704  -15.0997  -42.8429 C.3       2 UNK        -0.1800 
     64 N           3.9902  -13.8125  -44.7622 N.am      2 UNK        -0.5000 
     65 C           5.0636  -14.3075  -45.3883 C.2       1 UNK         0.5000 
     66 O           5.9875  -14.8728  -44.8017 O.2       1 UNK        -0.5000 
     67 C           1.4392  -24.2388  -49.4399 C.2       11 UNK         0.5000 
     68 O           1.7785  -25.3218  -49.9192 O.2       11 UNK        -0.5000 
     69 N           0.2195  -23.7053  -49.6106 N.am      12 UNK        -0.5000 
     70 CA         -0.9039  -24.3939  -50.2396 C.3       12 UNK         0.1400 
     71 CB         -1.8493  -23.3546  -50.8606 C.3       12 UNK        -0.1800 
     72 C          -1.6410  -25.2337  -49.1838 C.2       12 UNK         0.5000 
     73 O          -1.7563  -24.8050  -48.0339 O.2       12 UNK        -0.5000 
     74 N          -2.1523  -26.4017  -49.5948 N.am      13 UNK        -0.5000 
     75 CA         -2.7596  -27.4121  -48.7183 C.3       13 UNK         0.1400 
     76 CB         -3.1115  -28.6511  -49.5561 C.3       13 UNK        -0.1800 
     77 C          -3.9923  -26.9377  -47.9216 C.2       13 UNK         0.5000 
     78 O          -4.2522  -27.4656  -46.8396 O.2       13 UNK        -0.5000 
     79 N          -4.7217  -25.9535  -48.4615 N.am      14 UNK        -0.5000 
     80 CA         -5.8792  -25.3337  -47.8169 C.3       14 UNK         0.1400 
     81 CB         -6.7426  -24.6654  -48.8947 C.3       14 UNK        -0.1800 
     82 C          -5.4993  -24.3017  -46.7376 C.2       14 UNK         0.5000 
     83 O          -6.3321  -24.0130  -45.8777 O.2       14 UNK        -0.5000 
     84 N          -4.2743  -23.7555  -46.8138 N.am      15 UNK        -0.5000 
     85 CA         -3.7257  -22.6840  -45.9756 C.3       15 UNK         0.1400 
     86 CB         -3.3955  -23.2137  -44.5658 C.3       15 UNK        -0.1800 
     87 C          -4.6108  -21.4193  -45.9615 C.2       15 UNK         0.5000 
     88 O          -4.9481  -20.9013  -44.8959 O.2       15 UNK        -0.5000 
     89 N          -4.9990  -20.9655  -47.1574 N.am      16 UNK        -0.5000 
     90 CA         -5.8486  -19.8036  -47.3836 C.3       16 UNK         0.1400 
     91 CB         -7.3287  -20.2000  -47.2454 C.3       16 UNK        -0.1800 
     92 C          -5.5447  -19.2355  -48.7742 C.2       16 UNK         0.5000 
     93 O          -5.0588  -19.9655  -49.6435 O.2       16 UNK        -0.5000 
     94 N          -5.8178  -17.9385  -48.9525 N.am      17 UNK        -0.5000 
     95 CA         -5.5673  -17.2029  -50.1893 C.3       17 UNK         0.1400 
     96 CB         -5.7853  -15.7027  -49.9388 C.3       17 UNK        -0.1800 
     97 C          -6.4519  -17.7062  -51.3448 C.2       17 UNK         0.5000 
     98 O          -7.6771  -17.7291  -51.2086 O.2       17 UNK        -0.5000 
     99 N          -5.8005  -18.0890  -52.4499 N.am      18 UNK        -0.5000 
    100 CA        -6.3708  -18.6234  -53.6913 C.3       18 UNK         0.1400 
    101 CB        -7.1593  -17.5264  -54.4367 C.3       18 UNK        -0.1800 
    102 C         -7.1819  -19.9244  -53.4964 C.2       18 UNK         0.5000 
    103 O         -8.1756  -20.1380  -54.1946 O.2       18 UNK        -0.5000 
    104 N         -6.7470  -20.7703  -52.5552 N.am      19 UNK        -0.5000 
    105 CA        -7.3446  -22.0641  -52.2435 C.3       19 UNK         0.1400 
    106 CB        -7.9364  -22.0061  -50.8291 C.3       19 UNK        -0.1800 
    107 C         -6.2570  -23.1413  -52.3428 C.2       19 UNK         0.5000 
    108 O         -5.1240  -22.8990  -51.9173 O.2       19 UNK        -0.5000 
    109 N         -6.6114  -24.3016  -52.9163 N.am      20 UNK        -0.5000 
    110 CA        -5.7723  -25.4675  -53.2519 C.3       20 UNK         0.1400 
    111 CB        -5.1565  -26.1127  -51.9953 C.3       20 UNK        -0.1800 
    112 C         -4.6904  -25.1810  -54.3145 C.2       20 UNK         0.5000 
    113 O         -4.5881  -25.9098  -55.3018 O.2       20 UNK        -0.5000 
    114 N         -3.9311  -24.1087  -54.0969 N.am      21 UNK        -0.5000 
    115 CA        -2.9719  -23.5044  -55.0041 C.3       21 UNK         0.1400 
    116 CB        -1.5637  -24.0755  -54.7362 C.3       21 UNK        -0.1800 
    117 C         -3.1075  -21.9858  -54.8097 C.2       21 UNK         0.5000 
    118 O         -4.1593  -21.4324  -55.1353 O.2       21 UNK        -0.5000 
    119 N         -2.0759  -21.3410  -54.2552 N.am      22 UNK        -0.5000 
    120 CA        -2.0594  -19.9070  -53.9282 C.3       22 UNK         0.1400 
    121 C         -2.8166  -19.5091  -52.6258 C.2       22 UNK         0.5000 
    122 N         -3.3905  -20.4331  -51.8654 N.am      22 UNK        -0.7600 
    123 O         -2.9331  -18.3243  -52.3264 O.2       22 UNK        -0.5000 
    124 C124       -0.6237  -19.3290  -53.9801 C.3       23 UNK        -0.0398 
    125 S125        0.5402  -20.1138  -52.8142 S.3       23 UNK        -0.2404 
    126 C126        2.1112  -19.4112  -53.4059 C.3       23 UNK        -0.0205 
    127 H127        2.3488  -10.6406  -47.2045 H         1 UNK         0.0600 
    128 H128        2.1747  -11.8899  -48.4401 H         1 UNK         0.0600 
    129 H129        3.2197  -10.4972  -48.7359 H         1 UNK         0.0600 
    130 H130        3.3238  -13.7274  -47.9458 H         1 UNK         0.3000 
    131 H131        6.0882  -13.6647  -47.1356 H         1 UNK         0.0600 
    132 H132        5.9986  -16.1158  -47.2751 H         1 UNK         0.0800 
    133 H133        4.2625  -16.1072  -47.3778 H         1 UNK         0.0800 
    134 H134        2.9655  -15.9957  -49.2353 H         1 UNK         0.0800 
    135 H135        3.3550  -15.3433  -50.8007 H         1 UNK         0.0800 
    136 H136        2.3344  -17.0251  -52.1269 H         1 UNK         0.1150 
    137 H137        3.8733  -21.0185  -52.0999 H         1 UNK         0.1150 
    138 H138        5.1802  -18.2086  -49.1414 H         1 UNK         0.1150 
    139 H139        5.8323  -21.5131  -50.6844 H         1 UNK         0.0800 
    140 H140        6.4118  -20.3410  -49.5301 H         1 UNK         0.0800 
    141 H141        2.7541  -21.8786  -50.0578 H         1 UNK         0.0800 
    142 H142        3.8609  -23.2227  -50.2450 H         1 UNK         0.0800 
    143 H143        3.0821  -24.1712  -48.0672 H         1 UNK         0.0600 
    144 H144        1.8051  -21.6237  -47.7364 H         1 UNK         0.3000 
    145 H145       -0.6915  -22.4595  -45.5576 H         1 UNK         0.0600 
    146 H146        0.3361  -21.1618  -43.7161 H         1 UNK         0.0600 
    147 H147        1.0287  -22.7715  -43.7941 H         1 UNK         0.0600 
    148 H148        1.9400  -21.4018  -44.4159 H         1 UNK         0.0600 
    149 H149        0.5109  -19.9334  -45.8917 H         1 UNK         0.3000 
    150 H150        0.0214  -19.0580  -48.9953 H         1 UNK         0.0600 
    151 H151       -2.3948  -19.4229  -49.2647 H         1 UNK         0.0600 
    152 H152       -2.1038  -17.7338  -48.8948 H         1 UNK         0.0600 
    153 H153       -2.7111  -18.8171  -47.6417 H         1 UNK         0.0600 
    154 H154       -0.8197  -17.5693  -46.6405 H         1 UNK         0.3000 
    155 H155        2.5240  -16.6761  -45.6935 H         1 UNK         0.0600 
    156 H156        1.3500  -14.4729  -45.7375 H         1 UNK         0.0600 
    157 H157        0.0790  -15.1538  -46.7456 H         1 UNK         0.0600 
    158 H158        1.7144  -15.0220  -47.3685 H         1 UNK         0.0600 
    159 H159        0.0074  -16.1885  -44.4581 H         1 UNK         0.3000 
    160 H160       -0.0085  -19.0678  -42.3352 H         1 UNK         0.0600 
    161 H161        0.4569  -16.1037  -41.7107 H         1 UNK         0.0600 
    162 H162        1.5030  -17.4253  -41.2102 H         1 UNK         0.0600 
    163 H163       -0.1389  -17.3269  -40.5933 H         1 UNK         0.0600 
    164 H164       -1.6726  -16.7117  -42.7525 H         1 UNK         0.3000 
    165 H165       -3.9462  -18.2861  -44.9677 H         1 UNK         0.0600 
    166 H166       -4.3157  -17.5499  -42.0116 H         1 UNK         0.0600 
    167 H167       -5.5961  -17.6953  -43.2178 H         1 UNK         0.0600 
    168 H168       -4.6890  -19.1149  -42.7241 H         1 UNK         0.0600 
    169 H169       -3.9509  -15.7427  -43.6540 H         1 UNK         0.3000 
    170 H170       -1.9762  -14.0004  -46.0591 H         1 UNK         0.0600 
    171 H171       -4.2476  -14.1696  -47.0850 H         1 UNK         0.0600 
    172 H172       -4.9908  -13.9433  -45.5063 H         1 UNK         0.0600 
    173 H173       -4.0400  -12.6481  -46.2343 H         1 UNK         0.0600 
    174 H174       -3.3738  -13.0094  -43.8304 H         1 UNK         0.3000 
    175 H175       -2.1716  -12.1332  -42.1453 H         1 UNK         0.0600 
    176 H176       -2.1181  -13.3364  -39.9453 H         1 UNK         0.0600 
    177 H177       -3.1500  -14.1789  -41.0901 H         1 UNK         0.0600 
    178 H178       -1.5394  -14.7977  -40.7409 H         1 UNK         0.0600 
    179 H179        0.5070  -13.3961  -41.8680 H         1 UNK         0.3000 
    180 H180        2.0630  -10.3257  -41.7230 H         1 UNK         0.0600 
    181 H181        3.1336  -10.8384  -39.5426 H         1 UNK         0.0600 
    182 H182        1.5066  -10.2296  -39.2911 H         1 UNK         0.0600 
    183 H183        1.8271  -11.9524  -39.1350 H         1 UNK         0.0600 
    184 H184        3.0678  -12.9069  -41.0250 H         1 UNK         0.3000 
    185 H185        4.7174  -13.5834  -42.8175 H         1 UNK         0.0600 
    186 H186        3.7584  -15.9529  -43.1813 H         1 UNK         0.0600 
    187 H187        3.1288  -15.1467  -41.7546 H         1 UNK         0.0600 
    188 H188        2.1550  -15.2215  -43.2142 H         1 UNK         0.0600 
    189 H189        3.3114  -13.2842  -45.2961 H         1 UNK         0.3000 
    190 H190       -0.0263  -22.8575  -49.1068 H         1 UNK         0.3000 
    191 H191       -0.5352  -25.0453  -51.0348 H         1 UNK         0.0600 
    192 H192       -1.3112  -22.6754  -51.5217 H         1 UNK         0.0600 
    193 H193       -2.3488  -22.7513  -50.1012 H         1 UNK         0.0600 
    194 H194       -2.6237  -23.8428  -51.4507 H         1 UNK         0.0600 
    195 H195       -2.0274  -26.6729  -50.5592 H         1 UNK         0.3000 
    196 H196       -2.0014  -27.7018  -47.9878 H         1 UNK         0.0600 
    197 H197       -3.5265  -29.4418  -48.9296 H         1 UNK         0.0600 
    198 H198       -2.2292  -29.0602  -50.0486 H         1 UNK         0.0600 
    199 H199       -3.8505  -28.4211  -50.3241 H         1 UNK         0.0600 
    200 H200       -4.4340  -25.5741  -49.3505 H         1 UNK         0.3000 
    201 H201       -6.4771  -26.1105  -47.3353 H         1 UNK         0.0600 
    202 H202       -7.1393  -25.3968  -49.5978 H         1 UNK         0.0600 
    203 H203       -6.1671  -23.9301  -49.4565 H         1 UNK         0.0600 
    204 H204       -7.5957  -24.1493  -48.4521 H         1 UNK         0.0600 
    205 H205       -3.6322  -24.1154  -47.5114 H         1 UNK         0.3000 
    206 H206       -2.7899  -22.3876  -46.4465 H         1 UNK         0.0600 
    207 H207       -2.7248  -24.0715  -44.6166 H         1 UNK         0.0600 
    208 H208       -2.8985  -22.4473  -43.9694 H         1 UNK         0.0600 
    209 H209       -4.2933  -23.5191  -44.0278 H         1 UNK         0.0600 
    210 H210       -4.6619  -21.4069  -48.0040 H         1 UNK         0.3000 
    211 H211       -5.6097  -19.0340  -46.6469 H         1 UNK         0.0600 
    212 H212       -7.5927  -21.0130  -47.9213 H         1 UNK         0.0600 
    213 H213       -7.9858  -19.3586  -47.4679 H         1 UNK         0.0600 
    214 H214       -7.5541  -20.5283  -46.2306 H         1 UNK         0.0600 
    215 H215       -6.2510  -17.4179  -48.2046 H         1 UNK         0.3000 
    216 H216       -4.5174  -17.3475  -50.4508 H         1 UNK         0.0600 
    217 H217       -5.5910  -15.1255  -50.8437 H         1 UNK         0.0600 
    218 H218       -5.1124  -15.3306  -49.1663 H         1 UNK         0.0600 
    219 H219       -6.8085  -15.4900  -49.6266 H         1 UNK         0.0600 
    220 H220       -4.7830  -18.0653  -52.4224 H         1 UNK         0.3000 
    221 H221       -5.5210  -18.8977  -54.3180 H         1 UNK         0.0600 
    222 H222       -8.0604  -17.2375  -53.8949 H         1 UNK         0.0600 
    223 H223       -6.5522  -16.6325  -54.5791 H         1 UNK         0.0600 
    224 H224       -7.4671  -17.8677  -55.4257 H         1 UNK         0.0600 
    225 H225       -5.8945  -20.5572  -52.0525 H         1 UNK         0.3000 
    226 H226       -8.1427  -22.3049  -52.9484 H         1 UNK         0.0600 
    227 H227       -8.6788  -21.2123  -50.7448 H         1 UNK         0.0600 
    228 H228       -8.4299  -22.9436  -50.5724 H         1 UNK         0.0600 
    229 H229       -7.1630  -21.8181  -50.0844 H         1 UNK         0.0600 
    230 H230       -7.5659  -24.3801  -53.2388 H         1 UNK         0.3000 
    231 H231       -6.4486  -26.2019  -53.6924 H         1 UNK         0.0600 
    232 H232       -4.5486  -26.9775  -52.2633 H         1 UNK         0.0600 
    233 H233       -5.9315  -26.4649  -51.3161 H         1 UNK         0.0600 
    234 H234       -4.5147  -25.4222  -51.4500 H         1 UNK         0.0600 
    235 H235       -4.1696  -23.5552  -53.2758 H         1 UNK         0.3000 
    236 H236       -3.2505  -23.7212  -56.0374 H         1 UNK         0.0600 
    237 H237       -1.2488  -23.9311  -53.7029 H         1 UNK         0.0600 
    238 H238       -1.5376  -25.1465  -54.9374 H         1 UNK         0.0600 
    239 H239       -0.8199  -23.6106  -55.3845 H         1 UNK         0.0600 
    240 H240       -1.2512  -21.8599  -53.9911 H         1 UNK         0.3000 
    241 H241       -2.6106  -19.3975  -54.7209 H         1 UNK         0.0600 
    242 H242       -3.8801  -20.1646  -51.0149 H         1 UNK         0.3800 
    243 H243       -3.3640  -21.4087  -52.1126 H         1 UNK         0.3800 
    244 H244       -0.2286  -19.4491  -54.9899 H         1 UNK         0.0800 
    245 H245       -0.6351  -18.2537  -53.7931 H         1 UNK         0.0800 
    246 H246        1.9285  -18.5199  -54.0083 H         1 UNK         0.0800 
    247 H247        2.6040  -20.1295  -54.0628 H         1 UNK         0.0800 
@<TRIPOS>BOND
     1    1    2 1    
     2    1  127 1    
     3    1  128 1    
     4    1  129 1    
     5    2    3 2    
     6    2    4 am   BACKBONE|DICT|INTERRES
     7    4    5 1    
     8    4  130 1    
     9    5    6 1    
    10    5   65 1    
    11    5  131 1    
    12    6    7 1    
    13    6  132 1    
    14    6  133 1    
    15    7    8 1    
    16    8    9 1    
    17    8  134 1    
    18    8  135 1    
    19    9   10 ar   
    20    9   14 ar   
    21   10   11 ar   
    22   10  136 1    
    23   11   12 ar   
    24   11  126 1    
    25   12   13 ar   
    26   12  137 1    
    27   13   14 ar   
    28   13   15 1    
    29   14  138 1    
    30   15   16 1    
    31   15  139 1    
    32   15  140 1    
    33   16   17 1    
    34   17   18 1    
    35   17  141 1    
    36   17  142 1    
    37   18   19 1    
    38   18   67 1    
    39   18  143 1    
    40   19   20 am   BACKBONE|DICT|INTERRES
    41   19  144 1    
    42   20   21 2    
    43   20   22 1    
    44   22   23 1    
    45   22   24 1    
    46   22  145 1    
    47   23  146 1    
    48   23  147 1    
    49   23  148 1    
    50   24   25 am   BACKBONE|DICT|INTERRES
    51   24  149 1    
    52   25   26 2    
    53   25   27 1    
    54   27   28 1    
    55   27   29 1    
    56   27  150 1    
    57   28  151 1    
    58   28  152 1    
    59   28  153 1    
    60   29   30 am   BACKBONE|DICT|INTERRES
    61   29  154 1    
    62   30   31 2    
    63   30   32 1    
    64   32   33 1    
    65   32   34 1    
    66   32  155 1    
    67   33  156 1    
    68   33  157 1    
    69   33  158 1    
    70   34   35 am   BACKBONE|DICT|INTERRES
    71   34  159 1    
    72   35   36 2    
    73   35   37 1    
    74   37   38 1    
    75   37   39 1    
    76   37  160 1    
    77   38  161 1    
    78   38  162 1    
    79   38  163 1    
    80   39   40 am   BACKBONE|DICT|INTERRES
    81   39  164 1    
    82   40   41 2    
    83   40   42 1    
    84   42   43 1    
    85   42   44 1    
    86   42  165 1    
    87   43  166 1    
    88   43  167 1    
    89   43  168 1    
    90   44   45 am   BACKBONE|DICT|INTERRES
    91   44  169 1    
    92   45   46 2    
    93   45   47 1    
    94   47   48 1    
    95   47   49 1    
    96   47  170 1    
    97   48  171 1    
    98   48  172 1    
    99   48  173 1    
   100   49   50 am   BACKBONE|DICT|INTERRES
   101   49  174 1    
   102   50   51 2    
   103   50   52 1    
   104   52   53 1    
   105   52   54 1    
   106   52  175 1    
   107   53  176 1    
   108   53  177 1    
   109   53  178 1    
   110   54   55 am   BACKBONE|DICT|INTERRES
   111   54  179 1    
   112   55   56 2    
   113   55   57 1    
   114   57   58 1    
   115   57   59 1    
   116   57  180 1    
   117   58  181 1    
   118   58  182 1    
   119   58  183 1    
   120   59   60 am   BACKBONE|DICT|INTERRES
   121   59  184 1    
   122   60   61 2    
   123   60   62 1    
   124   62   63 1    
   125   62   64 1    
   126   62  185 1    
   127   63  186 1    
   128   63  187 1    
   129   63  188 1    
   130   64   65 am   BACKBONE|DICT|INTERRES
   131   64  189 1    
   132   65   66 2    
   133   67   68 2    
   134   67   69 am   BACKBONE|DICT|INTERRES
   135   69   70 1    
   136   69  190 1    
   137   70   71 1    
   138   70   72 1    
   139   70  191 1    
   140   71  192 1    
   141   71  193 1    
   142   71  194 1    
   143   72   73 2    
   144   72   74 am   BACKBONE|DICT|INTERRES
   145   74   75 1    
   146   74  195 1    
   147   75   76 1    
   148   75   77 1    
   149   75  196 1    
   150   76  197 1    
   151   76  198 1    
   152   76  199 1    
   153   77   78 2    
   154   77   79 am   BACKBONE|DICT|INTERRES
   155   79   80 1    
   156   79  200 1    
   157   80   81 1    
   158   80   82 1    
   159   80  201 1    
   160   81  202 1    
   161   81  203 1    
   162   81  204 1    
   163   82   83 2    
   164   82   84 am   BACKBONE|DICT|INTERRES
   165   84   85 1    
   166   84  205 1    
   167   85   86 1    
   168   85   87 1    
   169   85  206 1    
   170   86  207 1    
   171   86  208 1    
   172   86  209 1    
   173   87   88 2    
   174   87   89 am   BACKBONE|DICT|INTERRES
   175   89   90 1    
   176   89  210 1    
   177   90   91 1    
   178   90   92 1    
   179   90  211 1    
   180   91  212 1    
   181   91  213 1    
   182   91  214 1    
   183   92   93 2    
   184   92   94 am   BACKBONE|DICT|INTERRES
   185   94   95 1    
   186   94  215 1    
   187   95   96 1    
   188   95   97 1    
   189   95  216 1    
   190   96  217 1    
   191   96  218 1    
   192   96  219 1    
   193   97   98 2    
   194   97   99 am   BACKBONE|DICT|INTERRES
   195   99  100 1    
   196   99  220 1    
   197  100  101 1    
   198  100  102 1    
   199  100  221 1    
   200  101  222 1    
   201  101  223 1    
   202  101  224 1    
   203  102  103 2    
   204  102  104 am   BACKBONE|DICT|INTERRES
   205  104  105 1    
   206  104  225 1    
   207  105  106 1    
   208  105  107 1    
   209  105  226 1    
   210  106  227 1    
   211  106  228 1    
   212  106  229 1    
   213  107  108 2    
   214  107  109 am   BACKBONE|DICT|INTERRES
   215  109  110 1    
   216  109  230 1    
   217  110  111 1    
   218  110  112 1    
   219  110  231 1    
   220  111  232 1    
   221  111  233 1    
   222  111  234 1    
   223  112  113 2    
   224  112  114 am   BACKBONE|DICT|INTERRES
   225  114  115 1    
   226  114  235 1    
   227  115  116 1    
   228  115  117 1    
   229  115  236 1    
   230  116  237 1    
   231  116  238 1    
   232  116  239 1    
   233  117  118 2    
   234  117  119 am   BACKBONE|DICT|INTERRES
   235  119  120 1    
   236  119  240 1    
   237  120  121 1    
   238  120  124 1    
   239  120  241 1    
   240  121  122 am   BACKBONE|DICT|INTERRES
   241  121  123 2    
   242  122  242 1    
   243  122  243 1    
   244  124  125 1    
   245  124  244 1    
   246  124  245 1    
   247  125  126 1    
   248  126  246 1    
   249  126  247 1    
@<TRIPOS>SUBSTRUCTURE
     1 UNK         1 GROUP             0       ****    0 ROOT    
