@<TRIPOS>MOLECULE
3R540
247   249    1
SMALL
USER_CHARGES


@<TRIPOS>ATOM
      1 CA          8.3659  -12.1517  -47.7747 C.3       0 UNK        -0.1800 
      2 C           7.0917  -12.5013  -47.0184 C.2       0 UNK         0.5000 
      3 O           7.1094  -12.5745  -45.7891 O.2       0 UNK        -0.5000 
      4 N           5.9920  -12.7261  -47.7472 N.am      1 UNK        -0.5000 
      5 CA          4.6661  -13.0277  -47.1986 C.3       1 UNK         0.1400 
      6 C6          3.6886  -13.5198  -48.2934 C.3       23 UNK        -0.0398 
      7 S7          4.1817  -15.1232  -49.0030 S.3       23 UNK        -0.2404 
      8 C8          3.1923  -15.1275  -50.5293 C.3       23 UNK        -0.0205 
      9 C9          2.8351  -16.5428  -50.9542 C.ar      23 UNK        -0.0193 
     10 C10         3.4539  -17.1333  -52.0569 C.ar      23 UNK        -0.1150 
     11 C11         3.1024  -18.4257  -52.4564 C.ar      23 UNK        -0.0193 
     12 C12         2.1441  -19.1376  -51.7297 C.ar      23 UNK        -0.1150 
     13 C13         1.5117  -18.5587  -50.6219 C.ar      23 UNK        -0.0193 
     14 C14         1.8654  -17.2592  -50.2496 C.ar      23 UNK        -0.1150 
     15 C15         0.4335  -19.2714  -49.8041 C.3       23 UNK        -0.0205 
     16 S16        -0.3287  -20.7265  -50.5917 S.3       23 UNK        -0.2404 
     17 C17         0.7387  -22.0947  -50.0164 C.3       23 UNK        -0.0398 
     18 CA          0.2159  -22.8815  -48.7829 C.3       11 UNK         0.1400 
     19 N           0.4757  -22.1862  -47.5175 N.am      11 UNK        -0.5000 
     20 C           0.3638  -22.7527  -46.3071 C.2       10 UNK         0.5000 
     21 O          -0.0097  -23.9162  -46.1438 O.2       10 UNK        -0.5000 
     22 CA          0.6763  -21.8790  -45.0752 C.3       10 UNK         0.1400 
     23 CB          1.3696  -22.6786  -43.9535 C.3       10 UNK        -0.1800 
     24 N           1.4134  -20.6423  -45.3631 N.am      10 UNK        -0.5000 
     25 C           2.6657  -20.5078  -45.8265 C.2       9 UNK         0.5000 
     26 O           3.3692  -21.4507  -46.1882 O.2       9 UNK        -0.5000 
     27 CA          3.2350  -19.0755  -45.8841 C.3       9 UNK         0.1400 
     28 CB          3.4115  -18.5963  -47.3298 C.3       9 UNK        -0.1800 
     29 N           2.3938  -18.1164  -45.1620 N.am      9 UNK        -0.5000 
     30 C           2.5480  -17.8246  -43.8633 C.2       8 UNK         0.5000 
     31 O           3.4680  -18.2545  -43.1665 O.2       8 UNK        -0.5000 
     32 CA          1.4735  -16.9291  -43.2249 C.3       8 UNK         0.1400 
     33 CB          1.6830  -15.4582  -43.6136 C.3       8 UNK        -0.1800 
     34 N           0.1092  -17.3357  -43.5654 N.am      8 UNK        -0.5000 
     35 C          -0.4653  -18.4915  -43.2014 C.2       7 UNK         0.5000 
     36 O           0.1165  -19.3802  -42.5809 O.2       7 UNK        -0.5000 
     37 CA         -1.9358  -18.6970  -43.5973 C.3       7 UNK         0.1400 
     38 CB         -2.8634  -18.0665  -42.5473 C.3       7 UNK        -0.1800 
     39 N          -2.2335  -18.1135  -44.9018 N.am      7 UNK        -0.5000 
     40 C          -2.1709  -18.7695  -46.0671 C.2       6 UNK         0.5000 
     41 O          -1.8383  -19.9505  -46.1834 O.2       6 UNK        -0.5000 
     42 CA         -2.5272  -17.9511  -47.3217 C.3       6 UNK         0.1400 
     43 CB         -4.0531  -17.8262  -47.4686 C.3       6 UNK        -0.1800 
     44 N          -1.9601  -16.6028  -47.3291 N.am      6 UNK        -0.5000 
     45 C          -0.6713  -16.2743  -47.1724 C.2       5 UNK         0.5000 
     46 O           0.2433  -17.0827  -47.0035 O.2       5 UNK        -0.5000 
     47 CA         -0.3707  -14.7652  -47.1505 C.3       5 UNK         0.1400 
     48 CB         -0.3328  -14.2130  -48.5839 C.3       5 UNK        -0.1800 
     49 N          -1.3077  -13.9537  -46.3629 N.am      5 UNK        -0.5000 
     50 C          -1.7568  -14.1882  -45.1208 C.2       4 UNK         0.5000 
     51 O          -1.5274  -15.2245  -44.4955 O.2       4 UNK        -0.5000 
     52 CA         -2.5769  -13.0581  -44.4635 C.3       4 UNK         0.1400 
     53 CB         -2.8513  -13.3239  -42.9719 C.3       4 UNK        -0.1800 
     54 N          -1.8861  -11.7737  -44.5920 N.am      4 UNK        -0.5000 
     55 C          -2.0111  -10.9196  -45.6167 C.2       3 UNK         0.5000 
     56 O          -2.7915  -11.0903  -46.5534 O.2       3 UNK        -0.5000 
     57 CA         -1.0592   -9.7055  -45.6263 C.3       3 UNK         0.1400 
     58 CB         -1.6889   -8.5202  -44.8791 C.3       3 UNK        -0.1800 
     59 N           0.2614   -9.9937  -45.0529 N.am      3 UNK        -0.5000 
     60 C           1.1229  -10.8969  -45.5421 C.2       2 UNK         0.5000 
     61 O           0.8984  -11.5681  -46.5523 O.2       2 UNK        -0.5000 
     62 CA          2.4285  -11.1048  -44.7455 C.3       2 UNK         0.1400 
     63 CB          2.1289  -11.6170  -43.3260 C.3       2 UNK        -0.1800 
     64 N           3.3005  -12.0731  -45.4113 N.am      2 UNK        -0.5000 
     65 C           4.0615  -11.8043  -46.4789 C.2       1 UNK         0.5000 
     66 O           4.2475  -10.6683  -46.9247 O.2       1 UNK        -0.5000 
     67 C          -1.2616  -23.3156  -48.9116 C.2       11 UNK         0.5000 
     68 O          -1.5369  -24.3970  -49.4301 O.2       11 UNK        -0.5000 
     69 N          -2.1777  -22.4859  -48.3891 N.am      12 UNK        -0.5000 
     70 CA         -3.6101  -22.7578  -48.3590 C.3       12 UNK         0.1400 
     71 CB         -4.3659  -21.4830  -47.9782 C.3       12 UNK        -0.1800 
     72 C          -3.9650  -23.8839  -47.3822 C.2       12 UNK         0.5000 
     73 O          -4.8393  -24.6898  -47.6939 O.2       12 UNK        -0.5000 
     74 N          -3.2747  -23.9264  -46.2343 N.am      13 UNK        -0.5000 
     75 CA         -3.4222  -24.9637  -45.2143 C.3       13 UNK         0.1400 
     76 CB         -2.7030  -24.5338  -43.9267 C.3       13 UNK        -0.1800 
     77 C          -2.9092  -26.3239  -45.7141 C.2       13 UNK         0.5000 
     78 O          -3.5943  -27.3315  -45.5379 O.2       13 UNK        -0.5000 
     79 N          -1.7532  -26.3151  -46.3946 N.am      14 UNK        -0.5000 
     80 CA         -1.1731  -27.4774  -47.0741 C.3       14 UNK         0.1400 
     81 CB          0.2164  -27.1054  -47.6127 C.3       14 UNK        -0.1800 
     82 C          -2.0690  -28.0248  -48.2048 C.2       14 UNK         0.5000 
     83 O          -2.1104  -29.2364  -48.4188 O.2       14 UNK        -0.5000 
     84 N          -2.8019  -27.1248  -48.8725 N.am      15 UNK        -0.5000 
     85 CA         -3.7977  -27.4216  -49.9027 C.3       15 UNK         0.1400 
     86 CB         -3.8453  -26.2391  -50.8826 C.3       15 UNK        -0.1800 
     87 C          -5.1995  -27.7506  -49.3366 C.2       15 UNK         0.5000 
     88 O          -6.1461  -27.8523  -50.1175 O.2       15 UNK        -0.5000 
     89 N          -5.3137  -27.9261  -48.0106 N.am      16 UNK        -0.5000 
     90 CA         -6.5151  -28.3048  -47.2588 C.3       16 UNK         0.1400 
     91 CB         -7.0233  -29.7002  -47.6813 C.3       16 UNK        -0.1800 
     92 C          -7.6109  -27.2190  -47.2777 C.2       16 UNK         0.5000 
     93 O          -8.7694  -27.5048  -47.5857 O.2       16 UNK        -0.5000 
     94 N          -7.2085  -25.9933  -46.9163 N.am      17 UNK        -0.5000 
     95 CA         -8.0168  -24.7767  -46.7834 C.3       17 UNK         0.1400 
     96 CB         -9.1296  -24.9476  -45.7275 C.3       17 UNK        -0.1800 
     97 C          -8.5267  -24.2566  -48.1411 C.2       17 UNK         0.5000 
     98 O          -9.6983  -23.8990  -48.2752 O.2       17 UNK        -0.5000 
     99 N          -7.6216  -24.2160  -49.1281 N.am      18 UNK        -0.5000 
    100 CA        -7.9064  -23.7672  -50.4955 C.3       18 UNK         0.1400 
    101 CB        -6.8031  -24.2891  -51.4268 C.3       18 UNK        -0.1800 
    102 C         -8.0353  -22.2368  -50.6439 C.2       18 UNK         0.5000 
    103 O         -8.5731  -21.7778  -51.6518 O.2       18 UNK        -0.5000 
    104 N         -7.5106  -21.4826  -49.6642 N.am      19 UNK        -0.5000 
    105 CA        -7.4142  -20.0137  -49.6166 C.3       19 UNK         0.1400 
    106 CB        -8.8155  -19.3727  -49.5399 C.3       19 UNK        -0.1800 
    107 C         -6.5381  -19.4121  -50.7418 C.2       19 UNK         0.5000 
    108 O         -6.7428  -18.2646  -51.1418 O.2       19 UNK        -0.5000 
    109 N         -5.5804  -20.2064  -51.2351 N.am      20 UNK        -0.5000 
    110 CA        -4.6393  -19.8488  -52.2927 C.3       20 UNK         0.1400 
    111 CB        -4.0777  -21.1528  -52.8845 C.3       20 UNK        -0.1800 
    112 C         -3.4887  -18.9616  -51.7822 C.2       20 UNK         0.5000 
    113 O         -3.1965  -18.9538  -50.5857 O.2       20 UNK        -0.5000 
    114 N         -2.8252  -18.2828  -52.7229 N.am      21 UNK        -0.5000 
    115 CA        -1.5587  -17.5736  -52.5665 C.3       21 UNK         0.1400 
    116 CB        -1.7234  -16.3003  -51.7142 C.3       21 UNK        -0.1800 
    117 C         -1.0320  -17.2465  -53.9716 C.2       21 UNK         0.5000 
    118 O         -1.8343  -17.1272  -54.9027 O.2       21 UNK        -0.5000 
    119 N          0.2922  -17.1069  -54.1110 N.am      22 UNK        -0.5000 
    120 CA         0.9509  -16.7842  -55.3931 C.3       22 UNK         0.1400 
    121 C          0.8510  -15.2868  -55.8134 C.2       22 UNK         0.5000 
    122 N          0.3772  -14.3825  -54.9647 N.am      22 UNK        -0.7600 
    123 O          1.2042  -14.9393  -56.9371 O.2       22 UNK        -0.5000 
    124 C124        2.4241  -17.2683  -55.4531 C.3       23 UNK        -0.0398 
    125 S125        2.6158  -19.0539  -55.1137 S.3       23 UNK        -0.2404 
    126 C126        3.7453  -19.0518  -53.6835 C.3       23 UNK        -0.0205 
    127 H127        8.7255  -11.1690  -47.4696 H         1 UNK         0.0600 
    128 H128        9.1441  -12.8835  -47.5577 H         1 UNK         0.0600 
    129 H129        8.2060  -12.1355  -48.8532 H         1 UNK         0.0600 
    130 H130        6.0388  -12.6438  -48.7523 H         1 UNK         0.3000 
    131 H131        4.7869  -13.8264  -46.4629 H         1 UNK         0.0600 
    132 H132        3.6073  -12.7801  -49.0924 H         1 UNK         0.0800 
    133 H133        2.6825  -13.6427  -47.8874 H         1 UNK         0.0800 
    134 H134        2.2748  -14.5573  -50.3861 H         1 UNK         0.0800 
    135 H135        3.7487  -14.6139  -51.3148 H         1 UNK         0.0800 
    136 H136        4.2019  -16.5826  -52.6099 H         1 UNK         0.1150 
    137 H137        1.8896  -20.1370  -52.0503 H         1 UNK         0.1150 
    138 H138        1.3923  -16.8052  -49.3922 H         1 UNK         0.1150 
    139 H139        0.8273  -19.5501  -48.8285 H         1 UNK         0.0800 
    140 H140       -0.3682  -18.5577  -49.6143 H         1 UNK         0.0800 
    141 H141        1.7463  -21.7203  -49.8296 H         1 UNK         0.0800 
    142 H142        0.8412  -22.7844  -50.8556 H         1 UNK         0.0800 
    143 H143        0.7979  -23.8048  -48.7396 H         1 UNK         0.0600 
    144 H144        0.7641  -21.2219  -47.5688 H         1 UNK         0.3000 
    145 H145       -0.2926  -21.5627  -44.6878 H         1 UNK         0.0600 
    146 H146        1.5546  -22.0512  -43.0813 H         1 UNK         0.0600 
    147 H147        0.7501  -23.5131  -43.6233 H         1 UNK         0.0600 
    148 H148        2.3243  -23.0914  -44.2803 H         1 UNK         0.0600 
    149 H149        0.9332  -19.7928  -45.1046 H         1 UNK         0.3000 
    150 H150        4.2282  -19.1143  -45.4317 H         1 UNK         0.0600 
    151 H151        3.9372  -19.3326  -47.9391 H         1 UNK         0.0600 
    152 H152        3.9896  -17.6735  -47.3646 H         1 UNK         0.0600 
    153 H153        2.4517  -18.3992  -47.7982 H         1 UNK         0.0600 
    154 H154        1.6180  -17.7111  -45.6790 H         1 UNK         0.3000 
    155 H155        1.5785  -17.0079  -42.1408 H         1 UNK         0.0600 
    156 H156        2.6767  -15.1141  -43.3243 H         1 UNK         0.0600 
    157 H157        0.9565  -14.8182  -43.1132 H         1 UNK         0.0600 
    158 H158        1.5802  -15.3069  -44.6875 H         1 UNK         0.0600 
    159 H159       -0.4638  -16.6375  -44.0336 H         1 UNK         0.3000 
    160 H160       -2.1322  -19.7713  -43.6215 H         1 UNK         0.0600 
    161 H161       -3.9108  -18.2505  -42.7871 H         1 UNK         0.0600 
    162 H162       -2.7203  -16.9871  -42.4782 H         1 UNK         0.0600 
    163 H163       -2.6774  -18.4873  -41.5583 H         1 UNK         0.0600 
    164 H164       -2.4278  -17.1198  -44.9150 H         1 UNK         0.3000 
    165 H165       -2.1390  -18.4918  -48.1844 H         1 UNK         0.0600 
    166 H166       -4.3200  -17.4202  -48.4447 H         1 UNK         0.0600 
    167 H167       -4.5484  -18.7906  -47.3758 H         1 UNK         0.0600 
    168 H168       -4.4792  -17.1738  -46.7054 H         1 UNK         0.0600 
    169 H169       -2.6195  -15.8474  -47.4422 H         1 UNK         0.3000 
    170 H170        0.6190  -14.6349  -46.7115 H         1 UNK         0.0600 
    171 H171        0.3127  -14.8124  -49.2224 H         1 UNK         0.0600 
    172 H172       -1.3234  -14.2079  -49.0401 H         1 UNK         0.0600 
    173 H173        0.0496  -13.1925  -48.6045 H         1 UNK         0.0600 
    174 H174       -1.5517  -13.0606  -46.7701 H         1 UNK         0.3000 
    175 H175       -3.5392  -13.0140  -44.9773 H         1 UNK         0.0600 
    176 H176       -3.4430  -12.5214  -42.5312 H         1 UNK         0.0600 
    177 H177       -3.4108  -14.2502  -42.8349 H         1 UNK         0.0600 
    178 H178       -1.9258  -13.4112  -42.4011 H         1 UNK         0.0600 
    179 H179       -1.1927  -11.5681  -43.8881 H         1 UNK         0.3000 
    180 H180       -0.9123   -9.4129  -46.6681 H         1 UNK         0.0600 
    181 H181       -1.8341   -8.7417  -43.8210 H         1 UNK         0.0600 
    182 H182       -2.6638   -8.2679  -45.2984 H         1 UNK         0.0600 
    183 H183       -1.0647   -7.6296  -44.9540 H         1 UNK         0.0600 
    184 H184        0.5130   -9.4749  -44.2238 H         1 UNK         0.3000 
    185 H185        2.9456  -10.1457  -44.6733 H         1 UNK         0.0600 
    186 H186        1.5929  -10.8704  -42.7394 H         1 UNK         0.0600 
    187 H187        1.5167  -12.5183  -43.3446 H         1 UNK         0.0600 
    188 H188        3.0478  -11.8465  -42.7858 H         1 UNK         0.0600 
    189 H189        3.1837  -13.0342  -45.1285 H         1 UNK         0.3000 
    190 H190       -1.8662  -21.6219  -47.9651 H         1 UNK         0.3000 
    191 H191       -3.9261  -23.0615  -49.3590 H         1 UNK         0.0600 
    192 H192       -4.0598  -21.1154  -46.9991 H         1 UNK         0.0600 
    193 H193       -5.4376  -21.6648  -47.9252 H         1 UNK         0.0600 
    194 H194       -4.1927  -20.6940  -48.7090 H         1 UNK         0.0600 
    195 H195       -2.5527  -23.2380  -46.0821 H         1 UNK         0.3000 
    196 H196       -4.4857  -25.0686  -44.9891 H         1 UNK         0.0600 
    197 H197       -1.6302  -24.4164  -44.0783 H         1 UNK         0.0600 
    198 H198       -2.8418  -25.2753  -43.1391 H         1 UNK         0.0600 
    199 H199       -3.0942  -23.5870  -43.5539 H         1 UNK         0.0600 
    200 H200       -1.2324  -25.4449  -46.4570 H         1 UNK         0.3000 
    201 H201       -1.0528  -28.2703  -46.3332 H         1 UNK         0.0600 
    202 H202        0.1599  -26.3086  -48.3546 H         1 UNK         0.0600 
    203 H203        0.6941  -27.9634  -48.0872 H         1 UNK         0.0600 
    204 H204        0.8732  -26.7684  -46.8104 H         1 UNK         0.0600 
    205 H205       -2.6590  -26.1441  -48.6651 H         1 UNK         0.3000 
    206 H206       -3.4728  -28.3009  -50.4622 H         1 UNK         0.0600 
    207 H207       -2.8652  -26.0536  -51.3222 H         1 UNK         0.0600 
    208 H208       -4.5344  -26.4302  -51.7057 H         1 UNK         0.0600 
    209 H209       -4.1629  -25.3250  -50.3830 H         1 UNK         0.0600 
    210 H210       -4.4859  -27.7846  -47.4445 H         1 UNK         0.3000 
    211 H211       -6.1978  -28.3863  -46.2181 H         1 UNK         0.0600 
    212 H212       -7.4124  -29.7039  -48.6997 H         1 UNK         0.0600 
    213 H213       -7.8280  -30.0349  -47.0258 H         1 UNK         0.0600 
    214 H214       -6.2280  -30.4433  -47.6229 H         1 UNK         0.0600 
    215 H215       -6.2098  -25.8427  -46.8213 H         1 UNK         0.3000 
    216 H216       -7.3380  -24.0094  -46.4081 H         1 UNK         0.0600 
    217 H217       -8.7231  -25.3019  -44.7802 H         1 UNK         0.0600 
    218 H218       -9.6275  -23.9975  -45.5309 H         1 UNK         0.0600 
    219 H219       -9.8951  -25.6537  -46.0499 H         1 UNK         0.0600 
    220 H220       -6.6852  -24.5482  -48.9315 H         1 UNK         0.3000 
    221 H221       -8.8540  -24.2080  -50.8126 H         1 UNK         0.0600 
    222 H222       -5.8308  -23.8659  -51.1743 H         1 UNK         0.0600 
    223 H223       -6.7287  -25.3751  -51.3754 H         1 UNK         0.0600 
    224 H224       -7.0116  -24.0296  -52.4656 H         1 UNK         0.0600 
    225 H225       -7.1195  -21.9727  -48.8742 H         1 UNK         0.3000 
    226 H226       -6.9005  -19.7731  -48.6850 H         1 UNK         0.0600 
    227 H227       -9.4062  -19.8118  -48.7358 H         1 UNK         0.0600 
    228 H228       -8.7463  -18.3024  -49.3423 H         1 UNK         0.0600 
    229 H229       -9.3703  -19.4968  -50.4702 H         1 UNK         0.0600 
    230 H230       -5.4652  -21.1202  -50.8282 H         1 UNK         0.3000 
    231 H231       -5.1781  -19.3090  -53.0745 H         1 UNK         0.0600 
    232 H232       -4.8760  -21.7919  -53.2628 H         1 UNK         0.0600 
    233 H233       -3.5155  -21.7213  -52.1417 H         1 UNK         0.0600 
    234 H234       -3.4042  -20.9497  -53.7180 H         1 UNK         0.0600 
    235 H235       -3.1327  -18.3280  -53.6871 H         1 UNK         0.3000 
    236 H236       -0.8482  -18.2455  -52.0892 H         1 UNK         0.0600 
    237 H237       -0.7808  -15.7574  -51.6367 H         1 UNK         0.0600 
    238 H238       -2.4618  -15.6232  -52.1448 H         1 UNK         0.0600 
    239 H239       -2.0374  -16.5367  -50.6974 H         1 UNK         0.0600 
    240 H240        0.9018  -17.2401  -53.3163 H         1 UNK         0.3000 
    241 H241        0.4187  -17.3329  -56.1729 H         1 UNK         0.0600 
    242 H242        0.3135  -13.4186  -55.2527 H         1 UNK         0.3800 
    243 H243        0.0776  -14.6512  -54.0422 H         1 UNK         0.3800 
    244 H244        2.8368  -17.0900  -56.4477 H         1 UNK         0.0800 
    245 H245        3.0431  -16.6853  -54.7716 H         1 UNK         0.0800 
    246 H246        4.0303  -20.0801  -53.4565 H         1 UNK         0.0800 
    247 H247        4.6672  -18.5317  -53.9488 H         1 UNK         0.0800 
@<TRIPOS>BOND
     1    1    2 1    
     2    1  127 1    
     3    1  128 1    
     4    1  129 1    
     5    2    3 2    
     6    2    4 am   BACKBONE|DICT|INTERRES
     7    4    5 1    
     8    4  130 1    
     9    5    6 1    
    10    5   65 1    
    11    5  131 1    
    12    6    7 1    
    13    6  132 1    
    14    6  133 1    
    15    7    8 1    
    16    8    9 1    
    17    8  134 1    
    18    8  135 1    
    19    9   10 ar   
    20    9   14 ar   
    21   10   11 ar   
    22   10  136 1    
    23   11   12 ar   
    24   11  126 1    
    25   12   13 ar   
    26   12  137 1    
    27   13   14 ar   
    28   13   15 1    
    29   14  138 1    
    30   15   16 1    
    31   15  139 1    
    32   15  140 1    
    33   16   17 1    
    34   17   18 1    
    35   17  141 1    
    36   17  142 1    
    37   18   19 1    
    38   18   67 1    
    39   18  143 1    
    40   19   20 am   BACKBONE|DICT|INTERRES
    41   19  144 1    
    42   20   21 2    
    43   20   22 1    
    44   22   23 1    
    45   22   24 1    
    46   22  145 1    
    47   23  146 1    
    48   23  147 1    
    49   23  148 1    
    50   24   25 am   BACKBONE|DICT|INTERRES
    51   24  149 1    
    52   25   26 2    
    53   25   27 1    
    54   27   28 1    
    55   27   29 1    
    56   27  150 1    
    57   28  151 1    
    58   28  152 1    
    59   28  153 1    
    60   29   30 am   BACKBONE|DICT|INTERRES
    61   29  154 1    
    62   30   31 2    
    63   30   32 1    
    64   32   33 1    
    65   32   34 1    
    66   32  155 1    
    67   33  156 1    
    68   33  157 1    
    69   33  158 1    
    70   34   35 am   BACKBONE|DICT|INTERRES
    71   34  159 1    
    72   35   36 2    
    73   35   37 1    
    74   37   38 1    
    75   37   39 1    
    76   37  160 1    
    77   38  161 1    
    78   38  162 1    
    79   38  163 1    
    80   39   40 am   BACKBONE|DICT|INTERRES
    81   39  164 1    
    82   40   41 2    
    83   40   42 1    
    84   42   43 1    
    85   42   44 1    
    86   42  165 1    
    87   43  166 1    
    88   43  167 1    
    89   43  168 1    
    90   44   45 am   BACKBONE|DICT|INTERRES
    91   44  169 1    
    92   45   46 2    
    93   45   47 1    
    94   47   48 1    
    95   47   49 1    
    96   47  170 1    
    97   48  171 1    
    98   48  172 1    
    99   48  173 1    
   100   49   50 am   BACKBONE|DICT|INTERRES
   101   49  174 1    
   102   50   51 2    
   103   50   52 1    
   104   52   53 1    
   105   52   54 1    
   106   52  175 1    
   107   53  176 1    
   108   53  177 1    
   109   53  178 1    
   110   54   55 am   BACKBONE|DICT|INTERRES
   111   54  179 1    
   112   55   56 2    
   113   55   57 1    
   114   57   58 1    
   115   57   59 1    
   116   57  180 1    
   117   58  181 1    
   118   58  182 1    
   119   58  183 1    
   120   59   60 am   BACKBONE|DICT|INTERRES
   121   59  184 1    
   122   60   61 2    
   123   60   62 1    
   124   62   63 1    
   125   62   64 1    
   126   62  185 1    
   127   63  186 1    
   128   63  187 1    
   129   63  188 1    
   130   64   65 am   BACKBONE|DICT|INTERRES
   131   64  189 1    
   132   65   66 2    
   133   67   68 2    
   134   67   69 am   BACKBONE|DICT|INTERRES
   135   69   70 1    
   136   69  190 1    
   137   70   71 1    
   138   70   72 1    
   139   70  191 1    
   140   71  192 1    
   141   71  193 1    
   142   71  194 1    
   143   72   73 2    
   144   72   74 am   BACKBONE|DICT|INTERRES
   145   74   75 1    
   146   74  195 1    
   147   75   76 1    
   148   75   77 1    
   149   75  196 1    
   150   76  197 1    
   151   76  198 1    
   152   76  199 1    
   153   77   78 2    
   154   77   79 am   BACKBONE|DICT|INTERRES
   155   79   80 1    
   156   79  200 1    
   157   80   81 1    
   158   80   82 1    
   159   80  201 1    
   160   81  202 1    
   161   81  203 1    
   162   81  204 1    
   163   82   83 2    
   164   82   84 am   BACKBONE|DICT|INTERRES
   165   84   85 1    
   166   84  205 1    
   167   85   86 1    
   168   85   87 1    
   169   85  206 1    
   170   86  207 1    
   171   86  208 1    
   172   86  209 1    
   173   87   88 2    
   174   87   89 am   BACKBONE|DICT|INTERRES
   175   89   90 1    
   176   89  210 1    
   177   90   91 1    
   178   90   92 1    
   179   90  211 1    
   180   91  212 1    
   181   91  213 1    
   182   91  214 1    
   183   92   93 2    
   184   92   94 am   BACKBONE|DICT|INTERRES
   185   94   95 1    
   186   94  215 1    
   187   95   96 1    
   188   95   97 1    
   189   95  216 1    
   190   96  217 1    
   191   96  218 1    
   192   96  219 1    
   193   97   98 2    
   194   97   99 am   BACKBONE|DICT|INTERRES
   195   99  100 1    
   196   99  220 1    
   197  100  101 1    
   198  100  102 1    
   199  100  221 1    
   200  101  222 1    
   201  101  223 1    
   202  101  224 1    
   203  102  103 2    
   204  102  104 am   BACKBONE|DICT|INTERRES
   205  104  105 1    
   206  104  225 1    
   207  105  106 1    
   208  105  107 1    
   209  105  226 1    
   210  106  227 1    
   211  106  228 1    
   212  106  229 1    
   213  107  108 2    
   214  107  109 am   BACKBONE|DICT|INTERRES
   215  109  110 1    
   216  109  230 1    
   217  110  111 1    
   218  110  112 1    
   219  110  231 1    
   220  111  232 1    
   221  111  233 1    
   222  111  234 1    
   223  112  113 2    
   224  112  114 am   BACKBONE|DICT|INTERRES
   225  114  115 1    
   226  114  235 1    
   227  115  116 1    
   228  115  117 1    
   229  115  236 1    
   230  116  237 1    
   231  116  238 1    
   232  116  239 1    
   233  117  118 2    
   234  117  119 am   BACKBONE|DICT|INTERRES
   235  119  120 1    
   236  119  240 1    
   237  120  121 1    
   238  120  124 1    
   239  120  241 1    
   240  121  122 am   BACKBONE|DICT|INTERRES
   241  121  123 2    
   242  122  242 1    
   243  122  243 1    
   244  124  125 1    
   245  124  244 1    
   246  124  245 1    
   247  125  126 1    
   248  126  246 1    
   249  126  247 1    
@<TRIPOS>SUBSTRUCTURE
     1 UNK         1 GROUP             0       ****    0 ROOT    
