@<TRIPOS>MOLECULE
3R540
247   249    1
SMALL
USER_CHARGES


@<TRIPOS>ATOM
      1 CA          2.1745  -15.9578  -47.1091 C.3       0 UNK        -0.1800 
      2 C           0.8134  -15.3147  -47.3389 C.2       0 UNK         0.5000 
      3 O          -0.2070  -15.9018  -46.9858 O.2       0 UNK        -0.5000 
      4 N           0.7954  -14.1181  -47.9371 N.am      1 UNK        -0.5000 
      5 CA         -0.4268  -13.3539  -48.2309 C.3       1 UNK         0.1400 
      6 C6         -0.8014  -13.4080  -49.7367 C.3       23 UNK        -0.0398 
      7 S7         -1.2081  -15.0939  -50.3115 S.3       23 UNK        -0.2404 
      8 C8          0.3582  -15.5690  -51.1036 C.3       23 UNK        -0.0205 
      9 C9          0.3702  -17.0425  -51.4750 C.ar      23 UNK        -0.0193 
     10 C10        -0.1759  -17.4607  -52.6899 C.ar      23 UNK        -0.1150 
     11 C11        -0.1301  -18.8061  -53.0605 C.ar      23 UNK        -0.0193 
     12 C12         0.4514  -19.7388  -52.1978 C.ar      23 UNK        -0.1150 
     13 C13         1.0020  -19.3395  -50.9758 C.ar      23 UNK        -0.0193 
     14 C14         0.9580  -17.9834  -50.6233 C.ar      23 UNK        -0.1150 
     15 C15         1.6940  -20.3898  -50.1052 C.3       23 UNK        -0.0205 
     16 S16         1.7322  -20.0295  -48.3164 S.3       23 UNK        -0.2404 
     17 C17        -0.0112  -20.2768  -47.8487 C.3       23 UNK        -0.0398 
     18 CA         -0.2673  -21.6618  -47.2092 C.3       11 UNK         0.1400 
     19 N           0.4394  -21.8525  -45.9340 N.am      11 UNK        -0.5000 
     20 C           0.5155  -23.0207  -45.2784 C.2       10 UNK         0.5000 
     21 O           0.0157  -24.0653  -45.6954 O.2       10 UNK        -0.5000 
     22 CA          1.2157  -23.0233  -43.9058 C.3       10 UNK         0.1400 
     23 CB          2.7442  -23.0319  -44.0565 C.3       10 UNK        -0.1800 
     24 N           0.7990  -21.9068  -43.0565 N.am      10 UNK        -0.5000 
     25 C          -0.4436  -21.7467  -42.5776 C.2       9 UNK         0.5000 
     26 O          -1.3534  -22.5535  -42.7618 O.2       9 UNK        -0.5000 
     27 CA         -0.7427  -20.4379  -41.8218 C.3       9 UNK         0.1400 
     28 CB         -0.2877  -20.5225  -40.3577 C.3       9 UNK        -0.1800 
     29 N          -0.1351  -19.2738  -42.4649 N.am      9 UNK        -0.5000 
     30 C          -0.4181  -18.8677  -43.7106 C.2       8 UNK         0.5000 
     31 O          -1.2779  -19.3837  -44.4229 O.2       8 UNK        -0.5000 
     32 CA          0.4497  -17.7387  -44.2794 C.3       8 UNK         0.1400 
     33 CB         -0.0807  -16.3687  -43.8403 C.3       8 UNK        -0.1800 
     34 N           1.8557  -17.8769  -43.9002 N.am      8 UNK        -0.5000 
     35 C           2.6541  -18.8599  -44.3392 C.2       7 UNK         0.5000 
     36 O           2.2849  -19.7392  -45.1136 O.2       7 UNK        -0.5000 
     37 CA          4.0864  -18.8971  -43.7778 C.3       7 UNK         0.1400 
     38 CB          4.9840  -17.8985  -44.5242 C.3       7 UNK        -0.1800 
     39 N           4.1260  -18.6117  -42.3438 N.am      7 UNK        -0.5000 
     40 C           3.5737  -19.3867  -41.3984 C.2       6 UNK         0.5000 
     41 O           3.0512  -20.4769  -41.6299 O.2       6 UNK        -0.5000 
     42 CA          3.5488  -18.8150  -39.9652 C.3       6 UNK         0.1400 
     43 CB          4.8112  -19.2307  -39.1959 C.3       6 UNK        -0.1800 
     44 N           3.4175  -17.3528  -39.9331 N.am      6 UNK        -0.5000 
     45 C           2.3704  -16.6783  -40.4277 C.2       5 UNK         0.5000 
     46 O           1.3780  -17.2344  -40.9045 O.2       5 UNK        -0.5000 
     47 CA          2.5016  -15.1424  -40.4654 C.3       5 UNK         0.1400 
     48 CB          3.6091  -14.7200  -41.4468 C.3       5 UNK        -0.1800 
     49 N           1.2618  -14.4969  -40.8905 N.am      5 UNK        -0.5000 
     50 C           0.1742  -14.3087  -40.1375 C.2       4 UNK         0.5000 
     51 O           0.1224  -14.5881  -38.9379 O.2       4 UNK        -0.5000 
     52 CA         -1.0454  -13.6806  -40.8529 C.3       4 UNK         0.1400 
     53 CB         -2.2454  -13.4765  -39.9103 C.3       4 UNK        -0.1800 
     54 N          -0.7325  -12.3995  -41.4971 N.am      4 UNK        -0.5000 
     55 C          -0.0586  -12.2430  -42.6431 C.2       3 UNK         0.5000 
     56 O           0.4060  -13.1812  -43.2961 O.2       3 UNK        -0.5000 
     57 CA          0.1670  -10.8033  -43.1234 C.3       3 UNK         0.1400 
     58 CB          1.2445  -10.1081  -42.2680 C.3       3 UNK        -0.1800 
     59 N           0.5853  -10.8508  -44.5210 N.am      3 UNK        -0.5000 
     60 C           0.6173   -9.8243  -45.3769 C.2       2 UNK         0.5000 
     61 O           0.2601   -8.6813  -45.0882 O.2       2 UNK        -0.5000 
     62 CA          1.1458  -10.1174  -46.7937 C.3       2 UNK         0.1400 
     63 CB          2.6611   -9.8695  -46.8582 C.3       2 UNK        -0.1800 
     64 N           0.8684  -11.4846  -47.2443 N.am      2 UNK        -0.5000 
     65 C          -0.3111  -11.8937  -47.7378 C.2       1 UNK         0.5000 
     66 O          -1.2944  -11.1560  -47.8196 O.2       1 UNK        -0.5000 
     67 C          -1.7843  -21.9177  -47.0880 C.2       11 UNK         0.5000 
     68 O          -2.3765  -22.4615  -48.0216 O.2       11 UNK        -0.5000 
     69 N          -2.3806  -21.5420  -45.9481 N.am      12 UNK        -0.5000 
     70 CA         -3.7780  -21.8072  -45.6117 C.3       12 UNK         0.1400 
     71 CB         -4.2017  -20.9302  -44.4244 C.3       12 UNK        -0.1800 
     72 C          -4.0372  -23.2944  -45.3135 C.2       12 UNK         0.5000 
     73 O          -5.0420  -23.8301  -45.7788 O.2       12 UNK        -0.5000 
     74 N          -3.1219  -23.9444  -44.5790 N.am      13 UNK        -0.5000 
     75 CA         -3.1710  -25.3746  -44.2585 C.3       13 UNK         0.1400 
     76 CB         -2.1064  -25.7085  -43.2028 C.3       13 UNK        -0.1800 
     77 C          -3.0055  -26.2692  -45.5005 C.2       13 UNK         0.5000 
     78 O          -3.7133  -27.2684  -45.6305 O.2       13 UNK        -0.5000 
     79 N          -2.1056  -25.8702  -46.4102 N.am      14 UNK        -0.5000 
     80 CA         -1.9233  -26.4796  -47.7304 C.3       14 UNK         0.1400 
     81 CB         -0.5931  -25.9865  -48.3217 C.3       14 UNK        -0.1800 
     82 C          -3.0799  -26.1689  -48.7029 C.2       14 UNK         0.5000 
     83 O          -3.2304  -26.8663  -49.7060 O.2       14 UNK        -0.5000 
     84 N          -3.8476  -25.1130  -48.3961 N.am      15 UNK        -0.5000 
     85 CA         -4.9649  -24.5353  -49.1478 C.3       15 UNK         0.1400 
     86 CB         -6.1174  -25.5472  -49.3054 C.3       15 UNK        -0.1800 
     87 C          -4.5524  -23.8977  -50.4891 C.2       15 UNK         0.5000 
     88 O          -5.4218  -23.5921  -51.3038 O.2       15 UNK        -0.5000 
     89 N          -3.2485  -23.6666  -50.6904 N.am      16 UNK        -0.5000 
     90 CA         -2.6754  -23.1100  -51.9145 C.3       16 UNK         0.1400 
     91 CB         -1.1461  -23.2341  -51.8623 C.3       16 UNK        -0.1800 
     92 C          -3.1010  -21.6528  -52.1497 C.2       16 UNK         0.5000 
     93 O          -3.4741  -21.2994  -53.2690 O.2       16 UNK        -0.5000 
     94 N          -3.0805  -20.8488  -51.0785 N.am      17 UNK        -0.5000 
     95 CA         -3.5464  -19.4616  -51.0974 C.3       17 UNK         0.1400 
     96 CB         -2.9730  -18.7109  -49.8863 C.3       17 UNK        -0.1800 
     97 C          -5.0831  -19.3629  -51.1234 C.2       17 UNK         0.5000 
     98 O          -5.6190  -18.4267  -51.7154 O.2       17 UNK        -0.5000 
     99 N          -5.7610  -20.3342  -50.4943 N.am      18 UNK        -0.5000 
    100 CA        -7.2199  -20.4122  -50.4060 C.3       18 UNK         0.1400 
    101 CB        -7.6141  -21.4148  -49.3096 C.3       18 UNK        -0.1800 
    102 C         -7.8693  -20.7834  -51.7508 C.2       18 UNK         0.5000 
    103 O         -8.8423  -20.1458  -52.1546 O.2       18 UNK        -0.5000 
    104 N         -7.3054  -21.7922  -52.4285 N.am      19 UNK        -0.5000 
    105 CA        -7.7372  -22.2513  -53.7500 C.3       19 UNK         0.1400 
    106 CB        -7.2460  -23.6930  -53.9573 C.3       19 UNK        -0.1800 
    107 C         -7.2340  -21.3534  -54.8964 C.2       19 UNK         0.5000 
    108 O         -7.7360  -21.4776  -56.0141 O.2       19 UNK        -0.5000 
    109 N         -6.2441  -20.4945  -54.6059 N.am      20 UNK        -0.5000 
    110 CA        -5.4956  -19.6483  -55.5398 C.3       20 UNK         0.1400 
    111 CB        -6.4021  -18.5758  -56.1781 C.3       20 UNK        -0.1800 
    112 C         -4.7266  -20.4983  -56.5710 C.2       20 UNK         0.5000 
    113 O         -4.7883  -20.2425  -57.7757 O.2       20 UNK        -0.5000 
    114 N         -4.0017  -21.5039  -56.0594 N.am      21 UNK        -0.5000 
    115 CA        -3.2315  -22.4939  -56.8210 C.3       21 UNK         0.1400 
    116 CB        -2.6809  -23.5437  -55.8437 C.3       21 UNK        -0.1800 
    117 C         -2.0904  -21.8899  -57.6641 C.2       21 UNK         0.5000 
    118 O         -1.6369  -22.5192  -58.6206 O.2       21 UNK        -0.5000 
    119 N         -1.6698  -20.6739  -57.3017 N.am      22 UNK        -0.5000 
    120 CA        -0.7287  -19.8292  -58.0469 C.3       22 UNK         0.1400 
    121 C         -1.3029  -19.2524  -59.3766 C.2       22 UNK         0.5000 
    122 N         -2.6083  -19.2963  -59.6231 N.am      22 UNK        -0.7600 
    123 O         -0.5442  -18.7563  -60.2048 O.2       22 UNK        -0.5000 
    124 C124       -0.1826  -18.6846  -57.1567 C.3       23 UNK        -0.0398 
    125 S125        0.6623  -19.2796  -55.6506 S.3       23 UNK        -0.2404 
    126 C126       -0.6732  -19.2403  -54.4104 C.3       23 UNK        -0.0205 
    127 H127        2.9475  -15.4995  -47.7259 H         1 UNK         0.0600 
    128 H128        2.4641  -15.8574  -46.0633 H         1 UNK         0.0600 
    129 H129        2.1358  -17.0205  -47.3492 H         1 UNK         0.0600 
    130 H130        1.6614  -13.7073  -48.2545 H         1 UNK         0.3000 
    131 H131       -1.2656  -13.7680  -47.6673 H         1 UNK         0.0600 
    132 H132       -1.6797  -12.7902  -49.9325 H         1 UNK         0.0800 
    133 H133       -0.0001  -12.9922  -50.3499 H         1 UNK         0.0800 
    134 H134        1.1923  -15.3500  -50.4364 H         1 UNK         0.0800 
    135 H135        0.5113  -14.9590  -51.9952 H         1 UNK         0.0800 
    136 H136       -0.6175  -16.7333  -53.3567 H         1 UNK         0.1150 
    137 H137        0.5044  -20.7755  -52.4972 H         1 UNK         0.1150 
    138 H138        1.3948  -17.6493  -49.6938 H         1 UNK         0.1150 
    139 H139        2.7230  -20.4874  -50.4528 H         1 UNK         0.0800 
    140 H140        1.2290  -21.3658  -50.2495 H         1 UNK         0.0800 
    141 H141       -0.6242  -20.1474  -48.7407 H         1 UNK         0.0800 
    142 H142       -0.2993  -19.4779  -47.1632 H         1 UNK         0.0800 
    143 H143        0.1152  -22.4175  -47.8986 H         1 UNK         0.0600 
    144 H144        0.9327  -21.0450  -45.5613 H         1 UNK         0.3000 
    145 H145        0.9309  -23.9455  -43.3953 H         1 UNK         0.0600 
    146 H146        3.2352  -23.0854  -43.0846 H         1 UNK         0.0600 
    147 H147        3.0718  -23.8962  -44.6354 H         1 UNK         0.0600 
    148 H148        3.1101  -22.1414  -44.5658 H         1 UNK         0.0600 
    149 H149        1.5047  -21.2153  -42.8287 H         1 UNK         0.3000 
    150 H150       -1.8244  -20.2897  -41.8307 H         1 UNK         0.0600 
    151 H151        0.7838  -20.7002  -40.2753 H         1 UNK         0.0600 
    152 H152       -0.7942  -21.3387  -39.8413 H         1 UNK         0.0600 
    153 H153       -0.5170  -19.6028  -39.8190 H         1 UNK         0.0600 
    154 H154        0.5544  -18.7534  -41.9319 H         1 UNK         0.3000 
    155 H155        0.3931  -17.8018  -45.3667 H         1 UNK         0.0600 
    156 H156       -1.0900  -16.2049  -44.2193 H         1 UNK         0.0600 
    157 H157        0.5454  -15.5695  -44.2333 H         1 UNK         0.0600 
    158 H158       -0.1200  -16.2688  -42.7572 H         1 UNK         0.0600 
    159 H159        2.2020  -17.2357  -43.2035 H         1 UNK         0.3000 
    160 H160        4.4829  -19.9022  -43.9366 H         1 UNK         0.0600 
    161 H161        4.6540  -16.8691  -44.3783 H         1 UNK         0.0600 
    162 H162        4.9768  -18.0957  -45.5971 H         1 UNK         0.0600 
    163 H163        6.0185  -17.9707  -44.1881 H         1 UNK         0.0600 
    164 H164        4.5478  -17.7395  -42.0630 H         1 UNK         0.3000 
    165 H165        2.6818  -19.2401  -39.4556 H         1 UNK         0.0600 
    166 H166        4.7672  -18.9006  -38.1579 H         1 UNK         0.0600 
    167 H167        5.7133  -18.8127  -39.6444 H         1 UNK         0.0600 
    168 H168        4.9218  -20.3159  -39.1859 H         1 UNK         0.0600 
    169 H169        4.1997  -16.8388  -39.5537 H         1 UNK         0.3000 
    170 H170        2.7595  -14.7935  -39.4635 H         1 UNK         0.0600 
    171 H171        4.5810  -15.1149  -41.1494 H         1 UNK         0.0600 
    172 H172        3.4056  -15.0704  -42.4598 H         1 UNK         0.0600 
    173 H173        3.7049  -13.6345  -41.4852 H         1 UNK         0.0600 
    174 H174        1.1964  -14.2287  -41.8675 H         1 UNK         0.3000 
    175 H175       -1.3554  -14.3869  -41.6258 H         1 UNK         0.0600 
    176 H176       -2.0135  -12.7737  -39.1091 H         1 UNK         0.0600 
    177 H177       -3.1114  -13.0950  -40.4515 H         1 UNK         0.0600 
    178 H178       -2.5447  -14.4177  -39.4472 H         1 UNK         0.0600 
    179 H179       -1.0422  -11.5745  -41.0039 H         1 UNK         0.3000 
    180 H180       -0.7774  -10.2603  -43.0498 H         1 UNK         0.0600 
    181 H181        2.2027  -10.6249  -42.3354 H         1 UNK         0.0600 
    182 H182        0.9586  -10.0828  -41.2159 H         1 UNK         0.0600 
    183 H183        1.3997   -9.0757  -42.5809 H         1 UNK         0.0600 
    184 H184        0.8475  -11.7773  -44.8342 H         1 UNK         0.3000 
    185 H185        0.6626   -9.4163  -47.4779 H         1 UNK         0.0600 
    186 H186        3.0398  -10.0020  -47.8718 H         1 UNK         0.0600 
    187 H187        2.9032   -8.8505  -46.5531 H         1 UNK         0.0600 
    188 H188        3.2095  -10.5469  -46.2024 H         1 UNK         0.0600 
    189 H189        1.6223  -12.1487  -47.1617 H         1 UNK         0.3000 
    190 H190       -1.8424  -21.0163  -45.2644 H         1 UNK         0.3000 
    191 H191       -4.3917  -21.5283  -46.4712 H         1 UNK         0.0600 
    192 H192       -5.2484  -21.0983  -44.1679 H         1 UNK         0.0600 
    193 H193       -4.0899  -19.8714  -44.6585 H         1 UNK         0.0600 
    194 H194       -3.6070  -21.1396  -43.5351 H         1 UNK         0.0600 
    195 H195       -2.3521  -23.4184  -44.1749 H         1 UNK         0.3000 
    196 H196       -4.1516  -25.5861  -43.8273 H         1 UNK         0.0600 
    197 H197       -1.1012  -25.4803  -43.5579 H         1 UNK         0.0600 
    198 H198       -2.2728  -25.1454  -42.2844 H         1 UNK         0.0600 
    199 H199       -2.1312  -26.7675  -42.9432 H         1 UNK         0.0600 
    200 H200       -1.5009  -25.0830  -46.1858 H         1 UNK         0.3000 
    201 H201       -1.8697  -27.5634  -47.6099 H         1 UNK         0.0600 
    202 H202       -0.5903  -24.9040  -48.4562 H         1 UNK         0.0600 
    203 H203       -0.4033  -26.4399  -49.2954 H         1 UNK         0.0600 
    204 H204        0.2453  -26.2441  -47.6742 H         1 UNK         0.0600 
    205 H205       -3.6097  -24.6103  -47.5519 H         1 UNK         0.3000 
    206 H206       -5.3350  -23.7127  -48.5351 H         1 UNK         0.0600 
    207 H207       -6.4003  -25.9729  -48.3426 H         1 UNK         0.0600 
    208 H208       -7.0052  -25.0687  -49.7205 H         1 UNK         0.0600 
    209 H209       -5.8498  -26.3675  -49.9716 H         1 UNK         0.0600 
    210 H210       -2.6135  -23.8681  -49.9308 H         1 UNK         0.3000 
    211 H211       -3.0398  -23.7037  -52.7551 H         1 UNK         0.0600 
    212 H212       -0.6933  -22.8560  -52.7796 H         1 UNK         0.0600 
    213 H213       -0.8398  -24.2749  -51.7560 H         1 UNK         0.0600 
    214 H214       -0.7243  -22.6745  -51.0268 H         1 UNK         0.0600 
    215 H215       -2.7812  -21.2292  -50.1914 H         1 UNK         0.3000 
    216 H216       -3.1691  -18.9771  -52.0010 H         1 UNK         0.0600 
    217 H217       -3.2173  -19.2059  -48.9457 H         1 UNK         0.0600 
    218 H218       -3.3630  -17.6933  -49.8352 H         1 UNK         0.0600 
    219 H219       -1.8893  -18.6280  -49.9581 H         1 UNK         0.0600 
    220 H220       -5.2378  -21.0787  -50.0610 H         1 UNK         0.3000 
    221 H221       -7.5949  -19.4290  -50.1135 H         1 UNK         0.0600 
    222 H222       -7.1824  -21.1396  -48.3471 H         1 UNK         0.0600 
    223 H223       -7.2877  -22.4270  -49.5478 H         1 UNK         0.0600 
    224 H224       -8.6970  -21.4441  -49.1829 H         1 UNK         0.0600 
    225 H225       -6.5371  -22.3101  -52.0062 H         1 UNK         0.3000 
    226 H226       -8.8287  -22.2536  -53.7837 H         1 UNK         0.0600 
    227 H227       -6.1563  -23.7474  -53.9684 H         1 UNK         0.0600 
    228 H228       -7.6058  -24.3510  -53.1659 H         1 UNK         0.0600 
    229 H229       -7.6041  -24.0973  -54.9048 H         1 UNK         0.0600 
    230 H230       -5.8973  -20.5021  -53.6571 H         1 UNK         0.3000 
    231 H231       -4.7423  -19.1294  -54.9449 H         1 UNK         0.0600 
    232 H232       -6.9224  -17.9968  -55.4151 H         1 UNK         0.0600 
    233 H233       -7.1521  -19.0128  -56.8377 H         1 UNK         0.0600 
    234 H234       -5.8146  -17.8758  -56.7731 H         1 UNK         0.0600 
    235 H235       -3.9589  -21.5859  -55.0460 H         1 UNK         0.3000 
    236 H236       -3.9189  -22.9887  -57.5097 H         1 UNK         0.0600 
    237 H237       -3.4855  -24.0260  -55.2883 H         1 UNK         0.0600 
    238 H238       -2.1379  -24.3268  -56.3744 H         1 UNK         0.0600 
    239 H239       -1.9940  -23.0976  -55.1234 H         1 UNK         0.0600 
    240 H240       -2.1097  -20.2496  -56.5010 H         1 UNK         0.3000 
    241 H241        0.1157  -20.4597  -58.3315 H         1 UNK         0.0600 
    242 H242       -2.9572  -18.9209  -60.4908 H         1 UNK         0.3800 
    243 H243       -3.2616  -19.6940  -58.9561 H         1 UNK         0.3800 
    244 H244       -0.9785  -17.9889  -56.8866 H         1 UNK         0.0800 
    245 H245        0.5471  -18.0949  -57.7146 H         1 UNK         0.0800 
    246 H246       -1.1221  -20.2316  -54.3328 H         1 UNK         0.0800 
    247 H247       -1.4716  -18.5639  -54.7178 H         1 UNK         0.0800 
@<TRIPOS>BOND
     1    1    2 1    
     2    1  127 1    
     3    1  128 1    
     4    1  129 1    
     5    2    3 2    
     6    2    4 am   BACKBONE|DICT|INTERRES
     7    4    5 1    
     8    4  130 1    
     9    5    6 1    
    10    5   65 1    
    11    5  131 1    
    12    6    7 1    
    13    6  132 1    
    14    6  133 1    
    15    7    8 1    
    16    8    9 1    
    17    8  134 1    
    18    8  135 1    
    19    9   10 ar   
    20    9   14 ar   
    21   10   11 ar   
    22   10  136 1    
    23   11   12 ar   
    24   11  126 1    
    25   12   13 ar   
    26   12  137 1    
    27   13   14 ar   
    28   13   15 1    
    29   14  138 1    
    30   15   16 1    
    31   15  139 1    
    32   15  140 1    
    33   16   17 1    
    34   17   18 1    
    35   17  141 1    
    36   17  142 1    
    37   18   19 1    
    38   18   67 1    
    39   18  143 1    
    40   19   20 am   BACKBONE|DICT|INTERRES
    41   19  144 1    
    42   20   21 2    
    43   20   22 1    
    44   22   23 1    
    45   22   24 1    
    46   22  145 1    
    47   23  146 1    
    48   23  147 1    
    49   23  148 1    
    50   24   25 am   BACKBONE|DICT|INTERRES
    51   24  149 1    
    52   25   26 2    
    53   25   27 1    
    54   27   28 1    
    55   27   29 1    
    56   27  150 1    
    57   28  151 1    
    58   28  152 1    
    59   28  153 1    
    60   29   30 am   BACKBONE|DICT|INTERRES
    61   29  154 1    
    62   30   31 2    
    63   30   32 1    
    64   32   33 1    
    65   32   34 1    
    66   32  155 1    
    67   33  156 1    
    68   33  157 1    
    69   33  158 1    
    70   34   35 am   BACKBONE|DICT|INTERRES
    71   34  159 1    
    72   35   36 2    
    73   35   37 1    
    74   37   38 1    
    75   37   39 1    
    76   37  160 1    
    77   38  161 1    
    78   38  162 1    
    79   38  163 1    
    80   39   40 am   BACKBONE|DICT|INTERRES
    81   39  164 1    
    82   40   41 2    
    83   40   42 1    
    84   42   43 1    
    85   42   44 1    
    86   42  165 1    
    87   43  166 1    
    88   43  167 1    
    89   43  168 1    
    90   44   45 am   BACKBONE|DICT|INTERRES
    91   44  169 1    
    92   45   46 2    
    93   45   47 1    
    94   47   48 1    
    95   47   49 1    
    96   47  170 1    
    97   48  171 1    
    98   48  172 1    
    99   48  173 1    
   100   49   50 am   BACKBONE|DICT|INTERRES
   101   49  174 1    
   102   50   51 2    
   103   50   52 1    
   104   52   53 1    
   105   52   54 1    
   106   52  175 1    
   107   53  176 1    
   108   53  177 1    
   109   53  178 1    
   110   54   55 am   BACKBONE|DICT|INTERRES
   111   54  179 1    
   112   55   56 2    
   113   55   57 1    
   114   57   58 1    
   115   57   59 1    
   116   57  180 1    
   117   58  181 1    
   118   58  182 1    
   119   58  183 1    
   120   59   60 am   BACKBONE|DICT|INTERRES
   121   59  184 1    
   122   60   61 2    
   123   60   62 1    
   124   62   63 1    
   125   62   64 1    
   126   62  185 1    
   127   63  186 1    
   128   63  187 1    
   129   63  188 1    
   130   64   65 am   BACKBONE|DICT|INTERRES
   131   64  189 1    
   132   65   66 2    
   133   67   68 2    
   134   67   69 am   BACKBONE|DICT|INTERRES
   135   69   70 1    
   136   69  190 1    
   137   70   71 1    
   138   70   72 1    
   139   70  191 1    
   140   71  192 1    
   141   71  193 1    
   142   71  194 1    
   143   72   73 2    
   144   72   74 am   BACKBONE|DICT|INTERRES
   145   74   75 1    
   146   74  195 1    
   147   75   76 1    
   148   75   77 1    
   149   75  196 1    
   150   76  197 1    
   151   76  198 1    
   152   76  199 1    
   153   77   78 2    
   154   77   79 am   BACKBONE|DICT|INTERRES
   155   79   80 1    
   156   79  200 1    
   157   80   81 1    
   158   80   82 1    
   159   80  201 1    
   160   81  202 1    
   161   81  203 1    
   162   81  204 1    
   163   82   83 2    
   164   82   84 am   BACKBONE|DICT|INTERRES
   165   84   85 1    
   166   84  205 1    
   167   85   86 1    
   168   85   87 1    
   169   85  206 1    
   170   86  207 1    
   171   86  208 1    
   172   86  209 1    
   173   87   88 2    
   174   87   89 am   BACKBONE|DICT|INTERRES
   175   89   90 1    
   176   89  210 1    
   177   90   91 1    
   178   90   92 1    
   179   90  211 1    
   180   91  212 1    
   181   91  213 1    
   182   91  214 1    
   183   92   93 2    
   184   92   94 am   BACKBONE|DICT|INTERRES
   185   94   95 1    
   186   94  215 1    
   187   95   96 1    
   188   95   97 1    
   189   95  216 1    
   190   96  217 1    
   191   96  218 1    
   192   96  219 1    
   193   97   98 2    
   194   97   99 am   BACKBONE|DICT|INTERRES
   195   99  100 1    
   196   99  220 1    
   197  100  101 1    
   198  100  102 1    
   199  100  221 1    
   200  101  222 1    
   201  101  223 1    
   202  101  224 1    
   203  102  103 2    
   204  102  104 am   BACKBONE|DICT|INTERRES
   205  104  105 1    
   206  104  225 1    
   207  105  106 1    
   208  105  107 1    
   209  105  226 1    
   210  106  227 1    
   211  106  228 1    
   212  106  229 1    
   213  107  108 2    
   214  107  109 am   BACKBONE|DICT|INTERRES
   215  109  110 1    
   216  109  230 1    
   217  110  111 1    
   218  110  112 1    
   219  110  231 1    
   220  111  232 1    
   221  111  233 1    
   222  111  234 1    
   223  112  113 2    
   224  112  114 am   BACKBONE|DICT|INTERRES
   225  114  115 1    
   226  114  235 1    
   227  115  116 1    
   228  115  117 1    
   229  115  236 1    
   230  116  237 1    
   231  116  238 1    
   232  116  239 1    
   233  117  118 2    
   234  117  119 am   BACKBONE|DICT|INTERRES
   235  119  120 1    
   236  119  240 1    
   237  120  121 1    
   238  120  124 1    
   239  120  241 1    
   240  121  122 am   BACKBONE|DICT|INTERRES
   241  121  123 2    
   242  122  242 1    
   243  122  243 1    
   244  124  125 1    
   245  124  244 1    
   246  124  245 1    
   247  125  126 1    
   248  126  246 1    
   249  126  247 1    
@<TRIPOS>SUBSTRUCTURE
     1 UNK         1 GROUP             0       ****    0 ROOT    
