@<TRIPOS>MOLECULE
3R540
247   249    1
SMALL
USER_CHARGES


@<TRIPOS>ATOM
      1 CA          3.3928  -11.4508  -48.9958 C.3       0 UNK        -0.1800 
      2 C           2.3627  -12.1487  -48.1212 C.2       0 UNK         0.5000 
      3 O           1.8633  -11.5515  -47.1681 O.2       0 UNK        -0.5000 
      4 N           2.0252  -13.4024  -48.4512 N.am      1 UNK        -0.5000 
      5 CA          1.1091  -14.2780  -47.7018 C.3       1 UNK         0.1400 
      6 C6          1.0926  -15.7168  -48.2712 C.3       23 UNK        -0.0398 
      7 S7          2.7320  -16.5141  -48.2051 S.3       23 UNK        -0.2404 
      8 C8          3.1345  -16.7389  -49.9651 C.3       23 UNK        -0.0205 
      9 C9          2.2405  -17.7749  -50.6301 C.ar      23 UNK        -0.0193 
     10 C10         1.2971  -17.3828  -51.5842 C.ar      23 UNK        -0.1150 
     11 C11         0.4868  -18.3322  -52.2115 C.ar      23 UNK        -0.0193 
     12 C12         0.6283  -19.6831  -51.8796 C.ar      23 UNK        -0.1150 
     13 C13         1.5700  -20.0900  -50.9285 C.ar      23 UNK        -0.0193 
     14 C14         2.3716  -19.1291  -50.3057 C.ar      23 UNK        -0.1150 
     15 C15         1.7535  -21.5688  -50.6118 C.3       23 UNK        -0.0205 
     16 S16         0.2557  -22.3280  -49.9108 S.3       23 UNK        -0.2404 
     17 C17         0.2910  -21.7834  -48.1664 C.3       23 UNK        -0.0398 
     18 CA          0.2832  -22.9660  -47.1616 C.3       11 UNK         0.1400 
     19 N           0.4873  -22.5191  -45.7787 N.am      11 UNK        -0.5000 
     20 C           0.6173  -23.3317  -44.7176 C.2       10 UNK         0.5000 
     21 O           0.6408  -24.5589  -44.7940 O.2       10 UNK        -0.5000 
     22 CA          0.6646  -22.6717  -43.3280 C.3       10 UNK         0.1400 
     23 CB          2.0538  -22.0841  -43.0408 C.3       10 UNK        -0.1800 
     24 N          -0.3629  -21.6427  -43.1673 N.am      10 UNK        -0.5000 
     25 C          -1.6825  -21.8818  -43.2077 C.2       9 UNK         0.5000 
     26 O          -2.1697  -23.0083  -43.3078 O.2       9 UNK        -0.5000 
     27 CA         -2.6128  -20.6540  -43.1911 C.3       9 UNK         0.1400 
     28 CB         -2.8377  -20.1517  -41.7576 C.3       9 UNK        -0.1800 
     29 N          -2.1156  -19.5597  -44.0275 N.am      9 UNK        -0.5000 
     30 C          -1.9380  -19.6417  -45.3536 C.2       8 UNK         0.5000 
     31 O          -2.2281  -20.6326  -46.0197 O.2       8 UNK        -0.5000 
     32 CA         -1.2681  -18.4445  -46.0478 C.3       8 UNK         0.1400 
     33 CB         -2.2891  -17.3344  -46.3295 C.3       8 UNK        -0.1800 
     34 N          -0.1371  -17.9287  -45.2735 N.am      8 UNK        -0.5000 
     35 C           0.9960  -18.6193  -45.0698 C.2       7 UNK         0.5000 
     36 O           1.2333  -19.7030  -45.6037 O.2       7 UNK        -0.5000 
     37 CA          1.9980  -18.0477  -44.0510 C.3       7 UNK         0.1400 
     38 CB          3.0087  -17.1075  -44.7201 C.3       7 UNK        -0.1800 
     39 N           1.3221  -17.3487  -42.9595 N.am      7 UNK        -0.5000 
     40 C           0.7023  -17.9690  -41.9453 C.2       6 UNK         0.5000 
     41 O           0.6718  -19.1928  -41.8182 O.2       6 UNK        -0.5000 
     42 CA         -0.0400  -17.0835  -40.9238 C.3       6 UNK         0.1400 
     43 CB          0.9064  -16.6615  -39.7905 C.3       6 UNK        -0.1800 
     44 N          -0.6351  -15.8884  -41.5239 N.am      6 UNK        -0.5000 
     45 C          -1.5999  -15.9051  -42.4534 C.2       5 UNK         0.5000 
     46 O          -2.1506  -16.9370  -42.8352 O.2       5 UNK        -0.5000 
     47 CA         -1.9806  -14.5604  -43.1055 C.3       5 UNK         0.1400 
     48 CB         -3.2364  -13.9783  -42.4414 C.3       5 UNK        -0.1800 
     49 N          -0.9237  -13.5425  -43.1023 N.am      5 UNK        -0.5000 
     50 C           0.3051  -13.6812  -43.6175 C.2       4 UNK         0.5000 
     51 O           0.7379  -14.7407  -44.0728 O.2       4 UNK        -0.5000 
     52 CA          1.1793  -12.4143  -43.6368 C.3       4 UNK         0.1400 
     53 CB          2.6503  -12.7190  -43.9734 C.3       4 UNK        -0.1800 
     54 N           0.6621  -11.4544  -44.6088 N.am      4 UNK        -0.5000 
     55 C          -0.3670  -10.6199  -44.4107 C.2       3 UNK         0.5000 
     56 O          -0.9848  -10.5402  -43.3477 O.2       3 UNK        -0.5000 
     57 CA         -0.7950   -9.7610  -45.6111 C.3       3 UNK         0.1400 
     58 CB          0.2240   -8.6413  -45.8772 C.3       3 UNK        -0.1800 
     59 N          -0.9262  -10.5942  -46.8051 N.am      3 UNK        -0.5000 
     60 C          -2.0789  -11.1141  -47.2503 C.2       2 UNK         0.5000 
     61 O          -3.1794  -10.8590  -46.7603 O.2       2 UNK        -0.5000 
     62 CA         -1.9945  -12.0972  -48.4376 C.3       2 UNK         0.1400 
     63 CB         -2.2144  -11.3636  -49.7689 C.3       2 UNK        -0.1800 
     64 N          -0.7234  -12.8220  -48.4952 N.am      2 UNK        -0.5000 
     65 C          -0.3315  -13.7289  -47.5888 C.2       1 UNK         0.5000 
     66 O          -1.0545  -14.1165  -46.6734 O.2       1 UNK        -0.5000 
     67 C          -0.9898  -23.8320  -47.2922 C.2       11 UNK         0.5000 
     68 O          -0.9148  -24.9396  -47.8266 O.2       11 UNK        -0.5000 
     69 N          -2.1159  -23.3371  -46.7570 N.am      12 UNK        -0.5000 
     70 CA         -3.4164  -24.0089  -46.7498 C.3       12 UNK         0.1400 
     71 CB         -4.4665  -23.1070  -46.0825 C.3       12 UNK        -0.1800 
     72 C          -3.3857  -25.3914  -46.0744 C.2       12 UNK         0.5000 
     73 O          -3.9944  -26.3300  -46.5886 O.2       12 UNK        -0.5000 
     74 N          -2.6626  -25.4900  -44.9522 N.am      13 UNK        -0.5000 
     75 CA         -2.4608  -26.7291  -44.2088 C.3       13 UNK         0.1400 
     76 CB         -1.9523  -26.3946  -42.7975 C.3       13 UNK        -0.1800 
     77 C          -1.5014  -27.7032  -44.9172 C.2       13 UNK         0.5000 
     78 O          -1.8136  -28.8907  -45.0182 O.2       13 UNK        -0.5000 
     79 N          -0.3403  -27.2000  -45.3570 N.am      14 UNK        -0.5000 
     80 CA          0.7630  -28.0218  -45.8531 C.3       14 UNK         0.1400 
     81 CB          2.0852  -27.2571  -45.6830 C.3       14 UNK        -0.1800 
     82 C           0.6029  -28.4753  -47.3128 C.2       14 UNK         0.5000 
     83 O           0.9358  -29.6217  -47.6185 O.2       14 UNK        -0.5000 
     84 N           0.1513  -27.5708  -48.1903 N.am      15 UNK        -0.5000 
     85 CA          0.1871  -27.7550  -49.6440 C.3       15 UNK         0.1400 
     86 CB          1.2119  -26.7706  -50.2328 C.3       15 UNK        -0.1800 
     87 C          -1.1779  -27.5588  -50.3211 C.2       15 UNK         0.5000 
     88 O          -1.4070  -28.1634  -51.3699 O.2       15 UNK        -0.5000 
     89 N          -2.0374  -26.7155  -49.7308 N.am      16 UNK        -0.5000 
     90 CA         -3.2691  -26.1520  -50.2976 C.3       16 UNK         0.1400 
     91 CB         -4.2534  -27.2488  -50.7588 C.3       16 UNK        -0.1800 
     92 C          -2.9742  -25.1103  -51.4009 C.2       16 UNK         0.5000 
     93 O          -1.8135  -24.8869  -51.7513 O.2       16 UNK        -0.5000 
     94 N          -4.0387  -24.4669  -51.9065 N.am      17 UNK        -0.5000 
     95 CA         -4.0150  -23.3677  -52.8836 C.3       17 UNK         0.1400 
     96 CB         -3.5034  -23.8525  -54.2567 C.3       17 UNK        -0.1800 
     97 C          -3.2491  -22.1411  -52.3435 C.2       17 UNK         0.5000 
     98 O          -2.2600  -21.7050  -52.9327 O.2       17 UNK        -0.5000 
     99 N          -3.7197  -21.6399  -51.1950 N.am      18 UNK        -0.5000 
    100 CA        -3.1652  -20.4932  -50.4771 C.3       18 UNK         0.1400 
    101 CB        -3.6424  -20.5708  -49.0180 C.3       18 UNK        -0.1800 
    102 C         -3.5189  -19.1386  -51.1273 C.2       18 UNK         0.5000 
    103 O         -4.1090  -19.0944  -52.2108 O.2       18 UNK        -0.5000 
    104 N         -3.1172  -18.0507  -50.4531 N.am      19 UNK        -0.5000 
    105 CA        -3.3073  -16.6548  -50.8562 C.3       19 UNK         0.1400 
    106 CB        -2.7118  -15.7408  -49.7750 C.3       19 UNK        -0.1800 
    107 C         -4.7751  -16.2744  -51.1358 C.2       19 UNK         0.5000 
    108 O         -5.6905  -16.8625  -50.5563 O.2       19 UNK        -0.5000 
    109 N         -4.9478  -15.2899  -52.0301 N.am      20 UNK        -0.5000 
    110 CA        -6.2139  -14.8360  -52.6253 C.3       20 UNK         0.1400 
    111 CB        -7.2142  -14.3458  -51.5566 C.3       20 UNK        -0.1800 
    112 C         -6.8277  -15.8600  -53.6085 C.2       20 UNK         0.5000 
    113 O         -8.0135  -15.7689  -53.9306 O.2       20 UNK        -0.5000 
    114 N         -5.9988  -16.7895  -54.0984 N.am      21 UNK        -0.5000 
    115 CA        -6.3182  -17.7755  -55.1242 C.3       21 UNK         0.1400 
    116 CB        -7.0617  -18.9804  -54.5161 C.3       21 UNK        -0.1800 
    117 C         -5.0130  -18.1837  -55.8193 C.2       21 UNK         0.5000 
    118 O         -4.8329  -17.8910  -57.0018 O.2       21 UNK        -0.5000 
    119 N         -4.1059  -18.7924  -55.0450 N.am      22 UNK        -0.5000 
    120 CA        -2.7764  -19.2685  -55.4530 C.3       22 UNK         0.1400 
    121 C         -2.7755  -20.3638  -56.5649 C.2       22 UNK         0.5000 
    122 N         -1.6220  -20.6883  -57.1339 N.am      22 UNK        -0.7600 
    123 O         -3.7999  -20.9592  -56.8922 O.2       22 UNK        -0.5000 
    124 C124       -1.7847  -18.0917  -55.7043 C.3       23 UNK        -0.0398 
    125 S125       -0.1606  -18.3885  -54.9229 S.3       23 UNK        -0.2404 
    126 C126       -0.5656  -17.8973  -53.2185 C.3       23 UNK        -0.0205 
    127 H127        3.7388  -12.0924  -49.8064 H         1 UNK         0.0600 
    128 H128        4.2565  -11.1624  -48.3969 H         1 UNK         0.0600 
    129 H129        2.9635  -10.5494  -49.4330 H         1 UNK         0.0600 
    130 H130        2.4797  -13.8341  -49.2422 H         1 UNK         0.3000 
    131 H131        1.4912  -14.3319  -46.6809 H         1 UNK         0.0600 
    132 H132        0.4127  -16.3482  -47.6981 H         1 UNK         0.0800 
    133 H133        0.7189  -15.7169  -49.2953 H         1 UNK         0.0800 
    134 H134        3.0738  -15.7792  -50.4799 H         1 UNK         0.0800 
    135 H135        4.1730  -17.0626  -50.0477 H         1 UNK         0.0800 
    136 H136        1.1924  -16.3374  -51.8381 H         1 UNK         0.1150 
    137 H137        0.0057  -20.4215  -52.3660 H         1 UNK         0.1150 
    138 H138        3.1066  -19.4315  -49.5729 H         1 UNK         0.1150 
    139 H139        2.0022  -22.0904  -51.5370 H         1 UNK         0.0800 
    140 H140        2.5954  -21.7299  -49.9367 H         1 UNK         0.0800 
    141 H141       -0.5618  -21.1254  -48.0001 H         1 UNK         0.0800 
    142 H142        1.1769  -21.1682  -48.0035 H         1 UNK         0.0800 
    143 H143        1.1322  -23.6087  -47.4047 H         1 UNK         0.0600 
    144 H144        0.5227  -21.5149  -45.6294 H         1 UNK         0.3000 
    145 H145        0.4701  -23.4490  -42.5859 H         1 UNK         0.0600 
    146 H146        2.1009  -21.6521  -42.0411 H         1 UNK         0.0600 
    147 H147        2.8210  -22.8573  -43.0977 H         1 UNK         0.0600 
    148 H148        2.3214  -21.3067  -43.7551 H         1 UNK         0.0600 
    149 H149       -0.0414  -20.6937  -43.0120 H         1 UNK         0.3000 
    150 H150       -3.5783  -20.9642  -43.5953 H         1 UNK         0.0600 
    151 H151       -3.2584  -20.9391  -41.1311 H         1 UNK         0.0600 
    152 H152       -3.5336  -19.3127  -41.7384 H         1 UNK         0.0600 
    153 H153       -1.9079  -19.8252  -41.2929 H         1 UNK         0.0600 
    154 H154       -1.9186  -18.6785  -43.5606 H         1 UNK         0.3000 
    155 H155       -0.8850  -18.7935  -47.0091 H         1 UNK         0.0600 
    156 H156       -3.1462  -17.7215  -46.8817 H         1 UNK         0.0600 
    157 H157       -1.8499  -16.5445  -46.9337 H         1 UNK         0.0600 
    158 H158       -2.6699  -16.8845  -45.4138 H         1 UNK         0.0600 
    159 H159       -0.2633  -17.0485  -44.7933 H         1 UNK         0.3000 
    160 H160        2.5584  -18.8847  -43.6299 H         1 UNK         0.0600 
    161 H161        2.5192  -16.2629  -45.2042 H         1 UNK         0.0600 
    162 H162        3.5816  -17.6364  -45.4824 H         1 UNK         0.0600 
    163 H163        3.7201  -16.7112  -43.9957 H         1 UNK         0.0600 
    164 H164        1.2372  -16.3417  -43.0577 H         1 UNK         0.3000 
    165 H165       -0.8465  -17.6797  -40.4922 H         1 UNK         0.0600 
    166 H166        0.3755  -16.1009  -39.0210 H         1 UNK         0.0600 
    167 H167        1.3501  -17.5335  -39.3080 H         1 UNK         0.0600 
    168 H168        1.7228  -16.0387  -40.1583 H         1 UNK         0.0600 
    169 H169       -0.2336  -14.9987  -41.2678 H         1 UNK         0.3000 
    170 H170       -2.2156  -14.7694  -44.1509 H         1 UNK         0.0600 
    171 H171       -4.0558  -14.6984  -42.4538 H         1 UNK         0.0600 
    172 H172       -3.0515  -13.7076  -41.4011 H         1 UNK         0.0600 
    173 H173       -3.5817  -13.0865  -42.9650 H         1 UNK         0.0600 
    174 H174       -1.1945  -12.6149  -42.7975 H         1 UNK         0.3000 
    175 H175        1.1500  -11.9711  -42.6392 H         1 UNK         0.0600 
    176 H176        2.7589  -13.1497  -44.9691 H         1 UNK         0.0600 
    177 H177        3.2576  -11.8147  -43.9347 H         1 UNK         0.0600 
    178 H178        3.0754  -13.4277  -43.2615 H         1 UNK         0.0600 
    179 H179        1.1057  -11.4704  -45.5248 H         1 UNK         0.3000 
    180 H180       -1.7510   -9.2924  -45.3682 H         1 UNK         0.0600 
    181 H181        1.2075   -9.0365  -46.1342 H         1 UNK         0.0600 
    182 H182        0.3441   -8.0069  -44.9981 H         1 UNK         0.0600 
    183 H183       -0.1025   -8.0018  -46.6973 H         1 UNK         0.0600 
    184 H184       -0.0584  -10.8961  -47.2334 H         1 UNK         0.3000 
    185 H185       -2.7969  -12.8279  -48.3146 H         1 UNK         0.0600 
    186 H186       -3.1682  -10.8342  -49.7696 H         1 UNK         0.0600 
    187 H187       -1.4308  -10.6287  -49.9576 H         1 UNK         0.0600 
    188 H188       -2.2309  -12.0613  -50.6063 H         1 UNK         0.0600 
    189 H189       -0.0736  -12.5510  -49.2185 H         1 UNK         0.3000 
    190 H190       -2.0931  -22.4024  -46.3526 H         1 UNK         0.3000 
    191 H191       -3.7115  -24.1464  -47.7894 H         1 UNK         0.0600 
    192 H192       -4.2275  -22.9159  -45.0368 H         1 UNK         0.0600 
    193 H193       -5.4532  -23.5707  -46.1124 H         1 UNK         0.0600 
    194 H194       -4.5467  -22.1441  -46.5856 H         1 UNK         0.0600 
    195 H195       -2.2310  -24.6528  -44.5747 H         1 UNK         0.3000 
    196 H196       -3.4269  -27.2280  -44.1064 H         1 UNK         0.0600 
    197 H197       -1.7977  -27.3013  -42.2114 H         1 UNK         0.0600 
    198 H198       -2.6698  -25.7759  -42.2581 H         1 UNK         0.0600 
    199 H199       -1.0049  -25.8549  -42.8269 H         1 UNK         0.0600 
    200 H200       -0.1430  -26.2106  -45.2242 H         1 UNK         0.3000 
    201 H201        0.8259  -28.9206  -45.2354 H         1 UNK         0.0600 
    202 H202        2.2509  -26.9820  -44.6412 H         1 UNK         0.0600 
    203 H203        2.1006  -26.3426  -46.2774 H         1 UNK         0.0600 
    204 H204        2.9333  -27.8667  -45.9974 H         1 UNK         0.0600 
    205 H205       -0.1343  -26.6539  -47.8566 H         1 UNK         0.3000 
    206 H206        0.5141  -28.7656  -49.8968 H         1 UNK         0.0600 
    207 H207        2.2076  -26.9461  -49.8255 H         1 UNK         0.0600 
    208 H208        1.2794  -26.8760  -51.3164 H         1 UNK         0.0600 
    209 H209        0.9397  -25.7351  -50.0212 H         1 UNK         0.0600 
    210 H210       -1.6933  -26.2153  -48.9158 H         1 UNK         0.3000 
    211 H211       -3.7457  -25.6147  -49.4800 H         1 UNK         0.0600 
    212 H212       -3.9368  -27.7198  -51.6896 H         1 UNK         0.0600 
    213 H213       -5.2479  -26.8365  -50.9303 H         1 UNK         0.0600 
    214 H214       -4.3565  -28.0286  -50.0040 H         1 UNK         0.0600 
    215 H215       -4.9543  -24.7139  -51.5585 H         1 UNK         0.3000 
    216 H216       -5.0497  -23.0493  -53.0201 H         1 UNK         0.0600 
    217 H217       -3.5894  -23.0613  -55.0019 H         1 UNK         0.0600 
    218 H218       -4.0838  -24.7020  -54.6163 H         1 UNK         0.0600 
    219 H219       -2.4558  -24.1522  -54.2225 H         1 UNK         0.0600 
    220 H220       -4.5499  -22.0516  -50.7971 H         1 UNK         0.3000 
    221 H221       -2.0771  -20.5761  -50.4865 H         1 UNK         0.0600 
    222 H222       -4.7255  -20.4693  -48.9400 H         1 UNK         0.0600 
    223 H223       -3.3598  -21.5235  -48.5725 H         1 UNK         0.0600 
    224 H224       -3.1933  -19.7917  -48.4032 H         1 UNK         0.0600 
    225 H225       -2.6595  -18.1872  -49.5660 H         1 UNK         0.3000 
    226 H226       -2.7412  -16.5102  -51.7771 H         1 UNK         0.0600 
    227 H227       -1.6691  -15.9870  -49.5792 H         1 UNK         0.0600 
    228 H228       -2.7438  -14.6957  -50.0844 H         1 UNK         0.0600 
    229 H229       -3.2603  -15.8196  -48.8357 H         1 UNK         0.0600 
    230 H230       -4.1236  -14.8473  -52.4128 H         1 UNK         0.3000 
    231 H231       -5.9539  -13.9699  -53.2356 H         1 UNK         0.0600 
    232 H232       -8.0534  -13.8259  -52.0198 H         1 UNK         0.0600 
    233 H233       -6.7433  -13.6474  -50.8648 H         1 UNK         0.0600 
    234 H234       -7.6281  -15.1697  -50.9752 H         1 UNK         0.0600 
    235 H235       -5.0379  -16.7830  -53.7888 H         1 UNK         0.3000 
    236 H236       -6.9609  -17.3131  -55.8766 H         1 UNK         0.0600 
    237 H237       -6.5057  -19.4292  -53.6923 H         1 UNK         0.0600 
    238 H238       -8.0388  -18.6859  -54.1331 H         1 UNK         0.0600 
    239 H239       -7.2266  -19.7557  -55.2653 H         1 UNK         0.0600 
    240 H240       -4.3386  -18.9845  -54.0730 H         1 UNK         0.3000 
    241 H241       -2.4424  -19.8068  -54.5695 H         1 UNK         0.0600 
    242 H242       -0.7604  -20.2430  -56.8561 H         1 UNK         0.3800 
    243 H243       -1.6068  -21.4064  -57.8412 H         1 UNK         0.3800 
    244 H244       -1.6485  -17.9032  -56.7706 H         1 UNK         0.0800 
    245 H245       -2.1776  -17.1575  -55.3003 H         1 UNK         0.0800 
    246 H246       -0.7109  -16.8167  -53.1851 H         1 UNK         0.0800 
    247 H247       -1.5154  -18.3469  -52.9379 H         1 UNK         0.0800 
@<TRIPOS>BOND
     1    1    2 1    
     2    1  127 1    
     3    1  128 1    
     4    1  129 1    
     5    2    3 2    
     6    2    4 am   BACKBONE|DICT|INTERRES
     7    4    5 1    
     8    4  130 1    
     9    5    6 1    
    10    5   65 1    
    11    5  131 1    
    12    6    7 1    
    13    6  132 1    
    14    6  133 1    
    15    7    8 1    
    16    8    9 1    
    17    8  134 1    
    18    8  135 1    
    19    9   10 ar   
    20    9   14 ar   
    21   10   11 ar   
    22   10  136 1    
    23   11   12 ar   
    24   11  126 1    
    25   12   13 ar   
    26   12  137 1    
    27   13   14 ar   
    28   13   15 1    
    29   14  138 1    
    30   15   16 1    
    31   15  139 1    
    32   15  140 1    
    33   16   17 1    
    34   17   18 1    
    35   17  141 1    
    36   17  142 1    
    37   18   19 1    
    38   18   67 1    
    39   18  143 1    
    40   19   20 am   BACKBONE|DICT|INTERRES
    41   19  144 1    
    42   20   21 2    
    43   20   22 1    
    44   22   23 1    
    45   22   24 1    
    46   22  145 1    
    47   23  146 1    
    48   23  147 1    
    49   23  148 1    
    50   24   25 am   BACKBONE|DICT|INTERRES
    51   24  149 1    
    52   25   26 2    
    53   25   27 1    
    54   27   28 1    
    55   27   29 1    
    56   27  150 1    
    57   28  151 1    
    58   28  152 1    
    59   28  153 1    
    60   29   30 am   BACKBONE|DICT|INTERRES
    61   29  154 1    
    62   30   31 2    
    63   30   32 1    
    64   32   33 1    
    65   32   34 1    
    66   32  155 1    
    67   33  156 1    
    68   33  157 1    
    69   33  158 1    
    70   34   35 am   BACKBONE|DICT|INTERRES
    71   34  159 1    
    72   35   36 2    
    73   35   37 1    
    74   37   38 1    
    75   37   39 1    
    76   37  160 1    
    77   38  161 1    
    78   38  162 1    
    79   38  163 1    
    80   39   40 am   BACKBONE|DICT|INTERRES
    81   39  164 1    
    82   40   41 2    
    83   40   42 1    
    84   42   43 1    
    85   42   44 1    
    86   42  165 1    
    87   43  166 1    
    88   43  167 1    
    89   43  168 1    
    90   44   45 am   BACKBONE|DICT|INTERRES
    91   44  169 1    
    92   45   46 2    
    93   45   47 1    
    94   47   48 1    
    95   47   49 1    
    96   47  170 1    
    97   48  171 1    
    98   48  172 1    
    99   48  173 1    
   100   49   50 am   BACKBONE|DICT|INTERRES
   101   49  174 1    
   102   50   51 2    
   103   50   52 1    
   104   52   53 1    
   105   52   54 1    
   106   52  175 1    
   107   53  176 1    
   108   53  177 1    
   109   53  178 1    
   110   54   55 am   BACKBONE|DICT|INTERRES
   111   54  179 1    
   112   55   56 2    
   113   55   57 1    
   114   57   58 1    
   115   57   59 1    
   116   57  180 1    
   117   58  181 1    
   118   58  182 1    
   119   58  183 1    
   120   59   60 am   BACKBONE|DICT|INTERRES
   121   59  184 1    
   122   60   61 2    
   123   60   62 1    
   124   62   63 1    
   125   62   64 1    
   126   62  185 1    
   127   63  186 1    
   128   63  187 1    
   129   63  188 1    
   130   64   65 am   BACKBONE|DICT|INTERRES
   131   64  189 1    
   132   65   66 2    
   133   67   68 2    
   134   67   69 am   BACKBONE|DICT|INTERRES
   135   69   70 1    
   136   69  190 1    
   137   70   71 1    
   138   70   72 1    
   139   70  191 1    
   140   71  192 1    
   141   71  193 1    
   142   71  194 1    
   143   72   73 2    
   144   72   74 am   BACKBONE|DICT|INTERRES
   145   74   75 1    
   146   74  195 1    
   147   75   76 1    
   148   75   77 1    
   149   75  196 1    
   150   76  197 1    
   151   76  198 1    
   152   76  199 1    
   153   77   78 2    
   154   77   79 am   BACKBONE|DICT|INTERRES
   155   79   80 1    
   156   79  200 1    
   157   80   81 1    
   158   80   82 1    
   159   80  201 1    
   160   81  202 1    
   161   81  203 1    
   162   81  204 1    
   163   82   83 2    
   164   82   84 am   BACKBONE|DICT|INTERRES
   165   84   85 1    
   166   84  205 1    
   167   85   86 1    
   168   85   87 1    
   169   85  206 1    
   170   86  207 1    
   171   86  208 1    
   172   86  209 1    
   173   87   88 2    
   174   87   89 am   BACKBONE|DICT|INTERRES
   175   89   90 1    
   176   89  210 1    
   177   90   91 1    
   178   90   92 1    
   179   90  211 1    
   180   91  212 1    
   181   91  213 1    
   182   91  214 1    
   183   92   93 2    
   184   92   94 am   BACKBONE|DICT|INTERRES
   185   94   95 1    
   186   94  215 1    
   187   95   96 1    
   188   95   97 1    
   189   95  216 1    
   190   96  217 1    
   191   96  218 1    
   192   96  219 1    
   193   97   98 2    
   194   97   99 am   BACKBONE|DICT|INTERRES
   195   99  100 1    
   196   99  220 1    
   197  100  101 1    
   198  100  102 1    
   199  100  221 1    
   200  101  222 1    
   201  101  223 1    
   202  101  224 1    
   203  102  103 2    
   204  102  104 am   BACKBONE|DICT|INTERRES
   205  104  105 1    
   206  104  225 1    
   207  105  106 1    
   208  105  107 1    
   209  105  226 1    
   210  106  227 1    
   211  106  228 1    
   212  106  229 1    
   213  107  108 2    
   214  107  109 am   BACKBONE|DICT|INTERRES
   215  109  110 1    
   216  109  230 1    
   217  110  111 1    
   218  110  112 1    
   219  110  231 1    
   220  111  232 1    
   221  111  233 1    
   222  111  234 1    
   223  112  113 2    
   224  112  114 am   BACKBONE|DICT|INTERRES
   225  114  115 1    
   226  114  235 1    
   227  115  116 1    
   228  115  117 1    
   229  115  236 1    
   230  116  237 1    
   231  116  238 1    
   232  116  239 1    
   233  117  118 2    
   234  117  119 am   BACKBONE|DICT|INTERRES
   235  119  120 1    
   236  119  240 1    
   237  120  121 1    
   238  120  124 1    
   239  120  241 1    
   240  121  122 am   BACKBONE|DICT|INTERRES
   241  121  123 2    
   242  122  242 1    
   243  122  243 1    
   244  124  125 1    
   245  124  244 1    
   246  124  245 1    
   247  125  126 1    
   248  126  246 1    
   249  126  247 1    
@<TRIPOS>SUBSTRUCTURE
     1 UNK         1 GROUP             0       ****    0 ROOT    
