@<TRIPOS>MOLECULE
3R540
247   249    1
SMALL
USER_CHARGES


@<TRIPOS>ATOM
      1 CA         -0.4836  -16.6778  -52.7621 C.3       0 UNK        -0.1800 
      2 C          -0.0066  -15.4267  -52.0391 C.2       0 UNK         0.5000 
      3 O           0.6470  -14.5878  -52.6595 O.2       0 UNK        -0.5000 
      4 N          -0.3213  -15.3020  -50.7431 N.am      1 UNK        -0.5000 
      5 CA          0.1002  -14.1766  -49.8899 C.3       1 UNK         0.1400 
      6 C6          1.1119  -14.5753  -48.7792 C.3       23 UNK        -0.0398 
      7 S7          2.4385  -15.7146  -49.3097 S.3       23 UNK        -0.2404 
      8 C8          1.7813  -17.2291  -48.5555 C.3       23 UNK        -0.0205 
      9 C9          2.2883  -18.4981  -49.2141 C.ar      23 UNK        -0.0193 
     10 C10         1.7350  -18.9067  -50.4267 C.ar      23 UNK        -0.1150 
     11 C11         2.1023  -20.1223  -51.0083 C.ar      23 UNK        -0.0193 
     12 C12         3.0603  -20.9202  -50.3717 C.ar      23 UNK        -0.1150 
     13 C13         3.6399  -20.5122  -49.1643 C.ar      23 UNK        -0.0193 
     14 C14         3.2473  -19.2987  -48.5898 C.ar      23 UNK        -0.1150 
     15 C15         4.7153  -21.3617  -48.4967 C.3       23 UNK        -0.0205 
     16 S16         4.0631  -22.8737  -47.7127 S.3       23 UNK        -0.2404 
     17 C17         3.0620  -22.2038  -46.3382 C.3       23 UNK        -0.0398 
     18 CA          1.6670  -22.8646  -46.2078 C.3       11 UNK         0.1400 
     19 N           0.9806  -22.4360  -44.9837 N.am      11 UNK        -0.5000 
     20 C          -0.1672  -22.9598  -44.5284 C.2       10 UNK         0.5000 
     21 O          -0.7360  -23.9166  -45.0512 O.2       10 UNK        -0.5000 
     22 CA         -0.8213  -22.2720  -43.3175 C.3       10 UNK         0.1400 
     23 CB         -0.1809  -22.7542  -42.0079 C.3       10 UNK        -0.1800 
     24 N          -0.7647  -20.8114  -43.3988 N.am      10 UNK        -0.5000 
     25 C          -1.3735  -20.0806  -44.3452 C.2       9 UNK         0.5000 
     26 O          -2.0992  -20.5622  -45.2138 O.2       9 UNK        -0.5000 
     27 CA         -1.0829  -18.5683  -44.3634 C.3       9 UNK         0.1400 
     28 CB         -1.9755  -17.8208  -43.3624 C.3       9 UNK        -0.1800 
     29 N           0.3193  -18.2598  -44.0888 N.am      9 UNK        -0.5000 
     30 C           1.3525  -18.6508  -44.8454 C.2       8 UNK         0.5000 
     31 O           1.2316  -19.2956  -45.8849 O.2       8 UNK        -0.5000 
     32 CA          2.7576  -18.3235  -44.3146 C.3       8 UNK         0.1400 
     33 CB          3.1292  -16.8520  -44.5567 C.3       8 UNK        -0.1800 
     34 N           2.8667  -18.6225  -42.8887 N.am      8 UNK        -0.5000 
     35 C           2.8913  -19.8585  -42.3737 C.2       7 UNK         0.5000 
     36 O           2.8597  -20.8840  -43.0555 O.2       7 UNK        -0.5000 
     37 CA          2.9285  -19.9593  -40.8369 C.3       7 UNK         0.1400 
     38 CB          4.3717  -19.8490  -40.3230 C.3       7 UNK        -0.1800 
     39 N           2.1006  -18.9446  -40.1785 N.am      7 UNK        -0.5000 
     40 C           0.7616  -18.9255  -40.2268 C.2       6 UNK         0.5000 
     41 O           0.0901  -19.7601  -40.8307 O.2       6 UNK        -0.5000 
     42 CA          0.0493  -17.7573  -39.5188 C.3       6 UNK         0.1400 
     43 CB         -0.0720  -18.0341  -38.0126 C.3       6 UNK        -0.1800 
     44 N           0.6613  -16.4392  -39.7235 N.am      6 UNK        -0.5000 
     45 C           0.9374  -15.8893  -40.9133 C.2       5 UNK         0.5000 
     46 O           0.8544  -16.4958  -41.9824 O.2       5 UNK        -0.5000 
     47 CA          1.4110  -14.4225  -40.9063 C.3       5 UNK         0.1400 
     48 CB          2.9189  -14.3559  -40.6188 C.3       5 UNK        -0.1800 
     49 N           1.1480  -13.7505  -42.1824 N.am      5 UNK        -0.5000 
     50 C          -0.0644  -13.5625  -42.7229 C.2       4 UNK         0.5000 
     51 O          -1.1195  -13.8201  -42.1356 O.2       4 UNK        -0.5000 
     52 CA         -0.0835  -13.0045  -44.1615 C.3       4 UNK         0.1400 
     53 CB          0.7524  -13.8713  -45.1188 C.3       4 UNK        -0.1800 
     54 N          -1.4423  -12.9353  -44.6930 N.am      4 UNK        -0.5000 
     55 C          -2.3112  -11.9398  -44.4991 C.2       3 UNK         0.5000 
     56 O          -2.0237  -10.8890  -43.9215 O.2       3 UNK        -0.5000 
     57 CA         -3.7350  -12.1648  -45.0583 C.3       3 UNK         0.1400 
     58 CB         -4.6768  -10.9794  -44.7781 C.3       3 UNK        -0.1800 
     59 N          -3.7508  -12.4404  -46.4983 N.am      3 UNK        -0.5000 
     60 C          -3.3984  -13.5897  -47.0899 C.2       2 UNK         0.5000 
     61 O          -2.9830  -14.5712  -46.4699 O.2       2 UNK        -0.5000 
     62 CA         -3.5386  -13.6808  -48.6242 C.3       2 UNK         0.1400 
     63 CB         -4.0904  -12.4061  -49.3033 C.3       2 UNK        -0.1800 
     64 N          -2.2867  -14.1154  -49.2493 N.am      2 UNK        -0.5000 
     65 C          -1.1111  -13.4656  -49.2503 C.2       1 UNK         0.5000 
     66 O          -0.9498  -12.3475  -48.7597 O.2       1 UNK        -0.5000 
     67 C           0.7843  -22.6409  -47.4556 C.2       11 UNK         0.5000 
     68 O           0.6458  -23.5474  -48.2766 O.2       11 UNK        -0.5000 
     69 N           0.1575  -21.4619  -47.5403 N.am      12 UNK        -0.5000 
     70 CA         -0.7528  -21.0777  -48.6171 C.3       12 UNK         0.1400 
     71 CB         -1.1025  -19.5949  -48.4469 C.3       12 UNK        -0.1800 
     72 C          -2.0257  -21.9454  -48.6628 C.2       12 UNK         0.5000 
     73 O          -2.4639  -22.3425  -49.7435 O.2       12 UNK        -0.5000 
     74 N          -2.5797  -22.2526  -47.4821 N.am      13 UNK        -0.5000 
     75 CA         -3.7095  -23.1616  -47.3109 C.3       13 UNK         0.1400 
     76 CB         -4.2308  -23.0788  -45.8694 C.3       13 UNK        -0.1800 
     77 C          -3.3528  -24.6105  -47.6892 C.2       13 UNK         0.5000 
     78 O          -4.1273  -25.2609  -48.3902 O.2       13 UNK        -0.5000 
     79 N          -2.1733  -25.0799  -47.2612 N.am      14 UNK        -0.5000 
     80 CA         -1.6421  -26.4033  -47.5924 C.3       14 UNK         0.1400 
     81 CB         -0.3866  -26.6794  -46.7513 C.3       14 UNK        -0.1800 
     82 C          -1.3412  -26.5868  -49.0925 C.2       14 UNK         0.5000 
     83 O          -1.4501  -27.7084  -49.5896 O.2       14 UNK        -0.5000 
     84 N          -0.9752  -25.4958  -49.7818 N.am      15 UNK        -0.5000 
     85 CA         -0.6826  -25.4721  -51.2130 C.3       15 UNK         0.1400 
     86 CB         -0.0739  -24.1172  -51.6114 C.3       15 UNK        -0.1800 
     87 C          -1.9079  -25.8144  -52.0797 C.2       15 UNK         0.5000 
     88 O          -1.8275  -26.7529  -52.8744 O.2       15 UNK        -0.5000 
     89 N          -3.0132  -25.0694  -51.9174 N.am      16 UNK        -0.5000 
     90 CA         -4.2243  -25.2454  -52.7295 C.3       16 UNK         0.1400 
     91 CB         -3.9818  -24.7482  -54.1719 C.3       16 UNK        -0.1800 
     92 C          -5.4753  -24.5838  -52.1196 C.2       16 UNK         0.5000 
     93 O          -6.3694  -24.1961  -52.8740 O.2       16 UNK        -0.5000 
     94 N          -5.5355  -24.4405  -50.7869 N.am      17 UNK        -0.5000 
     95 CA         -6.6183  -23.8427  -49.9832 C.3       17 UNK         0.1400 
     96 CB         -7.9450  -24.6059  -50.1611 C.3       17 UNK        -0.1800 
     97 C          -6.8210  -22.3247  -50.1765 C.2       17 UNK         0.5000 
     98 O          -6.9890  -21.6081  -49.1888 O.2       17 UNK        -0.5000 
     99 N          -6.8015  -21.8583  -51.4296 N.am      18 UNK        -0.5000 
    100 CA        -6.9166  -20.4649  -51.8485 C.3       18 UNK         0.1400 
    101 CB        -7.2417  -20.4297  -53.3524 C.3       18 UNK        -0.1800 
    102 C         -5.6318  -19.6844  -51.5196 C.2       18 UNK         0.5000 
    103 O         -4.7891  -19.4819  -52.3956 O.2       18 UNK        -0.5000 
    104 N         -5.5017  -19.2644  -50.2557 N.am      19 UNK        -0.5000 
    105 CA        -4.3196  -18.6189  -49.6751 C.3       19 UNK         0.1400 
    106 CB        -4.5637  -18.4083  -48.1722 C.3       19 UNK        -0.1800 
    107 C         -3.8775  -17.2953  -50.3350 C.2       19 UNK         0.5000 
    108 O         -2.7485  -16.8515  -50.1145 O.2       19 UNK        -0.5000 
    109 N         -4.7699  -16.6814  -51.1189 N.am      20 UNK        -0.5000 
    110 CA        -4.5198  -15.4712  -51.8970 C.3       20 UNK         0.1400 
    111 CB        -5.8296  -14.6711  -51.9790 C.3       20 UNK        -0.1800 
    112 C         -3.9621  -15.7500  -53.3069 C.2       20 UNK         0.5000 
    113 O         -3.5983  -14.7893  -53.9864 O.2       20 UNK        -0.5000 
    114 N         -3.9156  -17.0197  -53.7407 N.am      21 UNK        -0.5000 
    115 CA        -3.5411  -17.3934  -55.1075 C.3       21 UNK         0.1400 
    116 CB        -4.8188  -17.6484  -55.9252 C.3       21 UNK        -0.1800 
    117 C         -2.6023  -18.6081  -55.1884 C.2       21 UNK         0.5000 
    118 O         -1.7114  -18.6083  -56.0386 O.2       21 UNK        -0.5000 
    119 N         -2.8283  -19.6279  -54.3482 N.am      22 UNK        -0.5000 
    120 CA        -2.1772  -20.9531  -54.4113 C.3       22 UNK         0.1400 
    121 C         -2.4803  -21.7469  -55.7232 C.2       22 UNK         0.5000 
    122 N         -3.5928  -21.4913  -56.4021 N.am      22 UNK        -0.7600 
    123 O         -1.7214  -22.6260  -56.1223 O.2       22 UNK        -0.5000 
    124 C124       -0.6600  -20.9220  -54.0729 C.3       23 UNK        -0.0398 
    125 S125       -0.3289  -20.3613  -52.3746 S.3       23 UNK        -0.2404 
    126 C126        1.4851  -20.5585  -52.3321 C.3       23 UNK        -0.0205 
    127 H127       -1.0220  -16.4008  -53.6673 H         1 UNK         0.0600 
    128 H128       -1.1416  -17.2885  -52.1451 H         1 UNK         0.0600 
    129 H129        0.3697  -17.2892  -53.0552 H         1 UNK         0.0600 
    130 H130       -0.8979  -16.0137  -50.3082 H         1 UNK         0.3000 
    131 H131        0.5879  -13.4176  -50.5044 H         1 UNK         0.0600 
    132 H132        0.5919  -15.0174  -47.9274 H         1 UNK         0.0800 
    133 H133        1.5937  -13.6770  -48.3900 H         1 UNK         0.0800 
    134 H134        0.6956  -17.2102  -48.6405 H         1 UNK         0.0800 
    135 H135        2.0034  -17.2305  -47.4904 H         1 UNK         0.0800 
    136 H136        0.9931  -18.2842  -50.9037 H         1 UNK         0.1150 
    137 H137        3.3620  -21.8585  -50.8155 H         1 UNK         0.1150 
    138 H138        3.6756  -18.9826  -47.6493 H         1 UNK         0.1150 
    139 H139        5.4521  -21.6503  -49.2475 H         1 UNK         0.0800 
    140 H140        5.2590  -20.7797  -47.7509 H         1 UNK         0.0800 
    141 H141        2.9650  -21.1244  -46.4422 H         1 UNK         0.0800 
    142 H142        3.6274  -22.3608  -45.4187 H         1 UNK         0.0800 
    143 H143        1.8225  -23.9416  -46.1165 H         1 UNK         0.0600 
    144 H144        1.3966  -21.6633  -44.4774 H         1 UNK         0.3000 
    145 H145       -1.8739  -22.5619  -43.3031 H         1 UNK         0.0600 
    146 H146       -0.7133  -22.3612  -41.1418 H         1 UNK         0.0600 
    147 H147        0.8613  -22.4445  -41.9299 H         1 UNK         0.0600 
    148 H148       -0.2072  -23.8423  -41.9371 H         1 UNK         0.0600 
    149 H149       -0.2401  -20.3365  -42.6703 H         1 UNK         0.3000 
    150 H150       -1.3123  -18.1995  -45.3654 H         1 UNK         0.0600 
    151 H151       -3.0308  -18.0072  -43.5649 H         1 UNK         0.0600 
    152 H152       -1.8165  -16.7435  -43.4216 H         1 UNK         0.0600 
    153 H153       -1.7753  -18.1312  -42.3365 H         1 UNK         0.0600 
    154 H154        0.5107  -17.7063  -43.2548 H         1 UNK         0.3000 
    155 H155        3.4742  -18.9472  -44.8535 H         1 UNK         0.0600 
    156 H156        3.1214  -16.6102  -45.6186 H         1 UNK         0.0600 
    157 H157        4.1314  -16.6351  -44.1870 H         1 UNK         0.0600 
    158 H158        2.4383  -16.1717  -44.0603 H         1 UNK         0.0600 
    159 H159        2.8084  -17.8370  -42.2568 H         1 UNK         0.3000 
    160 H160        2.5444  -20.9437  -40.5609 H         1 UNK         0.0600 
    161 H161        4.8064  -18.8736  -40.5453 H         1 UNK         0.0600 
    162 H162        5.0086  -20.6052  -40.7840 H         1 UNK         0.0600 
    163 H163        4.4186  -20.0001  -39.2444 H         1 UNK         0.0600 
    164 H164        2.5787  -18.2152  -39.6704 H         1 UNK         0.3000 
    165 H165       -0.9603  -17.7038  -39.9310 H         1 UNK         0.0600 
    166 H166       -0.6874  -17.2806  -37.5207 H         1 UNK         0.0600 
    167 H167       -0.5396  -19.0025  -37.8291 H         1 UNK         0.0600 
    168 H168        0.9033  -18.0426  -37.5245 H         1 UNK         0.0600 
    169 H169        0.7859  -15.8777  -38.8935 H         1 UNK         0.3000 
    170 H170        0.8727  -13.8859  -40.1226 H         1 UNK         0.0600 
    171 H171        3.4975  -14.8745  -41.3846 H         1 UNK         0.0600 
    172 H172        3.2675  -13.3237  -40.5762 H         1 UNK         0.0600 
    173 H173        3.1580  -14.8163  -39.6593 H         1 UNK         0.0600 
    174 H174        1.9610  -13.5235  -42.7348 H         1 UNK         0.3000 
    175 H175        0.3460  -12.0009  -44.1376 H         1 UNK         0.0600 
    176 H176        0.3943  -14.9017  -45.1490 H         1 UNK         0.0600 
    177 H177        0.7086  -13.4675  -46.1290 H         1 UNK         0.0600 
    178 H178        1.8041  -13.8915  -44.8330 H         1 UNK         0.0600 
    179 H179       -1.7838  -13.7577  -45.1809 H         1 UNK         0.3000 
    180 H180       -4.1420  -13.0351  -44.5391 H         1 UNK         0.0600 
    181 H181       -5.6902  -11.1912  -45.1196 H         1 UNK         0.0600 
    182 H182       -4.3382  -10.0696  -45.2753 H         1 UNK         0.0600 
    183 H183       -4.7352  -10.7689  -43.7093 H         1 UNK         0.0600 
    184 H184       -4.0369  -11.6739  -47.0896 H         1 UNK         0.3000 
    185 H185       -4.2582  -14.4802  -48.8063 H         1 UNK         0.0600 
    186 H186       -3.4546  -11.5365  -49.1353 H         1 UNK         0.0600 
    187 H187       -4.1750  -12.5446  -50.3810 H         1 UNK         0.0600 
    188 H188       -5.0887  -12.1656  -48.9358 H         1 UNK         0.0600 
    189 H189       -2.3163  -15.0558  -49.6299 H         1 UNK         0.3000 
    190 H190        0.3601  -20.7533  -46.8411 H         1 UNK         0.3000 
    191 H191       -0.2114  -21.2080  -49.5548 H         1 UNK         0.0600 
    192 H192       -1.9588  -19.4486  -47.7900 H         1 UNK         0.0600 
    193 H193       -1.3153  -19.1346  -49.4107 H         1 UNK         0.0600 
    194 H194       -0.2777  -19.0454  -48.0056 H         1 UNK         0.0600 
    195 H195       -2.2042  -21.8240  -46.6401 H         1 UNK         0.3000 
    196 H196       -4.5050  -22.8233  -47.9763 H         1 UNK         0.0600 
    197 H197       -4.5461  -22.0646  -45.6235 H         1 UNK         0.0600 
    198 H198       -3.4701  -23.3761  -45.1473 H         1 UNK         0.0600 
    199 H199       -5.0929  -23.7316  -45.7281 H         1 UNK         0.0600 
    200 H200       -1.6033  -24.5038  -46.6471 H         1 UNK         0.3000 
    201 H201       -2.3994  -27.1411  -47.3194 H         1 UNK         0.0600 
    202 H202       -0.6108  -26.6445  -45.6852 H         1 UNK         0.0600 
    203 H203        0.3999  -25.9517  -46.9524 H         1 UNK         0.0600 
    204 H204        0.0187  -27.6691  -46.9656 H         1 UNK         0.0600 
    205 H205       -0.8228  -24.6333  -49.2708 H         1 UNK         0.3000 
    206 H206        0.0748  -26.2364  -51.3994 H         1 UNK         0.0600 
    207 H207        0.1960  -24.1077  -52.6680 H         1 UNK         0.0600 
    208 H208       -0.7670  -23.2936  -51.4474 H         1 UNK         0.0600 
    209 H209        0.8324  -23.9067  -51.0434 H         1 UNK         0.0600 
    210 H210       -3.0055  -24.3062  -51.2517 H         1 UNK         0.3000 
    211 H211       -4.4486  -26.3131  -52.7715 H         1 UNK         0.0600 
    212 H212       -3.8608  -23.6670  -54.1901 H         1 UNK         0.0600 
    213 H213       -4.8233  -24.9927  -54.8211 H         1 UNK         0.0600 
    214 H214       -3.0969  -25.1928  -54.6260 H         1 UNK         0.0600 
    215 H215       -4.7780  -24.8164  -50.2250 H         1 UNK         0.3000 
    216 H216       -6.3253  -23.9779  -48.9426 H         1 UNK         0.0600 
    217 H217       -8.7018  -24.2321  -49.4704 H         1 UNK         0.0600 
    218 H218       -7.8174  -25.6691  -49.9576 H         1 UNK         0.0600 
    219 H219       -8.3490  -24.5024  -51.1683 H         1 UNK         0.0600 
    220 H220       -6.6614  -22.5458  -52.1664 H         1 UNK         0.3000 
    221 H221       -7.7465  -20.0013  -51.3112 H         1 UNK         0.0600 
    222 H222       -6.4725  -20.9275  -53.9446 H         1 UNK         0.0600 
    223 H223       -8.1918  -20.9220  -53.5605 H         1 UNK         0.0600 
    224 H224       -7.3219  -19.4030  -53.7122 H         1 UNK         0.0600 
    225 H225       -6.2204  -19.5453  -49.6000 H         1 UNK         0.3000 
    226 H226       -3.4997  -19.3239  -49.8029 H         1 UNK         0.0600 
    227 H227       -4.6841  -19.3615  -47.6561 H         1 UNK         0.0600 
    228 H228       -3.7291  -17.8877  -47.7001 H         1 UNK         0.0600 
    229 H229       -5.4587  -17.8117  -47.9923 H         1 UNK         0.0600 
    230 H230       -5.6751  -17.1129  -51.2329 H         1 UNK         0.3000 
    231 H231       -3.7811  -14.8531  -51.3875 H         1 UNK         0.0600 
    232 H232       -5.6839  -13.7315  -52.5136 H         1 UNK         0.0600 
    233 H233       -6.2009  -14.4209  -50.9849 H         1 UNK         0.0600 
    234 H234       -6.6096  -15.2280  -52.4996 H         1 UNK         0.0600 
    235 H235       -4.2038  -17.7715  -53.1229 H         1 UNK         0.3000 
    236 H236       -3.0010  -16.5728  -55.5844 H         1 UNK         0.0600 
    237 H237       -5.4284  -18.4366  -55.4816 H         1 UNK         0.0600 
    238 H238       -5.4309  -16.7485  -55.9876 H         1 UNK         0.0600 
    239 H239       -4.5797  -17.9492  -56.9462 H         1 UNK         0.0600 
    240 H240       -3.5758  -19.5533  -53.6609 H         1 UNK         0.3000 
    241 H241       -2.6589  -21.5421  -53.6299 H         1 UNK         0.0600 
    242 H242       -4.2389  -20.7868  -56.0873 H         1 UNK         0.3800 
    243 H243       -3.7876  -22.0117  -57.2428 H         1 UNK         0.3800 
    244 H244       -0.2274  -21.9195  -54.1637 H         1 UNK         0.0800 
    245 H245       -0.1160  -20.2884  -54.7740 H         1 UNK         0.0800 
    246 H246        1.9293  -19.9674  -53.1338 H         1 UNK         0.0800 
    247 H247        1.7277  -21.6023  -52.5372 H         1 UNK         0.0800 
@<TRIPOS>BOND
     1    1    2 1    
     2    1  127 1    
     3    1  128 1    
     4    1  129 1    
     5    2    3 2    
     6    2    4 am   BACKBONE|DICT|INTERRES
     7    4    5 1    
     8    4  130 1    
     9    5    6 1    
    10    5   65 1    
    11    5  131 1    
    12    6    7 1    
    13    6  132 1    
    14    6  133 1    
    15    7    8 1    
    16    8    9 1    
    17    8  134 1    
    18    8  135 1    
    19    9   10 ar   
    20    9   14 ar   
    21   10   11 ar   
    22   10  136 1    
    23   11   12 ar   
    24   11  126 1    
    25   12   13 ar   
    26   12  137 1    
    27   13   14 ar   
    28   13   15 1    
    29   14  138 1    
    30   15   16 1    
    31   15  139 1    
    32   15  140 1    
    33   16   17 1    
    34   17   18 1    
    35   17  141 1    
    36   17  142 1    
    37   18   19 1    
    38   18   67 1    
    39   18  143 1    
    40   19   20 am   BACKBONE|DICT|INTERRES
    41   19  144 1    
    42   20   21 2    
    43   20   22 1    
    44   22   23 1    
    45   22   24 1    
    46   22  145 1    
    47   23  146 1    
    48   23  147 1    
    49   23  148 1    
    50   24   25 am   BACKBONE|DICT|INTERRES
    51   24  149 1    
    52   25   26 2    
    53   25   27 1    
    54   27   28 1    
    55   27   29 1    
    56   27  150 1    
    57   28  151 1    
    58   28  152 1    
    59   28  153 1    
    60   29   30 am   BACKBONE|DICT|INTERRES
    61   29  154 1    
    62   30   31 2    
    63   30   32 1    
    64   32   33 1    
    65   32   34 1    
    66   32  155 1    
    67   33  156 1    
    68   33  157 1    
    69   33  158 1    
    70   34   35 am   BACKBONE|DICT|INTERRES
    71   34  159 1    
    72   35   36 2    
    73   35   37 1    
    74   37   38 1    
    75   37   39 1    
    76   37  160 1    
    77   38  161 1    
    78   38  162 1    
    79   38  163 1    
    80   39   40 am   BACKBONE|DICT|INTERRES
    81   39  164 1    
    82   40   41 2    
    83   40   42 1    
    84   42   43 1    
    85   42   44 1    
    86   42  165 1    
    87   43  166 1    
    88   43  167 1    
    89   43  168 1    
    90   44   45 am   BACKBONE|DICT|INTERRES
    91   44  169 1    
    92   45   46 2    
    93   45   47 1    
    94   47   48 1    
    95   47   49 1    
    96   47  170 1    
    97   48  171 1    
    98   48  172 1    
    99   48  173 1    
   100   49   50 am   BACKBONE|DICT|INTERRES
   101   49  174 1    
   102   50   51 2    
   103   50   52 1    
   104   52   53 1    
   105   52   54 1    
   106   52  175 1    
   107   53  176 1    
   108   53  177 1    
   109   53  178 1    
   110   54   55 am   BACKBONE|DICT|INTERRES
   111   54  179 1    
   112   55   56 2    
   113   55   57 1    
   114   57   58 1    
   115   57   59 1    
   116   57  180 1    
   117   58  181 1    
   118   58  182 1    
   119   58  183 1    
   120   59   60 am   BACKBONE|DICT|INTERRES
   121   59  184 1    
   122   60   61 2    
   123   60   62 1    
   124   62   63 1    
   125   62   64 1    
   126   62  185 1    
   127   63  186 1    
   128   63  187 1    
   129   63  188 1    
   130   64   65 am   BACKBONE|DICT|INTERRES
   131   64  189 1    
   132   65   66 2    
   133   67   68 2    
   134   67   69 am   BACKBONE|DICT|INTERRES
   135   69   70 1    
   136   69  190 1    
   137   70   71 1    
   138   70   72 1    
   139   70  191 1    
   140   71  192 1    
   141   71  193 1    
   142   71  194 1    
   143   72   73 2    
   144   72   74 am   BACKBONE|DICT|INTERRES
   145   74   75 1    
   146   74  195 1    
   147   75   76 1    
   148   75   77 1    
   149   75  196 1    
   150   76  197 1    
   151   76  198 1    
   152   76  199 1    
   153   77   78 2    
   154   77   79 am   BACKBONE|DICT|INTERRES
   155   79   80 1    
   156   79  200 1    
   157   80   81 1    
   158   80   82 1    
   159   80  201 1    
   160   81  202 1    
   161   81  203 1    
   162   81  204 1    
   163   82   83 2    
   164   82   84 am   BACKBONE|DICT|INTERRES
   165   84   85 1    
   166   84  205 1    
   167   85   86 1    
   168   85   87 1    
   169   85  206 1    
   170   86  207 1    
   171   86  208 1    
   172   86  209 1    
   173   87   88 2    
   174   87   89 am   BACKBONE|DICT|INTERRES
   175   89   90 1    
   176   89  210 1    
   177   90   91 1    
   178   90   92 1    
   179   90  211 1    
   180   91  212 1    
   181   91  213 1    
   182   91  214 1    
   183   92   93 2    
   184   92   94 am   BACKBONE|DICT|INTERRES
   185   94   95 1    
   186   94  215 1    
   187   95   96 1    
   188   95   97 1    
   189   95  216 1    
   190   96  217 1    
   191   96  218 1    
   192   96  219 1    
   193   97   98 2    
   194   97   99 am   BACKBONE|DICT|INTERRES
   195   99  100 1    
   196   99  220 1    
   197  100  101 1    
   198  100  102 1    
   199  100  221 1    
   200  101  222 1    
   201  101  223 1    
   202  101  224 1    
   203  102  103 2    
   204  102  104 am   BACKBONE|DICT|INTERRES
   205  104  105 1    
   206  104  225 1    
   207  105  106 1    
   208  105  107 1    
   209  105  226 1    
   210  106  227 1    
   211  106  228 1    
   212  106  229 1    
   213  107  108 2    
   214  107  109 am   BACKBONE|DICT|INTERRES
   215  109  110 1    
   216  109  230 1    
   217  110  111 1    
   218  110  112 1    
   219  110  231 1    
   220  111  232 1    
   221  111  233 1    
   222  111  234 1    
   223  112  113 2    
   224  112  114 am   BACKBONE|DICT|INTERRES
   225  114  115 1    
   226  114  235 1    
   227  115  116 1    
   228  115  117 1    
   229  115  236 1    
   230  116  237 1    
   231  116  238 1    
   232  116  239 1    
   233  117  118 2    
   234  117  119 am   BACKBONE|DICT|INTERRES
   235  119  120 1    
   236  119  240 1    
   237  120  121 1    
   238  120  124 1    
   239  120  241 1    
   240  121  122 am   BACKBONE|DICT|INTERRES
   241  121  123 2    
   242  122  242 1    
   243  122  243 1    
   244  124  125 1    
   245  124  244 1    
   246  124  245 1    
   247  125  126 1    
   248  126  246 1    
   249  126  247 1    
@<TRIPOS>SUBSTRUCTURE
     1 UNK         1 GROUP             0       ****    0 ROOT    
