@<TRIPOS>MOLECULE
3R540
247   249    1
SMALL
USER_CHARGES


@<TRIPOS>ATOM
      1 CA          5.7582  -12.3702  -50.6442 C.3       0 UNK        -0.1800 
      2 C           5.9755  -13.1759  -49.3711 C.2       0 UNK         0.5000 
      3 O           7.1091  -13.5496  -49.0695 O.2       0 UNK        -0.5000 
      4 N           4.8938  -13.4456  -48.6288 N.am      1 UNK        -0.5000 
      5 CA          4.9067  -14.1921  -47.3644 C.3       1 UNK         0.1400 
      6 C6          3.4786  -14.6086  -46.9362 C.3       23 UNK        -0.0398 
      7 S7          2.9363  -16.1313  -47.7679 S.3       23 UNK        -0.2404 
      8 C8          2.0538  -15.5106  -49.2364 C.3       23 UNK        -0.0205 
      9 C9          1.0827  -16.5651  -49.7452 C.ar      23 UNK        -0.0193 
     10 C10        -0.2950  -16.3393  -49.7017 C.ar      23 UNK        -0.1150 
     11 C11        -1.1961  -17.3499  -50.0543 C.ar      23 UNK        -0.0193 
     12 C12        -0.7039  -18.5990  -50.4442 C.ar      23 UNK        -0.1150 
     13 C13         0.6729  -18.8359  -50.4986 C.ar      23 UNK        -0.0193 
     14 C14         1.5594  -17.8013  -50.1868 C.ar      23 UNK        -0.1150 
     15 C15         1.1955  -20.2338  -50.8086 C.3       23 UNK        -0.0205 
     16 S16         2.4024  -20.8445  -49.5744 S.3       23 UNK        -0.2404 
     17 C17         1.5891  -20.4785  -47.9744 C.3       23 UNK        -0.0398 
     18 CA          0.9267  -21.7042  -47.3105 C.3       11 UNK         0.1400 
     19 N           0.5762  -21.4289  -45.9161 N.am      11 UNK        -0.5000 
     20 C           0.1591  -22.3480  -45.0356 C.2       10 UNK         0.5000 
     21 O           0.0661  -23.5478  -45.2921 O.2       10 UNK        -0.5000 
     22 CA         -0.2716  -21.8355  -43.6496 C.3       10 UNK         0.1400 
     23 CB          0.9513  -21.5765  -42.7575 C.3       10 UNK        -0.1800 
     24 N          -1.0953  -20.6277  -43.7263 N.am      10 UNK        -0.5000 
     25 C          -2.2976  -20.5699  -44.3181 C.2       9 UNK         0.5000 
     26 O          -2.8559  -21.5406  -44.8276 O.2       9 UNK        -0.5000 
     27 CA         -2.9730  -19.1904  -44.3965 C.3       9 UNK         0.1400 
     28 CB         -3.6405  -18.8313  -43.0607 C.3       9 UNK        -0.1800 
     29 N          -2.0442  -18.1303  -44.7837 N.am      9 UNK        -0.5000 
     30 C          -1.3929  -18.0733  -45.9536 C.2       8 UNK         0.5000 
     31 O          -1.5315  -18.8984  -46.8560 O.2       8 UNK        -0.5000 
     32 CA         -0.3740  -16.9329  -46.1169 C.3       8 UNK         0.1400 
     33 CB         -1.0730  -15.5972  -46.4122 C.3       8 UNK        -0.1800 
     34 N           0.4892  -16.7865  -44.9448 N.am      8 UNK        -0.5000 
     35 C           1.3543  -17.7194  -44.5226 C.2       7 UNK         0.5000 
     36 O           1.5439  -18.7912  -45.0976 O.2       7 UNK        -0.5000 
     37 CA          2.0922  -17.4286  -43.2045 C.3       7 UNK         0.1400 
     38 CB          3.3321  -16.5577  -43.4419 C.3       7 UNK        -0.1800 
     39 N           1.2315  -16.7878  -42.2107 N.am      7 UNK        -0.5000 
     40 C           0.1903  -17.3912  -41.6201 C.2       6 UNK         0.5000 
     41 O          -0.1333  -18.5604  -41.8297 O.2       6 UNK        -0.5000 
     42 CA         -0.6630  -16.5243  -40.6775 C.3       6 UNK         0.1400 
     43 CB          0.0246  -16.3621  -39.3136 C.3       6 UNK        -0.1800 
     44 N          -0.9512  -15.2023  -41.2352 N.am      6 UNK        -0.5000 
     45 C          -1.6373  -14.9795  -42.3657 C.2       5 UNK         0.5000 
     46 O          -2.1333  -15.8753  -43.0463 O.2       5 UNK        -0.5000 
     47 CA         -1.7813  -13.5184  -42.8315 C.3       5 UNK         0.1400 
     48 CB         -3.1660  -12.9709  -42.4553 C.3       5 UNK        -0.1800 
     49 N          -0.7524  -12.6300  -42.2891 N.am      5 UNK        -0.5000 
     50 C           0.5486  -12.6734  -42.6062 C.2       4 UNK         0.5000 
     51 O           1.0165  -13.4559  -43.4384 O.2       4 UNK        -0.5000 
     52 CA          1.4487  -11.6544  -41.8715 C.3       4 UNK         0.1400 
     53 CB          1.1055  -11.5386  -40.3687 C.3       4 UNK        -0.1800 
     54 N           2.8852  -11.8932  -42.0337 N.am      4 UNK        -0.5000 
     55 C           3.5945  -12.9682  -41.6652 C.2       3 UNK         0.5000 
     56 O           3.1004  -13.9792  -41.1597 O.2       3 UNK        -0.5000 
     57 CA          5.1213  -12.8685  -41.8854 C.3       3 UNK         0.1400 
     58 CB          5.8708  -14.1644  -41.5291 C.3       3 UNK        -0.1800 
     59 N           5.4847  -12.4835  -43.2511 N.am      3 UNK        -0.5000 
     60 C           5.4365  -11.2580  -43.7846 C.2       2 UNK         0.5000 
     61 O           5.0127  -10.2751  -43.1751 O.2       2 UNK        -0.5000 
     62 CA          5.9206  -11.0939  -45.2416 C.3       2 UNK         0.1400 
     63 CB          7.4577  -11.0155  -45.3066 C.3       2 UNK        -0.1800 
     64 N           5.3984  -12.0876  -46.1925 N.am      2 UNK        -0.5000 
     65 C           5.6024  -13.4138  -46.2295 C.2       1 UNK         0.5000 
     66 O           6.2915  -14.0300  -45.4152 O.2       1 UNK        -0.5000 
     67 C          -0.2877  -22.2142  -48.1132 C.2       11 UNK         0.5000 
     68 O          -0.1686  -23.2248  -48.8049 O.2       11 UNK        -0.5000 
     69 N          -1.4428  -21.5461  -47.9768 N.am      12 UNK        -0.5000 
     70 CA         -2.7025  -21.9477  -48.6056 C.3       12 UNK         0.1400 
     71 CB         -3.7689  -20.8692  -48.3690 C.3       12 UNK        -0.1800 
     72 C          -3.1959  -23.3276  -48.1304 C.2       12 UNK         0.5000 
     73 O          -3.6617  -24.1170  -48.9522 O.2       12 UNK        -0.5000 
     74 N          -3.0475  -23.6139  -46.8291 N.am      13 UNK        -0.5000 
     75 CA         -3.3414  -24.9147  -46.2282 C.3       13 UNK         0.1400 
     76 CB         -3.2889  -24.8090  -44.6969 C.3       13 UNK        -0.1800 
     77 C          -2.4036  -26.0239  -46.7375 C.2       13 UNK         0.5000 
     78 O          -2.8846  -27.0983  -47.0969 O.2       13 UNK        -0.5000 
     79 N          -1.0954  -25.7360  -46.8065 N.am      14 UNK        -0.5000 
     80 CA         -0.0686  -26.6368  -47.3410 C.3       14 UNK         0.1400 
     81 CB          1.3243  -26.0465  -47.0746 C.3       14 UNK        -0.1800 
     82 C          -0.2541  -26.9414  -48.8402 C.2       14 UNK         0.5000 
     83 O          -0.0283  -28.0749  -49.2650 O.2       14 UNK        -0.5000 
     84 N          -0.7037  -25.9366  -49.6031 N.am      15 UNK        -0.5000 
     85 CA         -1.0783  -26.0440  -51.0142 C.3       15 UNK         0.1400 
     86 CB         -1.1073  -24.6317  -51.6217 C.3       15 UNK        -0.1800 
     87 C          -2.4288  -26.7566  -51.2445 C.2       15 UNK         0.5000 
     88 O          -2.7626  -27.0383  -52.3961 O.2       15 UNK        -0.5000 
     89 N          -3.1834  -27.0175  -50.1644 N.am      16 UNK        -0.5000 
     90 CA         -4.5283  -27.6004  -50.1289 C.3       16 UNK         0.1400 
     91 CB         -4.5009  -29.0738  -50.5851 C.3       16 UNK        -0.1800 
     92 C          -5.5489  -26.7392  -50.8995 C.2       16 UNK         0.5000 
     93 O          -6.3197  -27.2579  -51.7085 O.2       16 UNK        -0.5000 
     94 N          -5.4844  -25.4201  -50.6686 N.am      17 UNK        -0.5000 
     95 CA         -6.2360  -24.3235  -51.2916 C.3       17 UNK         0.1400 
     96 CB         -7.7555  -24.4932  -51.1062 C.3       17 UNK        -0.1800 
     97 C          -5.8822  -24.0514  -52.7667 C.2       17 UNK         0.5000 
     98 O          -5.9976  -22.9033  -53.1946 O.2       17 UNK        -0.5000 
     99 N          -5.4485  -25.0787  -53.5105 N.am      18 UNK        -0.5000 
    100 CA        -5.0455  -25.0539  -54.9191 C.3       18 UNK         0.1400 
    101 CB        -3.6795  -24.3464  -55.0630 C.3       18 UNK        -0.1800 
    102 C         -6.1564  -24.4772  -55.8251 C.2       18 UNK         0.5000 
    103 O         -7.3203  -24.8534  -55.6699 O.2       18 UNK        -0.5000 
    104 N         -5.8032  -23.5519  -56.7253 N.am      19 UNK        -0.5000 
    105 CA        -6.7242  -22.8081  -57.5867 C.3       19 UNK         0.1400 
    106 CB        -5.9879  -22.4371  -58.8872 C.3       19 UNK        -0.1800 
    107 C         -7.3097  -21.5773  -56.8578 C.2       19 UNK         0.5000 
    108 O         -7.2740  -20.4694  -57.3961 O.2       19 UNK        -0.5000 
    109 N         -7.8198  -21.7986  -55.6369 N.am      20 UNK        -0.5000 
    110 CA        -8.3726  -20.8139  -54.7005 C.3       20 UNK         0.1400 
    111 CB        -9.6964  -20.2315  -55.2383 C.3       20 UNK        -0.1800 
    112 C         -7.3437  -19.7304  -54.3153 C.2       20 UNK         0.5000 
    113 O         -7.5986  -18.5355  -54.4894 O.2       20 UNK        -0.5000 
    114 N         -6.1857  -20.1815  -53.8127 N.am      21 UNK        -0.5000 
    115 CA        -5.0581  -19.3628  -53.3664 C.3       21 UNK         0.1400 
    116 CB        -3.9412  -20.2793  -52.8377 C.3       21 UNK        -0.1800 
    117 C         -5.4804  -18.3362  -52.2999 C.2       21 UNK         0.5000 
    118 O         -5.8892  -18.7265  -51.2044 O.2       21 UNK        -0.5000 
    119 N         -5.3980  -17.0516  -52.6655 N.am      22 UNK        -0.5000 
    120 CA        -5.8395  -15.8897  -51.8732 C.3       22 UNK         0.1400 
    121 C         -7.3853  -15.7872  -51.6792 C.2       22 UNK         0.5000 
    122 N         -8.2035  -16.4976  -52.4475 N.am      22 UNK        -0.7600 
    123 O         -7.8596  -15.0243  -50.8414 O.2       22 UNK        -0.5000 
    124 C124       -5.0548  -15.7116  -50.5416 C.3       23 UNK        -0.0398 
    125 S125       -3.2492  -15.6136  -50.7964 S.3       23 UNK        -0.2404 
    126 C126       -2.6985  -17.1253  -49.9427 C.3       23 UNK        -0.0205 
    127 H127        4.7078  -12.1175  -50.7907 H         1 UNK         0.0600 
    128 H128        6.0943  -12.9400  -51.5105 H         1 UNK         0.0600 
    129 H129        6.3287  -11.4424  -50.6027 H         1 UNK         0.0600 
    130 H130        3.9915  -13.1172  -48.9403 H         1 UNK         0.3000 
    131 H131        5.5009  -15.0960  -47.5183 H         1 UNK         0.0600 
    132 H132        3.4374  -14.8279  -45.8688 H         1 UNK         0.0800 
    133 H133        2.7576  -13.8052  -47.0948 H         1 UNK         0.0800 
    134 H134        1.5210  -14.5919  -48.9875 H         1 UNK         0.0800 
    135 H135        2.7723  -15.2611  -50.0182 H         1 UNK         0.0800 
    136 H136       -0.6705  -15.3845  -49.3628 H         1 UNK         0.1150 
    137 H137       -1.3938  -19.3998  -50.6697 H         1 UNK         0.1150 
    138 H138        2.6246  -17.9844  -50.2046 H         1 UNK         0.1150 
    139 H139        0.3724  -20.9478  -50.8679 H         1 UNK         0.0800 
    140 H140        1.6674  -20.2254  -51.7917 H         1 UNK         0.0800 
    141 H141        0.8752  -19.6598  -48.0598 H         1 UNK         0.0800 
    142 H142        2.3745  -20.0991  -47.3196 H         1 UNK         0.0800 
    143 H143        1.6640  -22.5097  -47.2936 H         1 UNK         0.0600 
    144 H144        0.6630  -20.4633  -45.6114 H         1 UNK         0.3000 
    145 H145       -0.8726  -22.6170  -43.1804 H         1 UNK         0.0600 
    146 H146        0.6497  -21.2949  -41.7485 H         1 UNK         0.0600 
    147 H147        1.5705  -22.4706  -42.6744 H         1 UNK         0.0600 
    148 H148        1.5783  -20.7778  -43.1538 H         1 UNK         0.0600 
    149 H149       -0.7217  -19.7917  -43.2874 H         1 UNK         0.3000 
    150 H150       -3.7504  -19.2448  -45.1612 H         1 UNK         0.0600 
    151 H151       -4.3469  -19.6043  -42.7559 H         1 UNK         0.0600 
    152 H152       -4.1945  -17.8955  -43.1373 H         1 UNK         0.0600 
    153 H153       -2.9077  -18.7199  -42.2609 H         1 UNK         0.0600 
    154 H154       -1.9056  -17.3824  -44.1080 H         1 UNK         0.3000 
    155 H155        0.2583  -17.1854  -46.9693 H         1 UNK         0.0600 
    156 H156       -1.6733  -15.2577  -45.5700 H         1 UNK         0.0600 
    157 H157       -0.3475  -14.8177  -46.6458 H         1 UNK         0.0600 
    158 H158       -1.7452  -15.6860  -47.2650 H         1 UNK         0.0600 
    159 H159        0.3894  -15.9402  -44.4028 H         1 UNK         0.3000 
    160 H160        2.4265  -18.3860  -42.7995 H         1 UNK         0.0600 
    161 H161        3.0607  -15.5325  -43.6942 H         1 UNK         0.0600 
    162 H162        3.9476  -16.9517  -44.2519 H         1 UNK         0.0600 
    163 H163        3.9512  -16.5269  -42.5463 H         1 UNK         0.0600 
    164 H164        1.4292  -15.8195  -41.9934 H         1 UNK         0.3000 
    165 H165       -1.6144  -17.0378  -40.5237 H         1 UNK         0.0600 
    166 H166       -0.6129  -15.8236  -38.6122 H         1 UNK         0.0600 
    167 H167        0.2457  -17.3340  -38.8702 H         1 UNK         0.0600 
    168 H168        0.9661  -15.8173  -39.3981 H         1 UNK         0.0600 
    169 H169       -0.5746  -14.4079  -40.7406 H         1 UNK         0.3000 
    170 H170       -1.6951  -13.5092  -43.9195 H         1 UNK         0.0600 
    171 H171       -3.3064  -12.9380  -41.3742 H         1 UNK         0.0600 
    172 H172       -3.3116  -11.9632  -42.8449 H         1 UNK         0.0600 
    173 H173       -3.9585  -13.5953  -42.8703 H         1 UNK         0.0600 
    174 H174       -1.0630  -11.9496  -41.6107 H         1 UNK         0.3000 
    175 H175        1.2544  -10.6865  -42.3354 H         1 UNK         0.0600 
    176 H176        1.7913  -10.8596  -39.8616 H         1 UNK         0.0600 
    177 H177        1.1630  -12.5040  -39.8643 H         1 UNK         0.0600 
    178 H178        0.1016  -11.1432  -40.2124 H         1 UNK         0.0600 
    179 H179        3.4096  -11.1361  -42.4612 H         1 UNK         0.3000 
    180 H180        5.4782  -12.0920  -41.2057 H         1 UNK         0.0600 
    181 H181        5.6272  -14.9707  -42.2197 H         1 UNK         0.0600 
    182 H182        5.6269  -14.5019  -40.5210 H         1 UNK         0.0600 
    183 H183        6.9498  -14.0136  -41.5653 H         1 UNK         0.0600 
    184 H184        5.8229  -13.2283  -43.8565 H         1 UNK         0.3000 
    185 H185        5.5353  -10.1329  -45.5864 H         1 UNK         0.0600 
    186 H186        7.8326  -10.2070  -44.6778 H         1 UNK         0.0600 
    187 H187        7.9297  -11.9373  -44.9656 H         1 UNK         0.0600 
    188 H188        7.7989  -10.8214  -46.3235 H         1 UNK         0.0600 
    189 H189        4.8023  -11.7026  -46.9117 H         1 UNK         0.3000 
    190 H190       -1.4634  -20.6954  -47.4184 H         1 UNK         0.3000 
    191 H191       -2.5259  -22.0142  -49.6811 H         1 UNK         0.0600 
    192 H192       -3.4499  -19.9067  -48.7681 H         1 UNK         0.0600 
    193 H193       -4.7062  -21.1304  -48.8622 H         1 UNK         0.0600 
    194 H194       -3.9785  -20.7368  -47.3073 H         1 UNK         0.0600 
    195 H195       -2.7167  -22.8866  -46.2008 H         1 UNK         0.3000 
    196 H196       -4.3604  -25.1880  -46.5105 H         1 UNK         0.0600 
    197 H197       -3.5189  -25.7678  -44.2308 H         1 UNK         0.0600 
    198 H198       -4.0159  -24.0854  -44.3279 H         1 UNK         0.0600 
    199 H199       -2.3042  -24.5006  -44.3458 H         1 UNK         0.0600 
    200 H200       -0.7703  -24.8410  -46.4503 H         1 UNK         0.3000 
    201 H201       -0.1445  -27.5828  -46.8011 H         1 UNK         0.0600 
    202 H202        1.4947  -25.9054  -46.0072 H         1 UNK         0.0600 
    203 H203        1.4526  -25.0807  -47.5639 H         1 UNK         0.0600 
    204 H204        2.1075  -26.7093  -47.4444 H         1 UNK         0.0600 
    205 H205       -0.7791  -25.0116  -49.1875 H         1 UNK         0.3000 
    206 H206       -0.3105  -26.6229  -51.5314 H         1 UNK         0.0600 
    207 H207       -0.1534  -24.1221  -51.4843 H         1 UNK         0.0600 
    208 H208       -1.3005  -24.6692  -52.6936 H         1 UNK         0.0600 
    209 H209       -1.8845  -24.0158  -51.1682 H         1 UNK         0.0600 
    210 H210       -2.8171  -26.7408  -49.2622 H         1 UNK         0.3000 
    211 H211       -4.8430  -27.5848  -49.0846 H         1 UNK         0.0600 
    212 H212       -4.2373  -29.1698  -51.6387 H         1 UNK         0.0600 
    213 H213       -5.4763  -29.5419  -50.4487 H         1 UNK         0.0600 
    214 H214       -3.7804  -29.6507  -50.0053 H         1 UNK         0.0600 
    215 H215       -4.7692  -25.0994  -50.0165 H         1 UNK         0.3000 
    216 H216       -5.9404  -23.4286  -50.7415 H         1 UNK         0.0600 
    217 H217       -8.2883  -23.6072  -51.4538 H         1 UNK         0.0600 
    218 H218       -8.0118  -24.6358  -50.0564 H         1 UNK         0.0600 
    219 H219       -8.1438  -25.3435  -51.6672 H         1 UNK         0.0600 
    220 H220       -5.4622  -25.9930  -53.0734 H         1 UNK         0.3000 
    221 H221       -4.9154  -26.0941  -55.2201 H         1 UNK         0.0600 
    222 H222       -3.7332  -23.2909  -54.7934 H         1 UNK         0.0600 
    223 H223       -2.9369  -24.8137  -54.4172 H         1 UNK         0.0600 
    224 H224       -3.2980  -24.4169  -56.0821 H         1 UNK         0.0600 
    225 H225       -4.8351  -23.2670  -56.7604 H         1 UNK         0.3000 
    226 H226       -7.5652  -23.4501  -57.8567 H         1 UNK         0.0600 
    227 H227       -5.6113  -23.3260  -59.3937 H         1 UNK         0.0600 
    228 H228       -6.6547  -21.9279  -59.5842 H         1 UNK         0.0600 
    229 H229       -5.1418  -21.7757  -58.6968 H         1 UNK         0.0600 
    230 H230       -7.7657  -22.7480  -55.2869 H         1 UNK         0.3000 
    231 H231       -8.6025  -21.3577  -53.7829 H         1 UNK         0.0600 
    232 H232       -9.5463  -19.6495  -56.1480 H         1 UNK         0.0600 
    233 H233      -10.1586  -19.5726  -54.5023 H         1 UNK         0.0600 
    234 H234      -10.4128  -21.0223  -55.4607 H         1 UNK         0.0600 
    235 H235       -6.0882  -21.1857  -53.6675 H         1 UNK         0.3000 
    236 H236       -4.6741  -18.8329  -54.2402 H         1 UNK         0.0600 
    237 H237       -3.0750  -19.6962  -52.5235 H         1 UNK         0.0600 
    238 H238       -4.2729  -20.8656  -51.9794 H         1 UNK         0.0600 
    239 H239       -3.6046  -20.9752  -53.6061 H         1 UNK         0.0600 
    240 H240       -5.0761  -16.8356  -53.5978 H         1 UNK         0.3000 
    241 H241       -5.5986  -15.0250  -52.4922 H         1 UNK         0.0600 
    242 H242       -7.8464  -17.1320  -53.1562 H         1 UNK         0.3800 
    243 H243       -9.1988  -16.4087  -52.3193 H         1 UNK         0.3800 
    244 H244       -5.3552  -14.7869  -50.0465 H         1 UNK         0.0800 
    245 H245       -5.2945  -16.5137  -49.8423 H         1 UNK         0.0800 
    246 H246       -2.9689  -17.0686  -48.8877 H         1 UNK         0.0800 
    247 H247       -3.2399  -17.9770  -50.3553 H         1 UNK         0.0800 
@<TRIPOS>BOND
     1    1    2 1    
     2    1  127 1    
     3    1  128 1    
     4    1  129 1    
     5    2    3 2    
     6    2    4 am   BACKBONE|DICT|INTERRES
     7    4    5 1    
     8    4  130 1    
     9    5    6 1    
    10    5   65 1    
    11    5  131 1    
    12    6    7 1    
    13    6  132 1    
    14    6  133 1    
    15    7    8 1    
    16    8    9 1    
    17    8  134 1    
    18    8  135 1    
    19    9   10 ar   
    20    9   14 ar   
    21   10   11 ar   
    22   10  136 1    
    23   11   12 ar   
    24   11  126 1    
    25   12   13 ar   
    26   12  137 1    
    27   13   14 ar   
    28   13   15 1    
    29   14  138 1    
    30   15   16 1    
    31   15  139 1    
    32   15  140 1    
    33   16   17 1    
    34   17   18 1    
    35   17  141 1    
    36   17  142 1    
    37   18   19 1    
    38   18   67 1    
    39   18  143 1    
    40   19   20 am   BACKBONE|DICT|INTERRES
    41   19  144 1    
    42   20   21 2    
    43   20   22 1    
    44   22   23 1    
    45   22   24 1    
    46   22  145 1    
    47   23  146 1    
    48   23  147 1    
    49   23  148 1    
    50   24   25 am   BACKBONE|DICT|INTERRES
    51   24  149 1    
    52   25   26 2    
    53   25   27 1    
    54   27   28 1    
    55   27   29 1    
    56   27  150 1    
    57   28  151 1    
    58   28  152 1    
    59   28  153 1    
    60   29   30 am   BACKBONE|DICT|INTERRES
    61   29  154 1    
    62   30   31 2    
    63   30   32 1    
    64   32   33 1    
    65   32   34 1    
    66   32  155 1    
    67   33  156 1    
    68   33  157 1    
    69   33  158 1    
    70   34   35 am   BACKBONE|DICT|INTERRES
    71   34  159 1    
    72   35   36 2    
    73   35   37 1    
    74   37   38 1    
    75   37   39 1    
    76   37  160 1    
    77   38  161 1    
    78   38  162 1    
    79   38  163 1    
    80   39   40 am   BACKBONE|DICT|INTERRES
    81   39  164 1    
    82   40   41 2    
    83   40   42 1    
    84   42   43 1    
    85   42   44 1    
    86   42  165 1    
    87   43  166 1    
    88   43  167 1    
    89   43  168 1    
    90   44   45 am   BACKBONE|DICT|INTERRES
    91   44  169 1    
    92   45   46 2    
    93   45   47 1    
    94   47   48 1    
    95   47   49 1    
    96   47  170 1    
    97   48  171 1    
    98   48  172 1    
    99   48  173 1    
   100   49   50 am   BACKBONE|DICT|INTERRES
   101   49  174 1    
   102   50   51 2    
   103   50   52 1    
   104   52   53 1    
   105   52   54 1    
   106   52  175 1    
   107   53  176 1    
   108   53  177 1    
   109   53  178 1    
   110   54   55 am   BACKBONE|DICT|INTERRES
   111   54  179 1    
   112   55   56 2    
   113   55   57 1    
   114   57   58 1    
   115   57   59 1    
   116   57  180 1    
   117   58  181 1    
   118   58  182 1    
   119   58  183 1    
   120   59   60 am   BACKBONE|DICT|INTERRES
   121   59  184 1    
   122   60   61 2    
   123   60   62 1    
   124   62   63 1    
   125   62   64 1    
   126   62  185 1    
   127   63  186 1    
   128   63  187 1    
   129   63  188 1    
   130   64   65 am   BACKBONE|DICT|INTERRES
   131   64  189 1    
   132   65   66 2    
   133   67   68 2    
   134   67   69 am   BACKBONE|DICT|INTERRES
   135   69   70 1    
   136   69  190 1    
   137   70   71 1    
   138   70   72 1    
   139   70  191 1    
   140   71  192 1    
   141   71  193 1    
   142   71  194 1    
   143   72   73 2    
   144   72   74 am   BACKBONE|DICT|INTERRES
   145   74   75 1    
   146   74  195 1    
   147   75   76 1    
   148   75   77 1    
   149   75  196 1    
   150   76  197 1    
   151   76  198 1    
   152   76  199 1    
   153   77   78 2    
   154   77   79 am   BACKBONE|DICT|INTERRES
   155   79   80 1    
   156   79  200 1    
   157   80   81 1    
   158   80   82 1    
   159   80  201 1    
   160   81  202 1    
   161   81  203 1    
   162   81  204 1    
   163   82   83 2    
   164   82   84 am   BACKBONE|DICT|INTERRES
   165   84   85 1    
   166   84  205 1    
   167   85   86 1    
   168   85   87 1    
   169   85  206 1    
   170   86  207 1    
   171   86  208 1    
   172   86  209 1    
   173   87   88 2    
   174   87   89 am   BACKBONE|DICT|INTERRES
   175   89   90 1    
   176   89  210 1    
   177   90   91 1    
   178   90   92 1    
   179   90  211 1    
   180   91  212 1    
   181   91  213 1    
   182   91  214 1    
   183   92   93 2    
   184   92   94 am   BACKBONE|DICT|INTERRES
   185   94   95 1    
   186   94  215 1    
   187   95   96 1    
   188   95   97 1    
   189   95  216 1    
   190   96  217 1    
   191   96  218 1    
   192   96  219 1    
   193   97   98 2    
   194   97   99 am   BACKBONE|DICT|INTERRES
   195   99  100 1    
   196   99  220 1    
   197  100  101 1    
   198  100  102 1    
   199  100  221 1    
   200  101  222 1    
   201  101  223 1    
   202  101  224 1    
   203  102  103 2    
   204  102  104 am   BACKBONE|DICT|INTERRES
   205  104  105 1    
   206  104  225 1    
   207  105  106 1    
   208  105  107 1    
   209  105  226 1    
   210  106  227 1    
   211  106  228 1    
   212  106  229 1    
   213  107  108 2    
   214  107  109 am   BACKBONE|DICT|INTERRES
   215  109  110 1    
   216  109  230 1    
   217  110  111 1    
   218  110  112 1    
   219  110  231 1    
   220  111  232 1    
   221  111  233 1    
   222  111  234 1    
   223  112  113 2    
   224  112  114 am   BACKBONE|DICT|INTERRES
   225  114  115 1    
   226  114  235 1    
   227  115  116 1    
   228  115  117 1    
   229  115  236 1    
   230  116  237 1    
   231  116  238 1    
   232  116  239 1    
   233  117  118 2    
   234  117  119 am   BACKBONE|DICT|INTERRES
   235  119  120 1    
   236  119  240 1    
   237  120  121 1    
   238  120  124 1    
   239  120  241 1    
   240  121  122 am   BACKBONE|DICT|INTERRES
   241  121  123 2    
   242  122  242 1    
   243  122  243 1    
   244  124  125 1    
   245  124  244 1    
   246  124  245 1    
   247  125  126 1    
   248  126  246 1    
   249  126  247 1    
@<TRIPOS>SUBSTRUCTURE
     1 UNK         1 GROUP             0       ****    0 ROOT    
