@<TRIPOS>MOLECULE
3R540
247   249    1
SMALL
USER_CHARGES


@<TRIPOS>ATOM
      1 CA         -5.8171  -17.3992  -44.8424 C.3       0 UNK        -0.1800 
      2 C          -5.2888  -16.1150  -45.4614 C.2       0 UNK         0.5000 
      3 O          -5.7825  -15.0324  -45.1424 O.2       0 UNK        -0.5000 
      4 N          -4.2982  -16.2318  -46.3537 N.am      1 UNK        -0.5000 
      5 CA         -3.6238  -15.0962  -46.9908 C.3       1 UNK         0.1400 
      6 C6         -2.8802  -15.5014  -48.2889 C.3       23 UNK        -0.0398 
      7 S7         -1.6024  -16.7847  -48.0774 S.3       23 UNK        -0.2404 
      8 C8         -0.5211  -16.4329  -49.5034 C.3       23 UNK        -0.0205 
      9 C9          0.4051  -17.5916  -49.8657 C.ar      23 UNK        -0.0193 
     10 C10         0.6079  -17.9009  -51.2130 C.ar      23 UNK        -0.1150 
     11 C11         1.3807  -19.0029  -51.5883 C.ar      23 UNK        -0.0193 
     12 C12         2.0014  -19.7729  -50.5984 C.ar      23 UNK        -0.1150 
     13 C13         1.8226  -19.4706  -49.2427 C.ar      23 UNK        -0.0193 
     14 C14         1.0381  -18.3680  -48.8868 C.ar      23 UNK        -0.1150 
     15 C15         2.4489  -20.3391  -48.1555 C.3       23 UNK        -0.0205 
     16 S16         1.9621  -22.0955  -48.2968 S.3       23 UNK        -0.2404 
     17 C17         1.8577  -22.6266  -46.5475 C.3       23 UNK        -0.0398 
     18 CA          0.4442  -23.1173  -46.1306 C.3       11 UNK         0.1400 
     19 N           0.4013  -23.5730  -44.7436 N.am      11 UNK        -0.5000 
     20 C          -0.4879  -24.4576  -44.2685 C.2       10 UNK         0.5000 
     21 O          -1.2518  -25.1110  -44.9792 O.2       10 UNK        -0.5000 
     22 CA         -0.5587  -24.6232  -42.7373 C.3       10 UNK         0.1400 
     23 CB          0.3468  -25.7763  -42.2787 C.3       10 UNK        -0.1800 
     24 N          -0.1938  -23.4095  -42.0036 N.am      10 UNK        -0.5000 
     25 C          -0.8565  -22.2445  -42.0580 C.2       9 UNK         0.5000 
     26 O          -1.8854  -22.0699  -42.7078 O.2       9 UNK        -0.5000 
     27 CA         -0.2198  -21.0566  -41.3136 C.3       9 UNK         0.1400 
     28 CB         -0.7257  -20.9893  -39.8657 C.3       9 UNK        -0.1800 
     29 N           1.2455  -21.0996  -41.3190 N.am      9 UNK        -0.5000 
     30 C           1.9996  -21.0396  -42.4239 C.2       8 UNK         0.5000 
     31 O           1.5390  -20.9516  -43.5657 O.2       8 UNK        -0.5000 
     32 CA          3.5201  -21.1635  -42.2273 C.3       8 UNK         0.1400 
     33 CB          3.9794  -22.5909  -42.5629 C.3       8 UNK        -0.1800 
     34 N           4.2475  -20.2168  -43.0703 N.am      8 UNK        -0.5000 
     35 C           4.1824  -18.8873  -42.9343 C.2       7 UNK         0.5000 
     36 O           3.5526  -18.3234  -42.0362 O.2       7 UNK        -0.5000 
     37 CA          4.9229  -18.0623  -44.0008 C.3       7 UNK         0.1400 
     38 CB          4.1254  -18.0549  -45.3171 C.3       7 UNK        -0.1800 
     39 N           5.1163  -16.6833  -43.5581 N.am      7 UNK        -0.5000 
     40 C           6.0536  -16.2750  -42.6941 C.2       6 UNK         0.5000 
     41 O           6.9290  -17.0141  -42.2407 O.2       6 UNK        -0.5000 
     42 CA          6.0120  -14.8004  -42.2590 C.3       6 UNK         0.1400 
     43 CB          6.6351  -13.8975  -43.3360 C.3       6 UNK        -0.1800 
     44 N           4.6472  -14.3465  -41.9809 N.am      6 UNK        -0.5000 
     45 C           4.2622  -13.7065  -40.8670 C.2       5 UNK         0.5000 
     46 O           5.0238  -13.4446  -39.9346 O.2       5 UNK        -0.5000 
     47 CA          2.7869  -13.2582  -40.7656 C.3       5 UNK         0.1400 
     48 CB          2.6605  -11.7607  -41.0857 C.3       5 UNK        -0.1800 
     49 N           1.8851  -13.9978  -41.6468 N.am      5 UNK        -0.5000 
     50 C           1.5357  -15.2814  -41.4883 C.2       4 UNK         0.5000 
     51 O           1.8298  -15.9411  -40.4914 O.2       4 UNK        -0.5000 
     52 CA          0.7214  -15.9422  -42.6247 C.3       4 UNK         0.1400 
     53 CB         -0.7428  -16.0954  -42.1805 C.3       4 UNK        -0.1800 
     54 N           0.7479  -15.2403  -43.9176 N.am      4 UNK        -0.5000 
     55 C           1.8397  -14.8760  -44.6115 C.2       3 UNK         0.5000 
     56 O           2.9885  -15.0890  -44.2301 O.2       3 UNK        -0.5000 
     57 CA          1.6436  -14.1053  -45.9302 C.3       3 UNK         0.1400 
     58 CB          1.9097  -15.0331  -47.1221 C.3       3 UNK        -0.1800 
     59 N           0.3216  -13.4956  -46.0730 N.am      3 UNK        -0.5000 
     60 C          -0.1780  -12.5350  -45.2821 C.2       2 UNK         0.5000 
     61 O           0.4634  -12.0009  -44.3759 O.2       2 UNK        -0.5000 
     62 CA         -1.6467  -12.1223  -45.5141 C.3       2 UNK         0.1400 
     63 CB         -1.7147  -10.7333  -46.1678 C.3       2 UNK        -0.1800 
     64 N          -2.4387  -13.0610  -46.3198 N.am      2 UNK        -0.5000 
     65 C          -2.7107  -14.3355  -46.0020 C.2       1 UNK         0.5000 
     66 O          -2.2496  -14.9015  -45.0065 O.2       1 UNK        -0.5000 
     67 C          -0.6494  -22.0524  -46.3276 C.2       11 UNK         0.5000 
     68 O          -1.5768  -22.2762  -47.1044 O.2       11 UNK        -0.5000 
     69 N          -0.5299  -20.9306  -45.6030 N.am      12 UNK        -0.5000 
     70 CA         -1.3064  -19.7067  -45.8094 C.3       12 UNK         0.1400 
     71 CB         -0.7995  -18.6208  -44.8525 C.3       12 UNK        -0.1800 
     72 C          -2.8375  -19.8566  -45.7158 C.2       12 UNK         0.5000 
     73 O          -3.5489  -19.1349  -46.4153 O.2       12 UNK        -0.5000 
     74 N          -3.3226  -20.7904  -44.8842 N.am      13 UNK        -0.5000 
     75 CA         -4.7445  -21.1160  -44.7479 C.3       13 UNK         0.1400 
     76 CB         -4.9479  -22.0597  -43.5535 C.3       13 UNK        -0.1800 
     77 C          -5.3557  -21.7257  -46.0235 C.2       13 UNK         0.5000 
     78 O          -6.4981  -21.4103  -46.3577 O.2       13 UNK        -0.5000 
     79 N          -4.5866  -22.5778  -46.7134 N.am      14 UNK        -0.5000 
     80 CA         -4.9769  -23.1980  -47.9795 C.3       14 UNK         0.1400 
     81 CB         -4.2843  -24.5629  -48.1098 C.3       14 UNK        -0.1800 
     82 C          -4.6143  -22.2971  -49.1690 C.2       14 UNK         0.5000 
     83 O          -5.3970  -22.1689  -50.1125 O.2       14 UNK        -0.5000 
     84 N          -3.4391  -21.6620  -49.0901 N.am      15 UNK        -0.5000 
     85 CA         -2.8360  -20.8205  -50.1211 C.3       15 UNK         0.1400 
     86 CB         -1.3317  -20.7370  -49.8790 C.3       15 UNK        -0.1800 
     87 C          -3.4829  -19.4362  -50.3092 C.2       15 UNK         0.5000 
     88 O          -3.0009  -18.6442  -51.1181 O.2       15 UNK        -0.5000 
     89 N          -4.6339  -19.2127  -49.6629 N.am      16 UNK        -0.5000 
     90 CA         -5.6384  -18.2381  -50.0869 C.3       16 UNK         0.1400 
     91 CB         -6.7664  -18.2041  -49.0458 C.3       16 UNK        -0.1800 
     92 C          -6.1935  -18.5405  -51.4999 C.2       16 UNK         0.5000 
     93 O          -6.6660  -17.6201  -52.1678 O.2       16 UNK        -0.5000 
     94 N          -6.0894  -19.8046  -51.9410 N.am      17 UNK        -0.5000 
     95 CA         -6.3112  -20.2270  -53.3211 C.3       17 UNK         0.1400 
     96 CB         -7.7453  -20.7546  -53.4864 C.3       17 UNK        -0.1800 
     97 C          -5.2850  -21.2833  -53.7645 C.2       17 UNK         0.5000 
     98 O          -4.7522  -21.1729  -54.8711 O.2       17 UNK        -0.5000 
     99 N          -5.0425  -22.2986  -52.9154 N.am      18 UNK        -0.5000 
    100 CA        -4.3103  -23.5416  -53.2133 C.3       18 UNK         0.1400 
    101 CB        -2.7893  -23.2998  -53.2973 C.3       18 UNK        -0.1800 
    102 C         -4.8791  -24.2371  -54.4677 C.2       18 UNK         0.5000 
    103 O         -4.1494  -24.4906  -55.4293 O.2       18 UNK        -0.5000 
    104 N         -6.2089  -24.4173  -54.4656 N.am      19 UNK        -0.5000 
    105 CA        -7.0847  -24.7372  -55.5999 C.3       19 UNK         0.1400 
    106 CB        -6.7395  -26.0954  -56.2442 C.3       19 UNK        -0.1800 
    107 C         -7.1218  -23.5873  -56.6255 C.2       19 UNK         0.5000 
    108 O         -8.1548  -22.9327  -56.7693 O.2       19 UNK        -0.5000 
    109 N         -5.9808  -23.3366  -57.2735 N.am      20 UNK        -0.5000 
    110 CA        -5.7260  -22.2031  -58.1590 C.3       20 UNK         0.1400 
    111 CB        -6.3305  -22.4840  -59.5491 C.3       20 UNK        -0.1800 
    112 C         -4.2238  -21.8593  -58.2525 C.2       20 UNK         0.5000 
    113 O         -3.8624  -21.0035  -59.0617 O.2       20 UNK        -0.5000 
    114 N         -3.3612  -22.5280  -57.4691 N.am      21 UNK        -0.5000 
    115 CA        -1.9055  -22.3946  -57.5622 C.3       21 UNK         0.1400 
    116 CB        -1.2416  -23.6301  -56.9354 C.3       21 UNK        -0.1800 
    117 C         -1.3522  -21.1040  -56.9297 C.2       21 UNK         0.5000 
    118 O         -0.3113  -20.6238  -57.3818 O.2       21 UNK        -0.5000 
    119 N         -2.0391  -20.5718  -55.9113 N.am      22 UNK        -0.5000 
    120 CA        -1.6467  -19.3525  -55.1811 C.3       22 UNK         0.1400 
    121 C         -2.7132  -18.2227  -55.2525 C.2       22 UNK         0.5000 
    122 N         -3.9408  -18.4804  -55.6861 N.am      22 UNK        -0.7600 
    123 O         -2.4091  -17.0753  -54.9389 O.2       22 UNK        -0.5000 
    124 C124       -1.2580  -19.6587  -53.7115 C.3       23 UNK        -0.0398 
    125 S125        0.2795  -20.6380  -53.5603 S.3       23 UNK        -0.2404 
    126 C126        1.5095  -19.3823  -53.0585 C.3       23 UNK        -0.0205 
    127 H127       -6.7643  -17.2237  -44.3322 H         1 UNK         0.0600 
    128 H128       -5.1023  -17.7860  -44.1162 H         1 UNK         0.0600 
    129 H129       -5.9830  -18.1560  -45.6090 H         1 UNK         0.0600 
    130 H130       -3.9076  -17.1502  -46.5460 H         1 UNK         0.3000 
    131 H131       -4.4061  -14.3950  -47.2898 H         1 UNK         0.0600 
    132 H132       -3.6018  -15.8781  -49.0135 H         1 UNK         0.0800 
    133 H133       -2.4319  -14.6237  -48.7573 H         1 UNK         0.0800 
    134 H134        0.0705  -15.5392  -49.3098 H         1 UNK         0.0800 
    135 H135       -1.1609  -16.2015  -50.3569 H         1 UNK         0.0800 
    136 H136        0.1280  -17.3013  -51.9731 H         1 UNK         0.1150 
    137 H137        2.5928  -20.6323  -50.8812 H         1 UNK         0.1150 
    138 H138        0.8905  -18.1353  -47.8424 H         1 UNK         0.1150 
    139 H139        3.5352  -20.2616  -48.2126 H         1 UNK         0.0800 
    140 H140        2.1623  -19.9588  -47.1742 H         1 UNK         0.0800 
    141 H141        2.2053  -21.8268  -45.8946 H         1 UNK         0.0800 
    142 H142        2.5715  -23.4401  -46.4126 H         1 UNK         0.0800 
    143 H143        0.1963  -23.9599  -46.7803 H         1 UNK         0.0600 
    144 H144        0.9459  -23.0367  -44.0823 H         1 UNK         0.3000 
    145 H145       -1.5907  -24.8715  -42.4805 H         1 UNK         0.0600 
    146 H146        0.2449  -25.9567  -41.2084 H         1 UNK         0.0600 
    147 H147        0.0861  -26.7043  -42.7893 H         1 UNK         0.0600 
    148 H148        1.3975  -25.5706  -42.4872 H         1 UNK         0.0600 
    149 H149        0.6420  -23.4559  -41.4402 H         1 UNK         0.3000 
    150 H150       -0.5291  -20.1430  -41.8242 H         1 UNK         0.0600 
    151 H151       -1.8149  -20.9367  -39.8354 H         1 UNK         0.0600 
    152 H152       -0.3450  -20.1039  -39.3560 H         1 UNK         0.0600 
    153 H153       -0.4229  -21.8654  -39.2908 H         1 UNK         0.0600 
    154 H154        1.6967  -21.1726  -40.4184 H         1 UNK         0.3000 
    155 H155        3.7662  -20.9519  -41.1845 H         1 UNK         0.0600 
    156 H156        3.4708  -23.3243  -41.9357 H         1 UNK         0.0600 
    157 H157        3.7718  -22.8483  -43.6026 H         1 UNK         0.0600 
    158 H158        5.0500  -22.7103  -42.3955 H         1 UNK         0.0600 
    159 H159        4.7576  -20.6079  -43.8481 H         1 UNK         0.3000 
    160 H160        5.8993  -18.5160  -44.1829 H         1 UNK         0.0600 
    161 H161        3.1073  -17.6915  -45.1711 H         1 UNK         0.0600 
    162 H162        4.0547  -19.0588  -45.7363 H         1 UNK         0.0600 
    163 H163        4.6023  -17.4238  -46.0671 H         1 UNK         0.0600 
    164 H164        4.3933  -16.0293  -43.8511 H         1 UNK         0.3000 
    165 H165        6.6265  -14.7237  -41.3596 H         1 UNK         0.0600 
    166 H166        6.6920  -12.8634  -42.9961 H         1 UNK         0.0600 
    167 H167        7.6497  -14.2176  -43.5768 H         1 UNK         0.0600 
    168 H168        6.0552  -13.9147  -44.2597 H         1 UNK         0.0600 
    169 H169        3.9509  -14.5494  -42.6921 H         1 UNK         0.3000 
    170 H170        2.4650  -13.4163  -39.7342 H         1 UNK         0.0600 
    171 H171        2.9514  -11.5443  -42.1146 H         1 UNK         0.0600 
    172 H172        1.6368  -11.4123  -40.9469 H         1 UNK         0.0600 
    173 H173        3.2975  -11.1644  -40.4311 H         1 UNK         0.0600 
    174 H174        1.5810  -13.5220  -42.4851 H         1 UNK         0.3000 
    175 H175        1.1418  -16.9366  -42.7878 H         1 UNK         0.0600 
    176 H176       -1.3435  -16.6038  -42.9322 H         1 UNK         0.0600 
    177 H177       -1.2051  -15.1254  -41.9932 H         1 UNK         0.0600 
    178 H178       -0.8155  -16.6784  -41.2615 H         1 UNK         0.0600 
    179 H179       -0.1591  -15.0227  -44.3148 H         1 UNK         0.3000 
    180 H180        2.3839  -13.3029  -45.9494 H         1 UNK         0.0600 
    181 H181        1.1984  -15.8580  -47.1461 H         1 UNK         0.0600 
    182 H182        2.9091  -15.4671  -47.0666 H         1 UNK         0.0600 
    183 H183        1.8450  -14.4937  -48.0667 H         1 UNK         0.0600 
    184 H184       -0.2820  -13.8860  -46.7804 H         1 UNK         0.3000 
    185 H185       -2.1162  -12.0598  -44.5303 H         1 UNK         0.0600 
    186 H186       -1.1669   -9.9955  -45.5799 H         1 UNK         0.0600 
    187 H187       -1.2840  -10.7396  -47.1698 H         1 UNK         0.0600 
    188 H188       -2.7440  -10.3824  -46.2453 H         1 UNK         0.0600 
    189 H189       -2.8479  -12.6736  -47.1579 H         1 UNK         0.3000 
    190 H190        0.2280  -20.8682  -44.9280 H         1 UNK         0.3000 
    191 H191       -1.0885  -19.3755  -46.8242 H         1 UNK         0.0600 
    192 H192        0.2670  -18.4382  -44.9865 H         1 UNK         0.0600 
    193 H193       -1.3140  -17.6763  -45.0349 H         1 UNK         0.0600 
    194 H194       -0.9665  -18.8963  -43.8116 H         1 UNK         0.0600 
    195 H195       -2.6787  -21.3159  -44.2988 H         1 UNK         0.3000 
    196 H196       -5.2825  -20.1924  -44.5346 H         1 UNK         0.0600 
    197 H197       -6.0008  -22.3172  -43.4315 H         1 UNK         0.0600 
    198 H198       -4.6189  -21.5941  -42.6244 H         1 UNK         0.0600 
    199 H199       -4.3927  -22.9904  -43.6773 H         1 UNK         0.0600 
    200 H200       -3.6334  -22.7294  -46.4074 H         1 UNK         0.3000 
    201 H201       -6.0565  -23.3621  -47.9949 H         1 UNK         0.0600 
    202 H202       -4.5762  -25.2302  -47.2988 H         1 UNK         0.0600 
    203 H203       -4.5553  -25.0509  -49.0469 H         1 UNK         0.0600 
    204 H204       -3.1974  -24.4693  -48.0892 H         1 UNK         0.0600 
    205 H205       -2.8484  -21.8417  -48.2796 H         1 UNK         0.3000 
    206 H206       -2.9806  -21.3267  -51.0732 H         1 UNK         0.0600 
    207 H207       -0.8799  -21.7259  -49.8028 H         1 UNK         0.0600 
    208 H208       -0.8478  -20.2286  -50.7080 H         1 UNK         0.0600 
    209 H209       -1.1048  -20.1874  -48.9679 H         1 UNK         0.0600 
    210 H210       -4.9308  -19.9013  -48.9871 H         1 UNK         0.3000 
    211 H211       -5.1672  -17.2549  -50.1218 H         1 UNK         0.0600 
    212 H212       -7.2550  -19.1746  -48.9499 H         1 UNK         0.0600 
    213 H213       -7.5299  -17.4750  -49.3197 H         1 UNK         0.0600 
    214 H214       -6.3850  -17.9221  -48.0645 H         1 UNK         0.0600 
    215 H215       -5.7143  -20.5020  -51.3086 H         1 UNK         0.3000 
    216 H216       -6.1840  -19.3712  -53.9872 H         1 UNK         0.0600 
    217 H217       -7.9221  -21.0934  -54.5082 H         1 UNK         0.0600 
    218 H218       -8.4769  -19.9756  -53.2717 H         1 UNK         0.0600 
    219 H219       -7.9461  -21.5943  -52.8202 H         1 UNK         0.0600 
    220 H220       -5.4830  -22.2856  -51.9998 H         1 UNK         0.3000 
    221 H221       -4.4876  -24.2223  -52.3794 H         1 UNK         0.0600 
    222 H222       -2.5365  -22.5358  -54.0295 H         1 UNK         0.0600 
    223 H223       -2.3768  -22.9981  -52.3375 H         1 UNK         0.0600 
    224 H224       -2.2639  -24.2121  -53.5817 H         1 UNK         0.0600 
    225 H225       -6.7006  -24.1427  -53.6270 H         1 UNK         0.3000 
    226 H226       -8.0908  -24.8238  -55.1862 H         1 UNK         0.0600 
    227 H227       -6.7711  -26.8971  -55.5065 H         1 UNK         0.0600 
    228 H228       -7.4590  -26.3445  -57.0250 H         1 UNK         0.0600 
    229 H229       -5.7509  -26.1050  -56.7027 H         1 UNK         0.0600 
    230 H230       -5.1853  -23.9196  -57.0412 H         1 UNK         0.3000 
    231 H231       -6.2123  -21.3208  -57.7376 H         1 UNK         0.0600 
    232 H232       -5.8770  -23.3622  -60.0097 H         1 UNK         0.0600 
    233 H233       -6.1790  -21.6415  -60.2249 H         1 UNK         0.0600 
    234 H234       -7.4054  -22.6548  -59.4897 H         1 UNK         0.0600 
    235 H235       -3.6992  -23.1716  -56.7617 H         1 UNK         0.3000 
    236 H236       -1.6332  -22.3787  -58.6198 H         1 UNK         0.0600 
    237 H237       -1.4605  -23.7099  -55.8714 H         1 UNK         0.0600 
    238 H238       -1.5806  -24.5477  -57.4163 H         1 UNK         0.0600 
    239 H239       -0.1571  -23.5872  -57.0430 H         1 UNK         0.0600 
    240 H240       -2.9059  -21.0093  -55.6174 H         1 UNK         0.3000 
    241 H241       -0.7671  -18.9142  -55.6557 H         1 UNK         0.0600 
    242 H242       -4.6069  -17.7274  -55.7493 H         1 UNK         0.3800 
    243 H243       -4.2311  -19.4296  -55.8750 H         1 UNK         0.3800 
    244 H244       -1.1453  -18.7366  -53.1444 H         1 UNK         0.0800 
    245 H245       -2.0627  -20.2065  -53.2203 H         1 UNK         0.0800 
    246 H246        2.5086  -19.7798  -53.2424 H         1 UNK         0.0800 
    247 H247        1.4131  -18.5004  -53.6937 H         1 UNK         0.0800 
@<TRIPOS>BOND
     1    1    2 1    
     2    1  127 1    
     3    1  128 1    
     4    1  129 1    
     5    2    3 2    
     6    2    4 am   BACKBONE|DICT|INTERRES
     7    4    5 1    
     8    4  130 1    
     9    5    6 1    
    10    5   65 1    
    11    5  131 1    
    12    6    7 1    
    13    6  132 1    
    14    6  133 1    
    15    7    8 1    
    16    8    9 1    
    17    8  134 1    
    18    8  135 1    
    19    9   10 ar   
    20    9   14 ar   
    21   10   11 ar   
    22   10  136 1    
    23   11   12 ar   
    24   11  126 1    
    25   12   13 ar   
    26   12  137 1    
    27   13   14 ar   
    28   13   15 1    
    29   14  138 1    
    30   15   16 1    
    31   15  139 1    
    32   15  140 1    
    33   16   17 1    
    34   17   18 1    
    35   17  141 1    
    36   17  142 1    
    37   18   19 1    
    38   18   67 1    
    39   18  143 1    
    40   19   20 am   BACKBONE|DICT|INTERRES
    41   19  144 1    
    42   20   21 2    
    43   20   22 1    
    44   22   23 1    
    45   22   24 1    
    46   22  145 1    
    47   23  146 1    
    48   23  147 1    
    49   23  148 1    
    50   24   25 am   BACKBONE|DICT|INTERRES
    51   24  149 1    
    52   25   26 2    
    53   25   27 1    
    54   27   28 1    
    55   27   29 1    
    56   27  150 1    
    57   28  151 1    
    58   28  152 1    
    59   28  153 1    
    60   29   30 am   BACKBONE|DICT|INTERRES
    61   29  154 1    
    62   30   31 2    
    63   30   32 1    
    64   32   33 1    
    65   32   34 1    
    66   32  155 1    
    67   33  156 1    
    68   33  157 1    
    69   33  158 1    
    70   34   35 am   BACKBONE|DICT|INTERRES
    71   34  159 1    
    72   35   36 2    
    73   35   37 1    
    74   37   38 1    
    75   37   39 1    
    76   37  160 1    
    77   38  161 1    
    78   38  162 1    
    79   38  163 1    
    80   39   40 am   BACKBONE|DICT|INTERRES
    81   39  164 1    
    82   40   41 2    
    83   40   42 1    
    84   42   43 1    
    85   42   44 1    
    86   42  165 1    
    87   43  166 1    
    88   43  167 1    
    89   43  168 1    
    90   44   45 am   BACKBONE|DICT|INTERRES
    91   44  169 1    
    92   45   46 2    
    93   45   47 1    
    94   47   48 1    
    95   47   49 1    
    96   47  170 1    
    97   48  171 1    
    98   48  172 1    
    99   48  173 1    
   100   49   50 am   BACKBONE|DICT|INTERRES
   101   49  174 1    
   102   50   51 2    
   103   50   52 1    
   104   52   53 1    
   105   52   54 1    
   106   52  175 1    
   107   53  176 1    
   108   53  177 1    
   109   53  178 1    
   110   54   55 am   BACKBONE|DICT|INTERRES
   111   54  179 1    
   112   55   56 2    
   113   55   57 1    
   114   57   58 1    
   115   57   59 1    
   116   57  180 1    
   117   58  181 1    
   118   58  182 1    
   119   58  183 1    
   120   59   60 am   BACKBONE|DICT|INTERRES
   121   59  184 1    
   122   60   61 2    
   123   60   62 1    
   124   62   63 1    
   125   62   64 1    
   126   62  185 1    
   127   63  186 1    
   128   63  187 1    
   129   63  188 1    
   130   64   65 am   BACKBONE|DICT|INTERRES
   131   64  189 1    
   132   65   66 2    
   133   67   68 2    
   134   67   69 am   BACKBONE|DICT|INTERRES
   135   69   70 1    
   136   69  190 1    
   137   70   71 1    
   138   70   72 1    
   139   70  191 1    
   140   71  192 1    
   141   71  193 1    
   142   71  194 1    
   143   72   73 2    
   144   72   74 am   BACKBONE|DICT|INTERRES
   145   74   75 1    
   146   74  195 1    
   147   75   76 1    
   148   75   77 1    
   149   75  196 1    
   150   76  197 1    
   151   76  198 1    
   152   76  199 1    
   153   77   78 2    
   154   77   79 am   BACKBONE|DICT|INTERRES
   155   79   80 1    
   156   79  200 1    
   157   80   81 1    
   158   80   82 1    
   159   80  201 1    
   160   81  202 1    
   161   81  203 1    
   162   81  204 1    
   163   82   83 2    
   164   82   84 am   BACKBONE|DICT|INTERRES
   165   84   85 1    
   166   84  205 1    
   167   85   86 1    
   168   85   87 1    
   169   85  206 1    
   170   86  207 1    
   171   86  208 1    
   172   86  209 1    
   173   87   88 2    
   174   87   89 am   BACKBONE|DICT|INTERRES
   175   89   90 1    
   176   89  210 1    
   177   90   91 1    
   178   90   92 1    
   179   90  211 1    
   180   91  212 1    
   181   91  213 1    
   182   91  214 1    
   183   92   93 2    
   184   92   94 am   BACKBONE|DICT|INTERRES
   185   94   95 1    
   186   94  215 1    
   187   95   96 1    
   188   95   97 1    
   189   95  216 1    
   190   96  217 1    
   191   96  218 1    
   192   96  219 1    
   193   97   98 2    
   194   97   99 am   BACKBONE|DICT|INTERRES
   195   99  100 1    
   196   99  220 1    
   197  100  101 1    
   198  100  102 1    
   199  100  221 1    
   200  101  222 1    
   201  101  223 1    
   202  101  224 1    
   203  102  103 2    
   204  102  104 am   BACKBONE|DICT|INTERRES
   205  104  105 1    
   206  104  225 1    
   207  105  106 1    
   208  105  107 1    
   209  105  226 1    
   210  106  227 1    
   211  106  228 1    
   212  106  229 1    
   213  107  108 2    
   214  107  109 am   BACKBONE|DICT|INTERRES
   215  109  110 1    
   216  109  230 1    
   217  110  111 1    
   218  110  112 1    
   219  110  231 1    
   220  111  232 1    
   221  111  233 1    
   222  111  234 1    
   223  112  113 2    
   224  112  114 am   BACKBONE|DICT|INTERRES
   225  114  115 1    
   226  114  235 1    
   227  115  116 1    
   228  115  117 1    
   229  115  236 1    
   230  116  237 1    
   231  116  238 1    
   232  116  239 1    
   233  117  118 2    
   234  117  119 am   BACKBONE|DICT|INTERRES
   235  119  120 1    
   236  119  240 1    
   237  120  121 1    
   238  120  124 1    
   239  120  241 1    
   240  121  122 am   BACKBONE|DICT|INTERRES
   241  121  123 2    
   242  122  242 1    
   243  122  243 1    
   244  124  125 1    
   245  124  244 1    
   246  124  245 1    
   247  125  126 1    
   248  126  246 1    
   249  126  247 1    
@<TRIPOS>SUBSTRUCTURE
     1 UNK         1 GROUP             0       ****    0 ROOT    
