@<TRIPOS>MOLECULE
3R540
247   249    1
SMALL
USER_CHARGES


@<TRIPOS>ATOM
      1 CA          3.9846  -10.0523  -46.1512 C.3       0 UNK        -0.1800 
      2 C           4.5470  -10.7425  -47.3924 C.2       0 UNK         0.5000 
      3 O           5.0815  -10.0673  -48.2694 O.2       0 UNK        -0.5000 
      4 N           4.4529  -12.0739  -47.5187 N.am      1 UNK        -0.5000 
      5 CA          3.8176  -13.0113  -46.5819 C.3       1 UNK         0.1400 
      6 C6          4.4452  -14.4271  -46.6716 C.3       23 UNK        -0.0398 
      7 S7          4.3224  -15.2272  -48.3137 S.3       23 UNK        -0.2404 
      8 C8          2.8677  -16.2873  -48.0550 C.3       23 UNK        -0.0205 
      9 C9          2.6161  -17.2121  -49.2331 C.ar      23 UNK        -0.0193 
     10 C10         1.8303  -16.7943  -50.3112 C.ar      23 UNK        -0.1150 
     11 C11         1.5694  -17.6622  -51.3772 C.ar      23 UNK        -0.0193 
     12 C12         2.0821  -18.9634  -51.3446 C.ar      23 UNK        -0.1150 
     13 C13         2.8571  -19.3960  -50.2649 C.ar      23 UNK        -0.0193 
     14 C14         3.1425  -18.5049  -49.2279 C.ar      23 UNK        -0.1150 
     15 C15         3.3650  -20.8313  -50.2068 C.3       23 UNK        -0.0205 
     16 S16         2.8234  -21.7087  -48.6994 S.3       23 UNK        -0.2404 
     17 C17         1.0214  -21.4317  -48.7470 C.3       23 UNK        -0.0398 
     18 CA          0.2594  -22.2652  -47.6914 C.3       11 UNK         0.1400 
     19 N           0.7026  -22.0013  -46.3176 N.am      11 UNK        -0.5000 
     20 C           0.3401  -22.7268  -45.2492 C.2       10 UNK         0.5000 
     21 O          -0.4174  -23.6939  -45.3232 O.2       10 UNK        -0.5000 
     22 CA          0.8415  -22.2664  -43.8661 C.3       10 UNK         0.1400 
     23 CB          1.2501  -23.4391  -42.9515 C.3       10 UNK        -0.1800 
     24 N           1.8668  -21.2190  -43.9295 N.am      10 UNK        -0.5000 
     25 C           3.1571  -21.3401  -44.2732 C.2       9 UNK         0.5000 
     26 O           3.7030  -22.4111  -44.5366 O.2       9 UNK        -0.5000 
     27 CA          3.9796  -20.0439  -44.3608 C.3       9 UNK         0.1400 
     28 CB          4.0247  -19.5337  -45.8079 C.3       9 UNK        -0.1800 
     29 N           3.4631  -18.9768  -43.4992 N.am      9 UNK        -0.5000 
     30 C           4.2377  -18.1401  -42.7969 C.2       8 UNK         0.5000 
     31 O           5.4681  -18.1979  -42.7778 O.2       8 UNK        -0.5000 
     32 CA          3.5331  -17.0382  -41.9851 C.3       8 UNK         0.1400 
     33 CB          3.4215  -15.7490  -42.8155 C.3       8 UNK        -0.1800 
     34 N           2.2051  -17.4115  -41.4958 N.am      8 UNK        -0.5000 
     35 C           1.9698  -18.3071  -40.5257 C.2       7 UNK         0.5000 
     36 O           2.8497  -18.9806  -39.9890 O.2       7 UNK        -0.5000 
     37 CA          0.5105  -18.4709  -40.0691 C.3       7 UNK         0.1400 
     38 CB          0.1467  -17.3824  -39.0468 C.3       7 UNK        -0.1800 
     39 N          -0.4100  -18.3856  -41.2014 N.am      7 UNK        -0.5000 
     40 C          -1.0692  -19.4232  -41.7313 C.2       6 UNK         0.5000 
     41 O          -1.0265  -20.5667  -41.2786 O.2       6 UNK        -0.5000 
     42 CA         -1.9096  -19.1534  -42.9961 C.3       6 UNK         0.1400 
     43 CB         -3.3882  -18.9574  -42.6300 C.3       6 UNK        -0.1800 
     44 N          -1.4527  -18.0043  -43.7821 N.am      6 UNK        -0.5000 
     45 C          -0.2750  -17.9279  -44.4152 C.2       5 UNK         0.5000 
     46 O           0.5621  -18.8302  -44.4131 O.2       5 UNK        -0.5000 
     47 CA          0.0434  -16.6151  -45.1477 C.3       5 UNK         0.1400 
     48 CB         -0.5073  -16.6660  -46.5803 C.3       5 UNK        -0.1800 
     49 N          -0.4374  -15.3891  -44.5045 N.am      5 UNK        -0.5000 
     50 C          -0.3158  -15.0171  -43.2215 C.2       4 UNK         0.5000 
     51 O           0.0799  -15.7639  -42.3261 O.2       4 UNK        -0.5000 
     52 CA         -0.6673  -13.5547  -42.8782 C.3       4 UNK         0.1400 
     53 CB          0.5856  -12.8115  -42.3886 C.3       4 UNK        -0.1800 
     54 N          -1.2257  -12.8195  -44.0151 N.am      4 UNK        -0.5000 
     55 C          -2.4971  -12.8681  -44.4286 C.2       3 UNK         0.5000 
     56 O          -3.3783  -13.4922  -43.8377 O.2       3 UNK        -0.5000 
     57 CA         -2.8342  -12.1534  -45.7539 C.3       3 UNK         0.1400 
     58 CB         -3.1803  -10.6697  -45.5234 C.3       3 UNK        -0.1800 
     59 N          -1.8143  -12.3292  -46.8023 N.am      3 UNK        -0.5000 
     60 C          -0.5734  -11.8250  -46.8625 C.2       2 UNK         0.5000 
     61 O          -0.1039  -11.0443  -46.0312 O.2       2 UNK        -0.5000 
     62 CA          0.2921  -12.3055  -48.0451 C.3       2 UNK         0.1400 
     63 CB          0.0989  -11.3850  -49.2593 C.3       2 UNK        -0.1800 
     64 N           1.7219  -12.3782  -47.7328 N.am      2 UNK        -0.5000 
     65 C           2.2791  -13.0627  -46.7216 C.2       1 UNK         0.5000 
     66 O           1.6343  -13.7393  -45.9222 O.2       1 UNK        -0.5000 
     67 C          -1.2576  -22.0463  -47.8350 C.2       11 UNK         0.5000 
     68 O          -1.9408  -22.8871  -48.4139 O.2       11 UNK        -0.5000 
     69 N          -1.7739  -20.9512  -47.2575 N.am      12 UNK        -0.5000 
     70 CA         -3.2049  -20.6373  -47.2625 C.3       12 UNK         0.1400 
     71 CB         -3.4230  -19.1955  -46.7884 C.3       12 UNK        -0.1800 
     72 C          -4.0399  -21.6286  -46.4294 C.2       12 UNK         0.5000 
     73 O          -5.1763  -21.9247  -46.8004 O.2       12 UNK        -0.5000 
     74 N          -3.4428  -22.1585  -45.3515 N.am      13 UNK        -0.5000 
     75 CA         -4.0242  -23.2118  -44.5178 C.3       13 UNK         0.1400 
     76 CB         -3.2275  -23.3328  -43.2096 C.3       13 UNK        -0.1800 
     77 C          -4.1006  -24.5644  -45.2534 C.2       13 UNK         0.5000 
     78 O          -5.0500  -25.3189  -45.0374 O.2       13 UNK        -0.5000 
     79 N          -3.1427  -24.8248  -46.1550 N.am      14 UNK        -0.5000 
     80 CA         -3.1112  -25.9642  -47.0736 C.3       14 UNK         0.1400 
     81 CB         -1.6584  -26.2155  -47.5161 C.3       14 UNK        -0.1800 
     82 C          -4.0770  -25.7657  -48.2634 C.2       14 UNK         0.5000 
     83 O          -3.6560  -25.7635  -49.4233 O.2       14 UNK        -0.5000 
     84 N          -5.3660  -25.5978  -47.9358 N.am      15 UNK        -0.5000 
     85 CA         -6.5170  -25.4793  -48.8339 C.3       15 UNK         0.1400 
     86 CB         -6.8121  -26.8443  -49.4909 C.3       15 UNK        -0.1800 
     87 C          -6.3715  -24.3431  -49.8652 C.2       15 UNK         0.5000 
     88 O          -6.5572  -24.5766  -51.0595 O.2       15 UNK        -0.5000 
     89 N          -6.0184  -23.1381  -49.3916 N.am      16 UNK        -0.5000 
     90 CA         -5.8046  -21.9250  -50.1913 C.3       16 UNK         0.1400 
     91 CB         -7.1325  -21.4394  -50.8113 C.3       16 UNK        -0.1800 
     92 C          -4.6805  -22.0995  -51.2346 C.2       16 UNK         0.5000 
     93 O          -4.8555  -21.7357  -52.3992 O.2       16 UNK        -0.5000 
     94 N          -3.5579  -22.6870  -50.7948 N.am      17 UNK        -0.5000 
     95 CA         -2.3834  -23.0620  -51.5867 C.3       17 UNK         0.1400 
     96 CB         -1.6337  -21.8063  -52.0789 C.3       17 UNK        -0.1800 
     97 C          -2.7446  -24.0563  -52.7061 C.2       17 UNK         0.5000 
     98 O          -2.4199  -23.8249  -53.8707 O.2       17 UNK        -0.5000 
     99 N          -3.4499  -25.1309  -52.3204 N.am      18 UNK        -0.5000 
    100 CA        -4.0130  -26.1731  -53.1861 C.3       18 UNK         0.1400 
    101 CB        -2.8915  -27.0383  -53.7975 C.3       18 UNK        -0.1800 
    102 C         -4.9853  -25.5990  -54.2406 C.2       18 UNK         0.5000 
    103 O         -4.8697  -25.8987  -55.4305 O.2       18 UNK        -0.5000 
    104 N         -5.9187  -24.7648  -53.7635 N.am      19 UNK        -0.5000 
    105 CA        -6.9724  -24.0620  -54.4996 C.3       19 UNK         0.1400 
    106 CB        -7.9657  -25.0638  -55.1247 C.3       19 UNK        -0.1800 
    107 C         -6.4637  -23.0133  -55.5125 C.2       19 UNK         0.5000 
    108 O         -7.2126  -22.6330  -56.4146 O.2       19 UNK        -0.5000 
    109 N         -5.2218  -22.5369  -55.3461 N.am      20 UNK        -0.5000 
    110 CA        -4.6482  -21.4544  -56.1479 C.3       20 UNK         0.1400 
    111 CB        -3.1182  -21.4699  -56.0242 C.3       20 UNK        -0.1800 
    112 C         -5.2046  -20.0758  -55.7488 C.2       20 UNK         0.5000 
    113 O         -5.3607  -19.2183  -56.6190 O.2       20 UNK        -0.5000 
    114 N         -5.4945  -19.8979  -54.4489 N.am      21 UNK        -0.5000 
    115 CA        -6.0336  -18.6908  -53.8124 C.3       21 UNK         0.1400 
    116 CB        -7.5010  -18.4695  -54.2325 C.3       21 UNK        -0.1800 
    117 C         -5.1397  -17.4518  -54.0315 C.2       21 UNK         0.5000 
    118 O         -5.6322  -16.3771  -54.3799 O.2       21 UNK        -0.5000 
    119 N         -3.8279  -17.6431  -53.8444 N.am      22 UNK        -0.5000 
    120 CA        -2.7819  -16.6385  -54.0930 C.3       22 UNK         0.1400 
    121 C         -2.7006  -15.4677  -53.0666 C.2       22 UNK         0.5000 
    122 N         -3.4230  -15.5033  -51.9535 N.am      22 UNK        -0.7600 
    123 O         -1.9756  -14.5028  -53.2929 O.2       22 UNK        -0.5000 
    124 C124       -1.4076  -17.3143  -54.3317 C.3       23 UNK        -0.0398 
    125 S125       -0.7333  -18.1775  -52.8665 S.3       23 UNK        -0.2404 
    126 C126        0.7661  -17.1835  -52.5781 C.3       23 UNK        -0.0205 
    127 H127        4.0897   -8.9705  -46.2361 H         1 UNK         0.0600 
    128 H128        4.5220  -10.3681  -45.2572 H         1 UNK         0.0600 
    129 H129        2.9247  -10.2703  -46.0217 H         1 UNK         0.0600 
    130 H130        4.8351  -12.5073  -48.3480 H         1 UNK         0.3000 
    131 H131        4.0093  -12.6606  -45.5666 H         1 UNK         0.0600 
    132 H132        5.5054  -14.3598  -46.4239 H         1 UNK         0.0800 
    133 H133        4.0205  -15.0834  -45.9099 H         1 UNK         0.0800 
    134 H134        2.9970  -16.8738  -47.1442 H         1 UNK         0.0800 
    135 H135        1.9910  -15.6617  -47.8961 H         1 UNK         0.0800 
    136 H136        1.4305  -15.7899  -50.3217 H         1 UNK         0.1150 
    137 H137        1.8688  -19.6394  -52.1609 H         1 UNK         0.1150 
    138 H138        3.7556  -18.8314  -48.4024 H         1 UNK         0.1150 
    139 H139        3.0312  -21.3955  -51.0789 H         1 UNK         0.0800 
    140 H140        4.4551  -20.8248  -50.2415 H         1 UNK         0.0800 
    141 H141        0.6700  -21.6773  -49.7510 H         1 UNK         0.0800 
    142 H142        0.8297  -20.3667  -48.6035 H         1 UNK         0.0800 
    143 H143        0.4523  -23.3203  -47.8988 H         1 UNK         0.0600 
    144 H144        1.3377  -21.2291  -46.1842 H         1 UNK         0.3000 
    145 H145       -0.0215  -21.7936  -43.4002 H         1 UNK         0.0600 
    146 H146        1.6035  -23.0802  -41.9849 H         1 UNK         0.0600 
    147 H147        0.4009  -24.0962  -42.7609 H         1 UNK         0.0600 
    148 H148        2.0359  -24.0504  -43.3950 H         1 UNK         0.0600 
    149 H149        1.4888  -20.2790  -43.8533 H         1 UNK         0.3000 
    150 H150        4.9949  -20.3083  -44.0576 H         1 UNK         0.0600 
    151 H151        4.4297  -20.2937  -46.4770 H         1 UNK         0.0600 
    152 H152        4.6590  -18.6516  -45.8977 H         1 UNK         0.0600 
    153 H153        3.0288  -19.2701  -46.1663 H         1 UNK         0.0600 
    154 H154        2.4603  -18.8467  -43.4738 H         1 UNK         0.3000 
    155 H155        4.1593  -16.8238  -41.1164 H         1 UNK         0.0600 
    156 H156        4.4019  -15.4201  -43.1622 H         1 UNK         0.0600 
    157 H157        2.9969  -14.9359  -42.2266 H         1 UNK         0.0600 
    158 H158        2.7933  -15.8875  -43.6947 H         1 UNK         0.0600 
    159 H159        1.4264  -16.8590  -41.8463 H         1 UNK         0.3000 
    160 H160        0.4248  -19.4403  -39.5738 H         1 UNK         0.0600 
    161 H161        0.2129  -16.3830  -39.4792 H         1 UNK         0.0600 
    162 H162        0.8163  -17.4144  -38.1864 H         1 UNK         0.0600 
    163 H163       -0.8686  -17.5184  -38.6741 H         1 UNK         0.0600 
    164 H164       -0.4797  -17.4790  -41.6536 H         1 UNK         0.3000 
    165 H165       -1.8338  -20.0395  -43.6290 H         1 UNK         0.0600 
    166 H166       -4.0090  -18.8595  -43.5205 H         1 UNK         0.0600 
    167 H167       -3.7677  -19.8101  -42.0654 H         1 UNK         0.0600 
    168 H168       -3.5350  -18.0666  -42.0180 H         1 UNK         0.0600 
    169 H169       -2.0631  -17.2004  -43.8116 H         1 UNK         0.3000 
    170 H170        1.1295  -16.5367  -45.2088 H         1 UNK         0.0600 
    171 H171       -0.1347  -17.5391  -47.1184 H         1 UNK         0.0600 
    172 H172       -1.5964  -16.7095  -46.5867 H         1 UNK         0.0600 
    173 H173       -0.2131  -15.7841  -47.1486 H         1 UNK         0.0600 
    174 H174       -0.7278  -14.6613  -45.1392 H         1 UNK         0.3000 
    175 H175       -1.3980  -13.5729  -42.0673 H         1 UNK         0.0600 
    176 H176        1.3587  -12.7802  -43.1578 H         1 UNK         0.0600 
    177 H177        0.3505  -11.7849  -42.1071 H         1 UNK         0.0600 
    178 H178        1.0139  -13.2978  -41.5111 H         1 UNK         0.0600 
    179 H179       -0.5753  -12.2654  -44.5650 H         1 UNK         0.3000 
    180 H180       -3.7331  -12.6348  -46.1427 H         1 UNK         0.0600 
    181 H181       -2.3543  -10.1187  -45.0735 H         1 UNK         0.0600 
    182 H182       -4.0345  -10.5729  -44.8523 H         1 UNK         0.0600 
    183 H183       -3.4443  -10.1762  -46.4587 H         1 UNK         0.0600 
    184 H184       -2.0922  -12.9598  -47.5417 H         1 UNK         0.3000 
    185 H185       -0.0274  -13.3134  -48.3175 H         1 UNK         0.0600 
    186 H186        0.6477  -11.7534  -50.1263 H         1 UNK         0.0600 
    187 H187       -0.9523  -11.3251  -49.5446 H         1 UNK         0.0600 
    188 H188        0.4406  -10.3702  -49.0509 H         1 UNK         0.0600 
    189 H189        2.3375  -11.8532  -48.3357 H         1 UNK         0.3000 
    190 H190       -1.1586  -20.3063  -46.7848 H         1 UNK         0.3000 
    191 H191       -3.5521  -20.7020  -48.2945 H         1 UNK         0.0600 
    192 H192       -2.9360  -18.4877  -47.4585 H         1 UNK         0.0600 
    193 H193       -4.4845  -18.9450  -46.7708 H         1 UNK         0.0600 
    194 H194       -3.0324  -19.0381  -45.7851 H         1 UNK         0.0600 
    195 H195       -2.4904  -21.8971  -45.1528 H         1 UNK         0.3000 
    196 H196       -5.0445  -22.9161  -44.2642 H         1 UNK         0.0600 
    197 H197       -3.6864  -24.0646  -42.5438 H         1 UNK         0.0600 
    198 H198       -3.1961  -22.3833  -42.6746 H         1 UNK         0.0600 
    199 H199       -2.2010  -23.6531  -43.3846 H         1 UNK         0.0600 
    200 H200       -2.3881  -24.1582  -46.2592 H         1 UNK         0.3000 
    201 H201       -3.4450  -26.8533  -46.5349 H         1 UNK         0.0600 
    202 H202       -1.0072  -26.3763  -46.6567 H         1 UNK         0.0600 
    203 H203       -1.2553  -25.3792  -48.0864 H         1 UNK         0.0600 
    204 H204       -1.5912  -27.1029  -48.1464 H         1 UNK         0.0600 
    205 H205       -5.5789  -25.5745  -46.9431 H         1 UNK         0.3000 
    206 H206       -7.3734  -25.2191  -48.2104 H         1 UNK         0.0600 
    207 H207       -6.9536  -27.6210  -48.7395 H         1 UNK         0.0600 
    208 H208       -7.7236  -26.8030  -50.0885 H         1 UNK         0.0600 
    209 H209       -6.0024  -27.1596  -50.1500 H         1 UNK         0.0600 
    210 H210       -5.8557  -23.0309  -48.3953 H         1 UNK         0.3000 
    211 H211       -5.4711  -21.1504  -49.5018 H         1 UNK         0.0600 
    212 H212       -7.5028  -22.1239  -51.5746 H         1 UNK         0.0600 
    213 H213       -7.0106  -20.4642  -51.2815 H         1 UNK         0.0600 
    214 H214       -7.9066  -21.3353  -50.0512 H         1 UNK         0.0600 
    215 H215       -3.4974  -22.9597  -49.8204 H         1 UNK         0.3000 
    216 H216       -1.7117  -23.6020  -50.9186 H         1 UNK         0.0600 
    217 H217       -0.7261  -22.0766  -52.6194 H         1 UNK         0.0600 
    218 H218       -1.3367  -21.1746  -51.2418 H         1 UNK         0.0600 
    219 H219       -2.2448  -21.2003  -52.7464 H         1 UNK         0.0600 
    220 H220       -3.6527  -25.2331  -51.3288 H         1 UNK         0.3000 
    221 H221       -4.6097  -26.8170  -52.5383 H         1 UNK         0.0600 
    222 H222       -2.2684  -26.4685  -54.4875 H         1 UNK         0.0600 
    223 H223       -2.2447  -27.4487  -53.0222 H         1 UNK         0.0600 
    224 H224       -3.3075  -27.8801  -54.3521 H         1 UNK         0.0600 
    225 H225       -5.9485  -24.6168  -52.7552 H         1 UNK         0.3000 
    226 H226       -7.5188  -23.4940  -53.7456 H         1 UNK         0.0600 
    227 H227       -7.5137  -25.6259  -55.9423 H         1 UNK         0.0600 
    228 H228       -8.3238  -25.7778  -54.3830 H         1 UNK         0.0600 
    229 H229       -8.8406  -24.5512  -55.5260 H         1 UNK         0.0600 
    230 H230       -4.6686  -22.8773  -54.5698 H         1 UNK         0.3000 
    231 H231       -4.9005  -21.6271  -57.1963 H         1 UNK         0.0600 
    232 H232       -2.7064  -22.4279  -56.3419 H         1 UNK         0.0600 
    233 H233       -2.7966  -21.2905  -54.9989 H         1 UNK         0.0600 
    234 H234       -2.6676  -20.6975  -56.6486 H         1 UNK         0.0600 
    235 H235       -5.2945  -20.6670  -53.8106 H         1 UNK         0.3000 
    236 H236       -6.0235  -18.8798  -52.7389 H         1 UNK         0.0600 
    237 H237       -8.1048  -19.3540  -54.0288 H         1 UNK         0.0600 
    238 H238       -7.9451  -17.6399  -53.6814 H         1 UNK         0.0600 
    239 H239       -7.5883  -18.2416  -55.2952 H         1 UNK         0.0600 
    240 H240       -3.5049  -18.5519  -53.5463 H         1 UNK         0.3000 
    241 H241       -3.0467  -16.1560  -55.0360 H         1 UNK         0.0600 
    242 H242       -3.3694  -14.7362  -51.3030 H         1 UNK         0.3800 
    243 H243       -4.0221  -16.2882  -51.7584 H         1 UNK         0.3800 
    244 H244       -1.4967  -18.0454  -55.1365 H         1 UNK         0.0800 
    245 H245       -0.6886  -16.5778  -54.6944 H         1 UNK         0.0800 
    246 H246        0.4773  -16.1383  -52.4537 H         1 UNK         0.0800 
    247 H247        1.4025  -17.2273  -53.4631 H         1 UNK         0.0800 
@<TRIPOS>BOND
     1    1    2 1    
     2    1  127 1    
     3    1  128 1    
     4    1  129 1    
     5    2    3 2    
     6    2    4 am   BACKBONE|DICT|INTERRES
     7    4    5 1    
     8    4  130 1    
     9    5    6 1    
    10    5   65 1    
    11    5  131 1    
    12    6    7 1    
    13    6  132 1    
    14    6  133 1    
    15    7    8 1    
    16    8    9 1    
    17    8  134 1    
    18    8  135 1    
    19    9   10 ar   
    20    9   14 ar   
    21   10   11 ar   
    22   10  136 1    
    23   11   12 ar   
    24   11  126 1    
    25   12   13 ar   
    26   12  137 1    
    27   13   14 ar   
    28   13   15 1    
    29   14  138 1    
    30   15   16 1    
    31   15  139 1    
    32   15  140 1    
    33   16   17 1    
    34   17   18 1    
    35   17  141 1    
    36   17  142 1    
    37   18   19 1    
    38   18   67 1    
    39   18  143 1    
    40   19   20 am   BACKBONE|DICT|INTERRES
    41   19  144 1    
    42   20   21 2    
    43   20   22 1    
    44   22   23 1    
    45   22   24 1    
    46   22  145 1    
    47   23  146 1    
    48   23  147 1    
    49   23  148 1    
    50   24   25 am   BACKBONE|DICT|INTERRES
    51   24  149 1    
    52   25   26 2    
    53   25   27 1    
    54   27   28 1    
    55   27   29 1    
    56   27  150 1    
    57   28  151 1    
    58   28  152 1    
    59   28  153 1    
    60   29   30 am   BACKBONE|DICT|INTERRES
    61   29  154 1    
    62   30   31 2    
    63   30   32 1    
    64   32   33 1    
    65   32   34 1    
    66   32  155 1    
    67   33  156 1    
    68   33  157 1    
    69   33  158 1    
    70   34   35 am   BACKBONE|DICT|INTERRES
    71   34  159 1    
    72   35   36 2    
    73   35   37 1    
    74   37   38 1    
    75   37   39 1    
    76   37  160 1    
    77   38  161 1    
    78   38  162 1    
    79   38  163 1    
    80   39   40 am   BACKBONE|DICT|INTERRES
    81   39  164 1    
    82   40   41 2    
    83   40   42 1    
    84   42   43 1    
    85   42   44 1    
    86   42  165 1    
    87   43  166 1    
    88   43  167 1    
    89   43  168 1    
    90   44   45 am   BACKBONE|DICT|INTERRES
    91   44  169 1    
    92   45   46 2    
    93   45   47 1    
    94   47   48 1    
    95   47   49 1    
    96   47  170 1    
    97   48  171 1    
    98   48  172 1    
    99   48  173 1    
   100   49   50 am   BACKBONE|DICT|INTERRES
   101   49  174 1    
   102   50   51 2    
   103   50   52 1    
   104   52   53 1    
   105   52   54 1    
   106   52  175 1    
   107   53  176 1    
   108   53  177 1    
   109   53  178 1    
   110   54   55 am   BACKBONE|DICT|INTERRES
   111   54  179 1    
   112   55   56 2    
   113   55   57 1    
   114   57   58 1    
   115   57   59 1    
   116   57  180 1    
   117   58  181 1    
   118   58  182 1    
   119   58  183 1    
   120   59   60 am   BACKBONE|DICT|INTERRES
   121   59  184 1    
   122   60   61 2    
   123   60   62 1    
   124   62   63 1    
   125   62   64 1    
   126   62  185 1    
   127   63  186 1    
   128   63  187 1    
   129   63  188 1    
   130   64   65 am   BACKBONE|DICT|INTERRES
   131   64  189 1    
   132   65   66 2    
   133   67   68 2    
   134   67   69 am   BACKBONE|DICT|INTERRES
   135   69   70 1    
   136   69  190 1    
   137   70   71 1    
   138   70   72 1    
   139   70  191 1    
   140   71  192 1    
   141   71  193 1    
   142   71  194 1    
   143   72   73 2    
   144   72   74 am   BACKBONE|DICT|INTERRES
   145   74   75 1    
   146   74  195 1    
   147   75   76 1    
   148   75   77 1    
   149   75  196 1    
   150   76  197 1    
   151   76  198 1    
   152   76  199 1    
   153   77   78 2    
   154   77   79 am   BACKBONE|DICT|INTERRES
   155   79   80 1    
   156   79  200 1    
   157   80   81 1    
   158   80   82 1    
   159   80  201 1    
   160   81  202 1    
   161   81  203 1    
   162   81  204 1    
   163   82   83 2    
   164   82   84 am   BACKBONE|DICT|INTERRES
   165   84   85 1    
   166   84  205 1    
   167   85   86 1    
   168   85   87 1    
   169   85  206 1    
   170   86  207 1    
   171   86  208 1    
   172   86  209 1    
   173   87   88 2    
   174   87   89 am   BACKBONE|DICT|INTERRES
   175   89   90 1    
   176   89  210 1    
   177   90   91 1    
   178   90   92 1    
   179   90  211 1    
   180   91  212 1    
   181   91  213 1    
   182   91  214 1    
   183   92   93 2    
   184   92   94 am   BACKBONE|DICT|INTERRES
   185   94   95 1    
   186   94  215 1    
   187   95   96 1    
   188   95   97 1    
   189   95  216 1    
   190   96  217 1    
   191   96  218 1    
   192   96  219 1    
   193   97   98 2    
   194   97   99 am   BACKBONE|DICT|INTERRES
   195   99  100 1    
   196   99  220 1    
   197  100  101 1    
   198  100  102 1    
   199  100  221 1    
   200  101  222 1    
   201  101  223 1    
   202  101  224 1    
   203  102  103 2    
   204  102  104 am   BACKBONE|DICT|INTERRES
   205  104  105 1    
   206  104  225 1    
   207  105  106 1    
   208  105  107 1    
   209  105  226 1    
   210  106  227 1    
   211  106  228 1    
   212  106  229 1    
   213  107  108 2    
   214  107  109 am   BACKBONE|DICT|INTERRES
   215  109  110 1    
   216  109  230 1    
   217  110  111 1    
   218  110  112 1    
   219  110  231 1    
   220  111  232 1    
   221  111  233 1    
   222  111  234 1    
   223  112  113 2    
   224  112  114 am   BACKBONE|DICT|INTERRES
   225  114  115 1    
   226  114  235 1    
   227  115  116 1    
   228  115  117 1    
   229  115  236 1    
   230  116  237 1    
   231  116  238 1    
   232  116  239 1    
   233  117  118 2    
   234  117  119 am   BACKBONE|DICT|INTERRES
   235  119  120 1    
   236  119  240 1    
   237  120  121 1    
   238  120  124 1    
   239  120  241 1    
   240  121  122 am   BACKBONE|DICT|INTERRES
   241  121  123 2    
   242  122  242 1    
   243  122  243 1    
   244  124  125 1    
   245  124  244 1    
   246  124  245 1    
   247  125  126 1    
   248  126  246 1    
   249  126  247 1    
@<TRIPOS>SUBSTRUCTURE
     1 UNK         1 GROUP             0       ****    0 ROOT    
