@<TRIPOS>MOLECULE
3R540
247   249    1
SMALL
USER_CHARGES


@<TRIPOS>ATOM
      1 CA         -1.8383  -13.7649  -49.4828 C.3       0 UNK        -0.1800 
      2 C          -0.6696  -13.4788  -48.5512 C.2       0 UNK         0.5000 
      3 O          -0.8357  -13.5219  -47.3336 O.2       0 UNK        -0.5000 
      4 N           0.5087  -13.1881  -49.1220 N.am      1 UNK        -0.5000 
      5 CA          1.7809  -12.9383  -48.4224 C.3       1 UNK         0.1400 
      6 C6          2.3202  -14.1900  -47.6717 C.3       23 UNK        -0.0398 
      7 S7          2.9017  -15.4766  -48.8280 S.3       23 UNK        -0.2404 
      8 C8          1.4793  -16.6058  -48.8878 C.3       23 UNK        -0.0205 
      9 C9          1.7252  -17.7408  -49.8677 C.ar      23 UNK        -0.0193 
     10 C10         1.6131  -17.5095  -51.2405 C.ar      23 UNK        -0.1150 
     11 C11         1.8800  -18.5297  -52.1564 C.ar      23 UNK        -0.0193 
     12 C12         2.2315  -19.7983  -51.6873 C.ar      23 UNK        -0.1150 
     13 C13         2.3321  -20.0540  -50.3156 C.ar      23 UNK        -0.0193 
     14 C14         2.0851  -19.0118  -49.4105 C.ar      23 UNK        -0.1150 
     15 C15         2.7692  -21.4479  -49.8628 C.3       23 UNK        -0.0205 
     16 S16         2.2471  -21.9246  -48.1805 S.3       23 UNK        -0.2404 
     17 C17         0.4409  -22.0672  -48.3830 C.3       23 UNK        -0.0398 
     18 CA         -0.1541  -23.0736  -47.3725 C.3       11 UNK         0.1400 
     19 N          -0.0851  -22.5904  -45.9883 N.am      11 UNK        -0.5000 
     20 C          -0.3206  -23.3519  -44.9109 C.2       10 UNK         0.5000 
     21 O          -0.6454  -24.5365  -44.9755 O.2       10 UNK        -0.5000 
     22 CA         -0.2215  -22.6762  -43.5326 C.3       10 UNK         0.1400 
     23 CB          1.2423  -22.4146  -43.1477 C.3       10 UNK        -0.1800 
     24 N          -0.9878  -21.4333  -43.4644 N.am      10 UNK        -0.5000 
     25 C          -2.3222  -21.3596  -43.5774 C.2       9 UNK         0.5000 
     26 O          -3.0548  -22.3422  -43.6989 O.2       9 UNK        -0.5000 
     27 CA         -2.9381  -19.9471  -43.6109 C.3       9 UNK         0.1400 
     28 CB         -3.0783  -19.3755  -42.1925 C.3       9 UNK        -0.1800 
     29 N          -2.1767  -19.0139  -44.4435 N.am      9 UNK        -0.5000 
     30 C          -1.9448  -19.1853  -45.7524 C.2       8 UNK         0.5000 
     31 O          -2.3792  -20.1310  -46.4029 O.2       8 UNK        -0.5000 
     32 CA         -1.0118  -18.1770  -46.4374 C.3       8 UNK         0.1400 
     33 CB         -1.7505  -16.8792  -46.7892 C.3       8 UNK        -0.1800 
     34 N           0.1648  -17.8875  -45.6200 N.am      8 UNK        -0.5000 
     35 C           1.1130  -18.7913  -45.3339 C.2       7 UNK         0.5000 
     36 O           1.1074  -19.9440  -45.7607 O.2       7 UNK        -0.5000 
     37 CA          2.2209  -18.3467  -44.3675 C.3       7 UNK         0.1400 
     38 CB          3.3082  -17.5605  -45.1163 C.3       7 UNK        -0.1800 
     39 N           1.6815  -17.5441  -43.2688 N.am      7 UNK        -0.5000 
     40 C           0.9042  -18.0439  -42.2939 C.2       6 UNK         0.5000 
     41 O           0.6196  -19.2376  -42.1976 O.2       6 UNK        -0.5000 
     42 CA          0.3041  -17.0465  -41.2826 C.3       6 UNK         0.1400 
     43 CB          1.2493  -16.8588  -40.0871 C.3       6 UNK        -0.1800 
     44 N           0.0078  -15.7404  -41.8705 N.am      6 UNK        -0.5000 
     45 C          -0.8565  -15.5253  -42.8724 C.2       5 UNK         0.5000 
     46 O          -1.5825  -16.4028  -43.3383 O.2       5 UNK        -0.5000 
     47 CA         -0.8756  -14.1137  -43.4938 C.3       5 UNK         0.1400 
     48 CB         -2.0825  -13.3138  -42.9839 C.3       5 UNK        -0.1800 
     49 N           0.3459  -13.3386  -43.2525 N.am      5 UNK        -0.5000 
     50 C           1.5758  -13.6681  -43.6695 C.2       4 UNK         0.5000 
     51 O           1.8219  -14.7045  -44.2877 O.2       4 UNK        -0.5000 
     52 CA          2.7082  -12.6893  -43.3016 C.3       4 UNK         0.1400 
     53 CB          4.0585  -13.0665  -43.9366 C.3       4 UNK        -0.1800 
     54 N           2.3646  -11.3153  -43.6706 N.am      4 UNK        -0.5000 
     55 C           1.6746  -10.4621  -42.9004 C.2       3 UNK         0.5000 
     56 O           1.2444  -10.7599  -41.7855 O.2       3 UNK        -0.5000 
     57 CA          1.3914   -9.0556  -43.4628 C.3       3 UNK         0.1400 
     58 CB          2.4186   -8.0473  -42.9260 C.3       3 UNK        -0.1800 
     59 N           1.3932   -9.0014  -44.9244 N.am      3 UNK        -0.5000 
     60 C           0.4475   -9.5287  -45.7130 C.2       2 UNK         0.5000 
     61 O          -0.5592  -10.0950  -45.2847 O.2       2 UNK        -0.5000 
     62 CA          0.6571   -9.4137  -47.2383 C.3       2 UNK         0.1400 
     63 CB          1.7983   -8.4560  -47.6509 C.3       2 UNK        -0.1800 
     64 N           0.8489  -10.7237  -47.8666 N.am      2 UNK        -0.5000 
     65 C           1.7646  -11.6548  -47.5530 C.2       1 UNK         0.5000 
     66 O           2.5989  -11.5064  -46.6583 O.2       1 UNK        -0.5000 
     67 C          -1.5787  -23.4949  -47.7823 C.2       11 UNK         0.5000 
     68 O          -1.7241  -24.4850  -48.4998 O.2       11 UNK        -0.5000 
     69 N          -2.6044  -22.7768  -47.3049 N.am      12 UNK        -0.5000 
     70 CA         -4.0160  -23.1120  -47.4974 C.3       12 UNK         0.1400 
     71 CB         -4.8982  -21.9631  -46.9853 C.3       12 UNK        -0.1800 
     72 C          -4.4166  -24.4393  -46.8286 C.2       12 UNK         0.5000 
     73 O          -5.2351  -25.1698  -47.3854 O.2       12 UNK        -0.5000 
     74 N          -3.8244  -24.7360  -45.6655 N.am      13 UNK        -0.5000 
     75 CA         -4.0275  -25.9894  -44.9450 C.3       13 UNK         0.1400 
     76 CB         -3.6676  -25.7902  -43.4640 C.3       13 UNK        -0.1800 
     77 C          -3.2190  -27.1479  -45.5563 C.2       13 UNK         0.5000 
     78 O          -3.7695  -28.2305  -45.7604 O.2       13 UNK        -0.5000 
     79 N          -1.9248  -26.9106  -45.8080 N.am      14 UNK        -0.5000 
     80 CA         -0.9640  -27.9375  -46.2065 C.3       14 UNK         0.1400 
     81 CB          0.4587  -27.4569  -45.8775 C.3       14 UNK        -0.1800 
     82 C          -1.0635  -28.3394  -47.6867 C.2       14 UNK         0.5000 
     83 O          -1.0721  -29.5346  -47.9855 O.2       14 UNK        -0.5000 
     84 N          -1.0951  -27.3451  -48.5826 N.am      15 UNK        -0.5000 
     85 CA         -0.9874  -27.5407  -50.0313 C.3       15 UNK         0.1400 
     86 CB          0.1696  -26.6705  -50.5523 C.3       15 UNK        -0.1800 
     87 C          -2.2819  -27.1901  -50.7815 C.2       15 UNK         0.5000 
     88 O          -2.4635  -27.6545  -51.9069 O.2       15 UNK        -0.5000 
     89 N          -3.1274  -26.3471  -50.1707 N.am      16 UNK        -0.5000 
     90 CA         -4.3254  -25.7135  -50.7365 C.3       16 UNK         0.1400 
     91 CB         -5.3725  -26.7546  -51.1817 C.3       16 UNK        -0.1800 
     92 C          -4.0083  -24.6738  -51.8335 C.2       16 UNK         0.5000 
     93 O          -4.9137  -24.2544  -52.5543 O.2       16 UNK        -0.5000 
     94 N          -2.7412  -24.2410  -51.9194 N.am      17 UNK        -0.5000 
     95 CA         -2.2514  -23.2643  -52.8921 C.3       17 UNK         0.1400 
     96 CB         -0.7151  -23.2132  -52.8417 C.3       17 UNK        -0.1800 
     97 C          -2.8596  -21.8750  -52.6528 C.2       17 UNK         0.5000 
     98 O          -3.4688  -21.3045  -53.5552 O.2       17 UNK        -0.5000 
     99 N          -2.7304  -21.3840  -51.4133 N.am      18 UNK        -0.5000 
    100 CA        -3.2795  -20.1007  -50.9749 C.3       18 UNK         0.1400 
    101 CB        -2.6081  -19.6935  -49.6593 C.3       18 UNK        -0.1800 
    102 C         -4.8143  -20.1108  -50.8462 C.2       18 UNK         0.5000 
    103 O         -5.4323  -19.0553  -50.9787 O.2       18 UNK        -0.5000 
    104 N         -5.4099  -21.2977  -50.6518 N.am      19 UNK        -0.5000 
    105 CA        -6.8624  -21.5054  -50.6496 C.3       19 UNK         0.1400 
    106 CB        -7.1846  -22.9127  -50.1225 C.3       19 UNK        -0.1800 
    107 C         -7.4903  -21.2919  -52.0421 C.2       19 UNK         0.5000 
    108 O         -8.6313  -20.8395  -52.1333 O.2       19 UNK        -0.5000 
    109 N         -6.7161  -21.5804  -53.0967 N.am      20 UNK        -0.5000 
    110 CA        -7.0546  -21.3306  -54.4987 C.3       20 UNK         0.1400 
    111 CB        -6.4064  -22.4341  -55.3525 C.3       20 UNK        -0.1800 
    112 C         -6.6209  -19.9260  -54.9786 C.2       20 UNK         0.5000 
    113 O         -6.7478  -19.6420  -56.1704 O.2       20 UNK        -0.5000 
    114 N         -6.1297  -19.0890  -54.0501 N.am      21 UNK        -0.5000 
    115 CA        -5.4885  -17.7805  -54.2115 C.3       21 UNK         0.1400 
    116 CB        -6.3275  -16.8021  -55.0566 C.3       21 UNK        -0.1800 
    117 C         -4.0479  -17.9138  -54.7393 C.2       21 UNK         0.5000 
    118 O         -3.8066  -18.5853  -55.7442 O.2       21 UNK        -0.5000 
    119 N         -3.1116  -17.2577  -54.0481 N.am      22 UNK        -0.5000 
    120 CA        -1.6737  -17.2886  -54.3317 C.3       22 UNK         0.1400 
    121 C         -1.0342  -15.9506  -53.8854 C.2       22 UNK         0.5000 
    122 N         -0.2140  -15.3299  -54.7216 N.am      22 UNK        -0.7600 
    123 O         -1.2643  -15.4799  -52.7739 O.2       22 UNK        -0.5000 
    124 C124       -0.9998  -18.5096  -53.6519 C.3       23 UNK        -0.0398 
    125 S125        0.4879  -19.1126  -54.5150 S.3       23 UNK        -0.2404 
    126 C126        1.8354  -18.2431  -53.6510 C.3       23 UNK        -0.0205 
    127 H127       -2.6551  -13.0706  -49.2858 H         1 UNK         0.0600 
    128 H128       -2.2047  -14.7790  -49.3231 H         1 UNK         0.0600 
    129 H129       -1.5547  -13.6693  -50.5313 H         1 UNK         0.0600 
    130 H130        0.5674  -13.1657  -50.1307 H         1 UNK         0.3000 
    131 H131        2.4994  -12.7044  -49.2094 H         1 UNK         0.0600 
    132 H132        1.5753  -14.6003  -46.9893 H         1 UNK         0.0800 
    133 H133        3.1812  -13.9375  -47.0527 H         1 UNK         0.0800 
    134 H134        1.2978  -16.9959  -47.8884 H         1 UNK         0.0800 
    135 H135        0.5828  -16.0623  -49.1849 H         1 UNK         0.0800 
    136 H136        1.3449  -16.5233  -51.5938 H         1 UNK         0.1150 
    137 H137        2.4437  -20.5848  -52.3982 H         1 UNK         0.1150 
    138 H138        2.1858  -19.1784  -48.3476 H         1 UNK         0.1150 
    139 H139        2.4074  -22.2009  -50.5649 H         1 UNK         0.0800 
    140 H140        3.8582  -21.4891  -49.9044 H         1 UNK         0.0800 
    141 H141        0.2384  -22.3822  -49.4081 H         1 UNK         0.0800 
    142 H142       -0.0107  -21.0808  -48.2634 H         1 UNK         0.0800 
    143 H143        0.4483  -23.9837  -47.4211 H         1 UNK         0.0600 
    144 H144        0.2154  -21.6267  -45.8607 H         1 UNK         0.3000 
    145 H145       -0.6422  -23.3653  -42.7973 H         1 UNK         0.0600 
    146 H146        1.3172  -22.0147  -42.1364 H         1 UNK         0.0600 
    147 H147        1.8239  -23.3367  -43.1770 H         1 UNK         0.0600 
    148 H148        1.7195  -21.7043  -43.8227 H         1 UNK         0.0600 
    149 H149       -0.4586  -20.5793  -43.3248 H         1 UNK         0.3000 
    150 H150       -3.9370  -20.0318  -44.0436 H         1 UNK         0.0600 
    151 H151       -3.6938  -20.0259  -41.5699 H         1 UNK         0.0600 
    152 H152       -3.5518  -18.3936  -42.2072 H         1 UNK         0.0600 
    153 H153       -2.1104  -19.2731  -41.7024 H         1 UNK         0.0600 
    154 H154       -1.8186  -18.1771  -43.9907 H         1 UNK         0.3000 
    155 H155       -0.6676  -18.6284  -47.3706 H         1 UNK         0.0600 
    156 H156       -2.1164  -16.3601  -45.9040 H         1 UNK         0.0600 
    157 H157       -2.6107  -17.0808  -47.4281 H         1 UNK         0.0600 
    158 H158       -1.0985  -16.1966  -47.3301 H         1 UNK         0.0600 
    159 H159        0.2171  -16.9748  -45.1916 H         1 UNK         0.3000 
    160 H160        2.6806  -19.2423  -43.9441 H         1 UNK         0.0600 
    161 H161        2.9033  -16.6834  -45.6216 H         1 UNK         0.0600 
    162 H162        3.7785  -18.1826  -45.8790 H         1 UNK         0.0600 
    163 H163        4.0932  -17.2250  -44.4386 H         1 UNK         0.0600 
    164 H164        1.8276  -16.5424  -43.3282 H         1 UNK         0.3000 
    165 H165       -0.6336  -17.4680  -40.9158 H         1 UNK         0.0600 
    166 H166        0.8029  -16.2165  -39.3278 H         1 UNK         0.0600 
    167 H167        1.4718  -17.8153  -39.6121 H         1 UNK         0.0600 
    168 H168        2.1982  -16.4136  -40.3895 H         1 UNK         0.0600 
    169 H169        0.5569  -14.9599  -41.5432 H         1 UNK         0.3000 
    170 H170       -0.9781  -14.2382  -44.5738 H         1 UNK         0.0600 
    171 H171       -3.0144  -13.8481  -43.1743 H         1 UNK         0.0600 
    172 H172       -2.0200  -13.1315  -41.9104 H         1 UNK         0.0600 
    173 H173       -2.1542  -12.3486  -43.4863 H         1 UNK         0.0600 
    174 H174        0.2415  -12.4740  -42.7363 H         1 UNK         0.3000 
    175 H175        2.8366  -12.7503  -42.2190 H         1 UNK         0.0600 
    176 H176        4.0159  -13.0449  -45.0245 H         1 UNK         0.0600 
    177 H177        4.8459  -12.3824  -43.6204 H         1 UNK         0.0600 
    178 H178        4.3644  -14.0708  -43.6407 H         1 UNK         0.0600 
    179 H179        2.5947  -11.0440  -44.6209 H         1 UNK         0.3000 
    180 H180        0.4024   -8.7544  -43.1108 H         1 UNK         0.0600 
    181 H181        3.4296   -8.2870  -43.2580 H         1 UNK         0.0600 
    182 H182        2.4247   -8.0389  -41.8351 H         1 UNK         0.0600 
    183 H183        2.1872   -7.0342  -43.2556 H         1 UNK         0.0600 
    184 H184        2.1950   -8.5696  -45.3603 H         1 UNK         0.3000 
    185 H185       -0.2725   -9.0091  -47.6412 H         1 UNK         0.0600 
    186 H186        1.6454   -7.4580  -47.2380 H         1 UNK         0.0600 
    187 H187        2.7761   -8.8097  -47.3223 H         1 UNK         0.0600 
    188 H188        1.8385   -8.3477  -48.7349 H         1 UNK         0.0600 
    189 H189        0.1909  -10.9568  -48.5962 H         1 UNK         0.3000 
    190 H190       -2.4132  -21.9315  -46.7697 H         1 UNK         0.3000 
    191 H191       -4.1887  -23.2176  -48.5693 H         1 UNK         0.0600 
    192 H192       -4.7298  -21.0498  -47.5554 H         1 UNK         0.0600 
    193 H193       -5.9575  -22.2066  -47.0713 H         1 UNK         0.0600 
    194 H194       -4.6995  -21.7438  -45.9360 H         1 UNK         0.0600 
    195 H195       -3.1804  -24.0702  -45.2566 H         1 UNK         0.3000 
    196 H196       -5.0855  -26.2564  -44.9953 H         1 UNK         0.0600 
    197 H197       -3.8207  -26.7094  -42.8973 H         1 UNK         0.0600 
    198 H198       -4.2904  -25.0194  -43.0095 H         1 UNK         0.0600 
    199 H199       -2.6264  -25.4933  -43.3346 H         1 UNK         0.0600 
    200 H200       -1.5392  -25.9965  -45.5772 H         1 UNK         0.3000 
    201 H201       -1.1540  -28.8319  -45.6089 H         1 UNK         0.0600 
    202 H202        0.5672  -27.2494  -44.8128 H         1 UNK         0.0600 
    203 H203        0.7142  -26.5467  -46.4215 H         1 UNK         0.0600 
    204 H204        1.1986  -28.2147  -46.1383 H         1 UNK         0.0600 
    205 H205       -1.1293  -26.3850  -48.2586 H         1 UNK         0.3000 
    206 H206       -0.7540  -28.5812  -50.2664 H         1 UNK         0.0600 
    207 H207        1.1136  -26.9549  -50.0871 H         1 UNK         0.0600 
    208 H208        0.2931  -26.7843  -51.6302 H         1 UNK         0.0600 
    209 H209        0.0052  -25.6114  -50.3506 H         1 UNK         0.0600 
    210 H210       -2.8365  -25.9798  -49.2718 H         1 UNK         0.3000 
    211 H211       -4.7727  -25.1439  -49.9246 H         1 UNK         0.0600 
    212 H212       -5.0542  -27.3029  -52.0683 H         1 UNK         0.0600 
    213 H213       -6.3209  -26.2735  -51.4234 H         1 UNK         0.0600 
    214 H214       -5.5701  -27.4771  -50.3898 H         1 UNK         0.0600 
    215 H215       -2.0667  -24.6257  -51.2750 H         1 UNK         0.3000 
    216 H216       -2.5511  -23.5946  -53.8890 H         1 UNK         0.0600 
    217 H217       -0.3259  -22.4799  -53.5497 H         1 UNK         0.0600 
    218 H218       -0.2820  -24.1786  -53.1043 H         1 UNK         0.0600 
    219 H219       -0.3453  -22.9406  -51.8528 H         1 UNK         0.0600 
    220 H220       -2.2278  -21.9251  -50.7272 H         1 UNK         0.3000 
    221 H221       -3.0331  -19.3443  -51.7214 H         1 UNK         0.0600 
    222 H222       -2.7470  -20.4588  -48.8989 H         1 UNK         0.0600 
    223 H223       -1.5367  -19.5406  -49.7924 H         1 UNK         0.0600 
    224 H224       -3.0248  -18.7626  -49.2732 H         1 UNK         0.0600 
    225 H225       -4.8308  -22.1201  -50.5990 H         1 UNK         0.3000 
    226 H226       -7.3061  -20.7769  -49.9675 H         1 UNK         0.0600 
    227 H227       -6.7484  -23.0849  -49.1398 H         1 UNK         0.0600 
    228 H228       -8.2622  -23.0499  -50.0249 H         1 UNK         0.0600 
    229 H229       -6.8210  -23.6907  -50.7926 H         1 UNK         0.0600 
    230 H230       -5.7943  -21.9649  -52.9325 H         1 UNK         0.3000 
    231 H231       -8.1367  -21.3967  -54.6276 H         1 UNK         0.0600 
    232 H232       -6.7191  -23.4244  -55.0204 H         1 UNK         0.0600 
    233 H233       -5.3178  -22.3936  -55.3003 H         1 UNK         0.0600 
    234 H234       -6.6894  -22.3397  -56.4014 H         1 UNK         0.0600 
    235 H235       -6.0850  -19.4490  -53.1062 H         1 UNK         0.3000 
    236 H236       -5.4386  -17.3671  -53.2029 H         1 UNK         0.0600 
    237 H237       -5.9129  -15.7949  -55.0018 H         1 UNK         0.0600 
    238 H238       -6.3482  -17.0819  -56.1100 H         1 UNK         0.0600 
    239 H239       -7.3561  -16.7511  -54.6996 H         1 UNK         0.0600 
    240 H240       -3.3720  -16.6730  -53.2648 H         1 UNK         0.3000 
    241 H241       -1.5493  -17.3737  -55.4134 H         1 UNK         0.0600 
    242 H242       -0.0108  -15.7005  -55.6371 H         1 UNK         0.3800 
    243 H243        0.2058  -14.4587  -54.4375 H         1 UNK         0.3800 
    244 H244       -1.6858  -19.3541  -53.6736 H         1 UNK         0.0800 
    245 H245       -0.8016  -18.3296  -52.5946 H         1 UNK         0.0800 
    246 H246        1.7502  -17.1721  -53.8364 H         1 UNK         0.0800 
    247 H247        2.7843  -18.5474  -54.0947 H         1 UNK         0.0800 
@<TRIPOS>BOND
     1    1    2 1    
     2    1  127 1    
     3    1  128 1    
     4    1  129 1    
     5    2    3 2    
     6    2    4 am   BACKBONE|DICT|INTERRES
     7    4    5 1    
     8    4  130 1    
     9    5    6 1    
    10    5   65 1    
    11    5  131 1    
    12    6    7 1    
    13    6  132 1    
    14    6  133 1    
    15    7    8 1    
    16    8    9 1    
    17    8  134 1    
    18    8  135 1    
    19    9   10 ar   
    20    9   14 ar   
    21   10   11 ar   
    22   10  136 1    
    23   11   12 ar   
    24   11  126 1    
    25   12   13 ar   
    26   12  137 1    
    27   13   14 ar   
    28   13   15 1    
    29   14  138 1    
    30   15   16 1    
    31   15  139 1    
    32   15  140 1    
    33   16   17 1    
    34   17   18 1    
    35   17  141 1    
    36   17  142 1    
    37   18   19 1    
    38   18   67 1    
    39   18  143 1    
    40   19   20 am   BACKBONE|DICT|INTERRES
    41   19  144 1    
    42   20   21 2    
    43   20   22 1    
    44   22   23 1    
    45   22   24 1    
    46   22  145 1    
    47   23  146 1    
    48   23  147 1    
    49   23  148 1    
    50   24   25 am   BACKBONE|DICT|INTERRES
    51   24  149 1    
    52   25   26 2    
    53   25   27 1    
    54   27   28 1    
    55   27   29 1    
    56   27  150 1    
    57   28  151 1    
    58   28  152 1    
    59   28  153 1    
    60   29   30 am   BACKBONE|DICT|INTERRES
    61   29  154 1    
    62   30   31 2    
    63   30   32 1    
    64   32   33 1    
    65   32   34 1    
    66   32  155 1    
    67   33  156 1    
    68   33  157 1    
    69   33  158 1    
    70   34   35 am   BACKBONE|DICT|INTERRES
    71   34  159 1    
    72   35   36 2    
    73   35   37 1    
    74   37   38 1    
    75   37   39 1    
    76   37  160 1    
    77   38  161 1    
    78   38  162 1    
    79   38  163 1    
    80   39   40 am   BACKBONE|DICT|INTERRES
    81   39  164 1    
    82   40   41 2    
    83   40   42 1    
    84   42   43 1    
    85   42   44 1    
    86   42  165 1    
    87   43  166 1    
    88   43  167 1    
    89   43  168 1    
    90   44   45 am   BACKBONE|DICT|INTERRES
    91   44  169 1    
    92   45   46 2    
    93   45   47 1    
    94   47   48 1    
    95   47   49 1    
    96   47  170 1    
    97   48  171 1    
    98   48  172 1    
    99   48  173 1    
   100   49   50 am   BACKBONE|DICT|INTERRES
   101   49  174 1    
   102   50   51 2    
   103   50   52 1    
   104   52   53 1    
   105   52   54 1    
   106   52  175 1    
   107   53  176 1    
   108   53  177 1    
   109   53  178 1    
   110   54   55 am   BACKBONE|DICT|INTERRES
   111   54  179 1    
   112   55   56 2    
   113   55   57 1    
   114   57   58 1    
   115   57   59 1    
   116   57  180 1    
   117   58  181 1    
   118   58  182 1    
   119   58  183 1    
   120   59   60 am   BACKBONE|DICT|INTERRES
   121   59  184 1    
   122   60   61 2    
   123   60   62 1    
   124   62   63 1    
   125   62   64 1    
   126   62  185 1    
   127   63  186 1    
   128   63  187 1    
   129   63  188 1    
   130   64   65 am   BACKBONE|DICT|INTERRES
   131   64  189 1    
   132   65   66 2    
   133   67   68 2    
   134   67   69 am   BACKBONE|DICT|INTERRES
   135   69   70 1    
   136   69  190 1    
   137   70   71 1    
   138   70   72 1    
   139   70  191 1    
   140   71  192 1    
   141   71  193 1    
   142   71  194 1    
   143   72   73 2    
   144   72   74 am   BACKBONE|DICT|INTERRES
   145   74   75 1    
   146   74  195 1    
   147   75   76 1    
   148   75   77 1    
   149   75  196 1    
   150   76  197 1    
   151   76  198 1    
   152   76  199 1    
   153   77   78 2    
   154   77   79 am   BACKBONE|DICT|INTERRES
   155   79   80 1    
   156   79  200 1    
   157   80   81 1    
   158   80   82 1    
   159   80  201 1    
   160   81  202 1    
   161   81  203 1    
   162   81  204 1    
   163   82   83 2    
   164   82   84 am   BACKBONE|DICT|INTERRES
   165   84   85 1    
   166   84  205 1    
   167   85   86 1    
   168   85   87 1    
   169   85  206 1    
   170   86  207 1    
   171   86  208 1    
   172   86  209 1    
   173   87   88 2    
   174   87   89 am   BACKBONE|DICT|INTERRES
   175   89   90 1    
   176   89  210 1    
   177   90   91 1    
   178   90   92 1    
   179   90  211 1    
   180   91  212 1    
   181   91  213 1    
   182   91  214 1    
   183   92   93 2    
   184   92   94 am   BACKBONE|DICT|INTERRES
   185   94   95 1    
   186   94  215 1    
   187   95   96 1    
   188   95   97 1    
   189   95  216 1    
   190   96  217 1    
   191   96  218 1    
   192   96  219 1    
   193   97   98 2    
   194   97   99 am   BACKBONE|DICT|INTERRES
   195   99  100 1    
   196   99  220 1    
   197  100  101 1    
   198  100  102 1    
   199  100  221 1    
   200  101  222 1    
   201  101  223 1    
   202  101  224 1    
   203  102  103 2    
   204  102  104 am   BACKBONE|DICT|INTERRES
   205  104  105 1    
   206  104  225 1    
   207  105  106 1    
   208  105  107 1    
   209  105  226 1    
   210  106  227 1    
   211  106  228 1    
   212  106  229 1    
   213  107  108 2    
   214  107  109 am   BACKBONE|DICT|INTERRES
   215  109  110 1    
   216  109  230 1    
   217  110  111 1    
   218  110  112 1    
   219  110  231 1    
   220  111  232 1    
   221  111  233 1    
   222  111  234 1    
   223  112  113 2    
   224  112  114 am   BACKBONE|DICT|INTERRES
   225  114  115 1    
   226  114  235 1    
   227  115  116 1    
   228  115  117 1    
   229  115  236 1    
   230  116  237 1    
   231  116  238 1    
   232  116  239 1    
   233  117  118 2    
   234  117  119 am   BACKBONE|DICT|INTERRES
   235  119  120 1    
   236  119  240 1    
   237  120  121 1    
   238  120  124 1    
   239  120  241 1    
   240  121  122 am   BACKBONE|DICT|INTERRES
   241  121  123 2    
   242  122  242 1    
   243  122  243 1    
   244  124  125 1    
   245  124  244 1    
   246  124  245 1    
   247  125  126 1    
   248  126  246 1    
   249  126  247 1    
@<TRIPOS>SUBSTRUCTURE
     1 UNK         1 GROUP             0       ****    0 ROOT    
