@<TRIPOS>MOLECULE
3R540
247   249    1
SMALL
USER_CHARGES


@<TRIPOS>ATOM
      1 CA          1.1604  -12.9311  -41.7498 C.3       0 UNK        -0.1800 
      2 C           0.2078  -12.5751  -42.8814 C.2       0 UNK         0.5000 
      3 O          -0.7069  -11.7744  -42.6865 O.2       0 UNK        -0.5000 
      4 N           0.4408  -13.1317  -44.0758 N.am      1 UNK        -0.5000 
      5 CA         -0.2581  -12.8037  -45.3234 C.3       1 UNK         0.1400 
      6 C6         -0.1285  -13.9299  -46.3831 C.3       23 UNK        -0.0398 
      7 S7         -0.8641  -15.5187  -45.8755 S.3       23 UNK        -0.2404 
      8 C8         -2.6356  -15.1287  -46.0095 C.3       23 UNK        -0.0205 
      9 C9         -3.4316  -16.2685  -46.6255 C.ar      23 UNK        -0.0193 
     10 C10        -3.5539  -16.3634  -48.0150 C.ar      23 UNK        -0.1150 
     11 C11        -4.3553  -17.3527  -48.5918 C.ar      23 UNK        -0.0193 
     12 C12        -5.0292  -18.2581  -47.7672 C.ar      23 UNK        -0.1150 
     13 C13        -4.9076  -18.1803  -46.3767 C.ar      23 UNK        -0.0193 
     14 C14        -4.0993  -17.1883  -45.8114 C.ar      23 UNK        -0.1150 
     15 C15        -5.6983  -19.1289  -45.4856 C.3       23 UNK        -0.0205 
     16 S16        -5.1883  -20.8663  -45.6706 S.3       23 UNK        -0.2404 
     17 C17        -3.4867  -20.8276  -45.0177 C.3       23 UNK        -0.0398 
     18 CA         -2.4436  -21.2573  -46.0769 C.3       11 UNK         0.1400 
     19 N          -1.1192  -20.7058  -45.7849 N.am      11 UNK        -0.5000 
     20 C          -0.0375  -20.8294  -46.5657 C.2       10 UNK         0.5000 
     21 O          -0.0429  -21.3781  -47.6652 O.2       10 UNK        -0.5000 
     22 CA          1.2901  -20.3162  -45.9866 C.3       10 UNK         0.1400 
     23 CB          1.4237  -18.8003  -46.1662 C.3       10 UNK        -0.1800 
     24 N           1.4304  -20.6632  -44.5732 N.am      10 UNK        -0.5000 
     25 C           1.6036  -21.9134  -44.1214 C.2       9 UNK         0.5000 
     26 O           1.7442  -22.8921  -44.8547 O.2       9 UNK        -0.5000 
     27 CA          1.5488  -22.1089  -42.5969 C.3       9 UNK         0.1400 
     28 CB          2.9314  -21.8979  -41.9634 C.3       9 UNK        -0.1800 
     29 N           0.5683  -21.2184  -41.9722 N.am      9 UNK        -0.5000 
     30 C          -0.7576  -21.3838  -42.0888 C.2       8 UNK         0.5000 
     31 O          -1.2721  -22.3197  -42.6998 O.2       8 UNK        -0.5000 
     32 CA         -1.6684  -20.3137  -41.4601 C.3       8 UNK         0.1400 
     33 CB         -2.0119  -20.6851  -40.0103 C.3       8 UNK        -0.1800 
     34 N          -1.1023  -18.9656  -41.4902 N.am      8 UNK        -0.5000 
     35 C          -0.8070  -18.2724  -42.5985 C.2       7 UNK         0.5000 
     36 O          -0.9793  -18.7136  -43.7335 O.2       7 UNK        -0.5000 
     37 CA         -0.2034  -16.8625  -42.4103 C.3       7 UNK         0.1400 
     38 CB         -0.3435  -16.3344  -40.9646 C.3       7 UNK        -0.1800 
     39 N           1.2000  -16.7594  -42.8380 N.am      7 UNK        -0.5000 
     40 C           2.2186  -17.5495  -42.4736 C.2       6 UNK         0.5000 
     41 O           2.0681  -18.5989  -41.8449 O.2       6 UNK        -0.5000 
     42 CA          3.6452  -17.0717  -42.8343 C.3       6 UNK         0.1400 
     43 CB          4.7221  -18.1025  -42.4471 C.3       6 UNK        -0.1800 
     44 N           3.8539  -16.7072  -44.2388 N.am      6 UNK        -0.5000 
     45 C           3.4679  -15.5727  -44.8325 C.2       5 UNK         0.5000 
     46 O           2.7074  -14.7497  -44.3154 O.2       5 UNK        -0.5000 
     47 CA          4.0450  -15.3093  -46.2320 C.3       5 UNK         0.1400 
     48 CB          3.2754  -16.0694  -47.3266 C.3       5 UNK        -0.1800 
     49 N           4.0144  -13.8742  -46.5000 N.am      5 UNK        -0.5000 
     50 C           4.8244  -13.2311  -47.3508 C.2       4 UNK         0.5000 
     51 O           5.6806  -13.7963  -48.0328 O.2       4 UNK        -0.5000 
     52 CA          4.6651  -11.7042  -47.4679 C.3       4 UNK         0.1400 
     53 CB          3.8391  -11.3450  -48.7131 C.3       4 UNK        -0.1800 
     54 N           4.0417  -11.1065  -46.2851 N.am      4 UNK        -0.5000 
     55 C           4.7136  -10.7383  -45.1835 C.2       3 UNK         0.5000 
     56 O           5.9294  -10.8945  -45.0597 O.2       3 UNK        -0.5000 
     57 CA          3.9178  -10.1164  -44.0113 C.3       3 UNK         0.1400 
     58 CB          4.6258   -8.8823  -43.4150 C.3       3 UNK        -0.1800 
     59 N           2.5115   -9.8237  -44.3124 N.am      3 UNK        -0.5000 
     60 C           2.0062   -8.9301  -45.1782 C.2       2 UNK         0.5000 
     61 O           2.6866   -8.1209  -45.8098 O.2       2 UNK        -0.5000 
     62 CA          0.4753   -9.0023  -45.3965 C.3       2 UNK         0.1400 
     63 CB          0.0412   -8.4368  -46.7647 C.3       2 UNK        -0.1800 
     64 N          -0.0645  -10.3580  -45.2013 N.am      2 UNK        -0.5000 
     65 C           0.2994  -11.4696  -45.8594 C.2       1 UNK         0.5000 
     66 O           1.1228  -11.4754  -46.7746 O.2       1 UNK        -0.5000 
     67 C          -2.4035  -22.7931  -46.2386 C.2       11 UNK         0.5000 
     68 O          -2.9662  -23.3193  -47.1992 O.2       11 UNK        -0.5000 
     69 N          -1.7039  -23.4791  -45.3222 N.am      12 UNK        -0.5000 
     70 CA         -1.4754  -24.9235  -45.3574 C.3       12 UNK         0.1400 
     71 CB         -0.8155  -25.3783  -44.0474 C.3       12 UNK        -0.1800 
     72 C          -0.6442  -25.3637  -46.5754 C.2       12 UNK         0.5000 
     73 O          -1.0214  -26.3267  -47.2433 O.2       12 UNK        -0.5000 
     74 N           0.4364  -24.6283  -46.8779 N.am      13 UNK        -0.5000 
     75 CA          1.2812  -24.8393  -48.0588 C.3       13 UNK         0.1400 
     76 CB          2.5164  -23.9303  -47.9770 C.3       13 UNK        -0.1800 
     77 C           0.5273  -24.6202  -49.3861 C.2       13 UNK         0.5000 
     78 O           0.7649  -25.3468  -50.3509 O.2       13 UNK        -0.5000 
     79 N          -0.4020  -23.6564  -49.3908 N.am      14 UNK        -0.5000 
     80 CA         -1.3289  -23.3663  -50.4839 C.3       14 UNK         0.1400 
     81 CB         -1.8171  -21.9169  -50.3416 C.3       14 UNK        -0.1800 
     82 C          -2.5286  -24.3349  -50.5583 C.2       14 UNK         0.5000 
     83 O          -3.3888  -24.1466  -51.4200 O.2       14 UNK        -0.5000 
     84 N          -2.5932  -25.3279  -49.6577 N.am      15 UNK        -0.5000 
     85 CA         -3.6369  -26.3499  -49.5373 C.3       15 UNK         0.1400 
     86 CB         -3.6014  -27.3003  -50.7531 C.3       15 UNK        -0.1800 
     87 C          -5.0319  -25.7436  -49.2823 C.2       15 UNK         0.5000 
     88 O          -6.0078  -26.1524  -49.9110 O.2       15 UNK        -0.5000 
     89 N          -5.0895  -24.7433  -48.3907 N.am      16 UNK        -0.5000 
     90 CA         -6.2593  -23.9181  -48.0699 C.3       16 UNK         0.1400 
     91 CB         -7.3714  -24.7534  -47.4016 C.3       16 UNK        -0.1800 
     92 C          -6.7436  -23.1090  -49.2915 C.2       16 UNK         0.5000 
     93 O          -7.9452  -23.0223  -49.5476 O.2       16 UNK        -0.5000 
     94 N          -5.7698  -22.5579  -50.0314 N.am      17 UNK        -0.5000 
     95 CA         -5.8905  -21.7812  -51.2704 C.3       17 UNK         0.1400 
     96 CB         -6.8000  -20.5496  -51.0807 C.3       17 UNK        -0.1800 
     97 C          -6.2855  -22.6057  -52.5136 C.2       17 UNK         0.5000 
     98 O          -6.5026  -22.0162  -53.5728 O.2       17 UNK        -0.5000 
     99 N          -6.3492  -23.9400  -52.4021 N.am      18 UNK        -0.5000 
    100 CA        -6.6801  -24.8346  -53.5127 C.3       18 UNK         0.1400 
    101 CB        -7.0504  -26.2212  -52.9681 C.3       18 UNK        -0.1800 
    102 C         -5.5540  -24.9528  -54.5565 C.2       18 UNK         0.5000 
    103 O         -5.8479  -25.2036  -55.7264 O.2       18 UNK        -0.5000 
    104 N         -4.2938  -24.7755  -54.1343 N.am      19 UNK        -0.5000 
    105 CA        -3.1214  -24.8387  -55.0032 C.3       19 UNK         0.1400 
    106 CB        -1.8620  -25.0744  -54.1538 C.3       19 UNK        -0.1800 
    107 C         -3.0044  -23.5571  -55.8457 C.2       19 UNK         0.5000 
    108 O         -2.5244  -22.5380  -55.3450 O.2       19 UNK        -0.5000 
    109 N         -3.4688  -23.6305  -57.1009 N.am      20 UNK        -0.5000 
    110 CA        -3.3755  -22.5996  -58.1440 C.3       20 UNK         0.1400 
    111 CB        -1.9106  -22.4524  -58.6074 C.3       20 UNK        -0.1800 
    112 C         -4.0141  -21.2463  -57.7580 C.2       20 UNK         0.5000 
    113 O         -3.5105  -20.1959  -58.1594 O.2       20 UNK        -0.5000 
    114 N         -5.1081  -21.3029  -56.9820 N.am      21 UNK        -0.5000 
    115 CA        -5.8334  -20.1663  -56.4005 C.3       21 UNK         0.1400 
    116 CB        -6.5079  -19.3160  -57.4984 C.3       21 UNK        -0.1800 
    117 C         -4.9462  -19.3404  -55.4428 C.2       21 UNK         0.5000 
    118 O         -4.8826  -18.1140  -55.5492 O.2       21 UNK        -0.5000 
    119 N         -4.2771  -20.0469  -54.5232 N.am      22 UNK        -0.5000 
    120 CA        -3.3183  -19.5157  -53.5433 C.3       22 UNK         0.1400 
    121 C         -1.9518  -19.1246  -54.1801 C.2       22 UNK         0.5000 
    122 N         -1.4023  -19.9587  -55.0531 N.am      22 UNK        -0.7600 
    123 O         -1.3788  -18.0768  -53.8927 O.2       22 UNK        -0.5000 
    124 C124       -3.9348  -18.4270  -52.6148 C.3       23 UNK        -0.0398 
    125 S125       -3.3794  -18.5691  -50.8835 S.3       23 UNK        -0.2404 
    126 C126       -4.5380  -17.4086  -50.1001 C.3       23 UNK        -0.0205 
    127 H127        1.6855  -13.8666  -41.9424 H         1 UNK         0.0600 
    128 H128        0.6149  -13.0309  -40.8116 H         1 UNK         0.0600 
    129 H129        1.9027  -12.1429  -41.6260 H         1 UNK         0.0600 
    130 H130        1.2402  -13.7542  -44.1780 H         1 UNK         0.3000 
    131 H131       -1.3191  -12.6578  -45.1112 H         1 UNK         0.0600 
    132 H132        0.9219  -14.1118  -46.6114 H         1 UNK         0.0800 
    133 H133       -0.5878  -13.6280  -47.3262 H         1 UNK         0.0800 
    134 H134       -2.7841  -14.2302  -46.6100 H         1 UNK         0.0800 
    135 H135       -3.0187  -14.8911  -45.0160 H         1 UNK         0.0800 
    136 H136       -3.0440  -15.6498  -48.6470 H         1 UNK         0.1150 
    137 H137       -5.6618  -19.0169  -48.2049 H         1 UNK         0.1150 
    138 H138       -4.0118  -17.1115  -44.7367 H         1 UNK         0.1150 
    139 H139       -5.6140  -18.8416  -44.4363 H         1 UNK         0.0800 
    140 H140       -6.7563  -19.0473  -45.7382 H         1 UNK         0.0800 
    141 H141       -3.4369  -21.4537  -44.1256 H         1 UNK         0.0800 
    142 H142       -3.2721  -19.8151  -44.6749 H         1 UNK         0.0800 
    143 H143       -2.7378  -20.8331  -47.0396 H         1 UNK         0.0600 
    144 H144       -1.0300  -20.1619  -44.9305 H         1 UNK         0.3000 
    145 H145        2.1045  -20.7933  -46.5357 H         1 UNK         0.0600 
    146 H146        2.3673  -18.4504  -45.7543 H         1 UNK         0.0600 
    147 H147        1.4006  -18.5320  -47.2229 H         1 UNK         0.0600 
    148 H148        0.6216  -18.2513  -45.6752 H         1 UNK         0.0600 
    149 H149        1.2722  -19.9258  -43.9007 H         1 UNK         0.3000 
    150 H150        1.2476  -23.1407  -42.4036 H         1 UNK         0.0600 
    151 H151        3.6570  -22.6011  -42.3738 H         1 UNK         0.0600 
    152 H152        2.8997  -22.0548  -40.8852 H         1 UNK         0.0600 
    153 H153        3.3130  -20.8940  -42.1449 H         1 UNK         0.0600 
    154 H154        0.9289  -20.3825  -41.5253 H         1 UNK         0.3000 
    155 H155       -2.5966  -20.2941  -42.0342 H         1 UNK         0.0600 
    156 H156       -1.1252  -20.6906  -39.3753 H         1 UNK         0.0600 
    157 H157       -2.4601  -21.6783  -39.9575 H         1 UNK         0.0600 
    158 H158       -2.7285  -19.9839  -39.5821 H         1 UNK         0.0600 
    159 H159       -0.9028  -18.5413  -40.5963 H         1 UNK         0.3000 
    160 H160       -0.7792  -16.1985  -43.0545 H         1 UNK         0.0600 
    161 H161        0.2587  -16.9049  -40.2565 H         1 UNK         0.0600 
    162 H162       -1.3809  -16.3657  -40.6287 H         1 UNK         0.0600 
    163 H163       -0.0264  -15.2969  -40.8959 H         1 UNK         0.0600 
    164 H164        1.4334  -15.9547  -43.4086 H         1 UNK         0.3000 
    165 H165        3.8224  -16.1796  -42.2300 H         1 UNK         0.0600 
    166 H166        4.6528  -18.3728  -41.3925 H         1 UNK         0.0600 
    167 H167        4.6274  -19.0190  -43.0304 H         1 UNK         0.0600 
    168 H168        5.7243  -17.7051  -42.6085 H         1 UNK         0.0600 
    169 H169        4.4447  -17.3376  -44.7610 H         1 UNK         0.3000 
    170 H170        5.0865  -15.6382  -46.2333 H         1 UNK         0.0600 
    171 H171        3.5055  -17.1332  -47.2874 H         1 UNK         0.0600 
    172 H172        2.1962  -15.9576  -47.2232 H         1 UNK         0.0600 
    173 H173        3.5508  -15.7285  -48.3245 H         1 UNK         0.0600 
    174 H174        3.3658  -13.3459  -45.9325 H         1 UNK         0.3000 
    175 H175        5.6616  -11.2770  -47.5992 H         1 UNK         0.0600 
    176 H176        2.8561  -11.8160  -48.6980 H         1 UNK         0.0600 
    177 H177        3.6949  -10.2676  -48.7959 H         1 UNK         0.0600 
    178 H178        4.3432  -11.6770  -49.6214 H         1 UNK         0.0600 
    179 H179        3.0369  -10.9742  -46.3298 H         1 UNK         0.3000 
    180 H180        3.8965  -10.8831  -43.2355 H         1 UNK         0.0600 
    181 H181        4.7662   -8.0956  -44.1566 H         1 UNK         0.0600 
    182 H182        5.6122   -9.1443  -43.0307 H         1 UNK         0.0600 
    183 H183        4.0575   -8.4640  -42.5842 H         1 UNK         0.0600 
    184 H184        1.8450  -10.4299  -43.8576 H         1 UNK         0.3000 
    185 H185        0.0283   -8.3776  -44.6220 H         1 UNK         0.0600 
    186 H186        0.5101   -8.9706  -47.5919 H         1 UNK         0.0600 
    187 H187       -1.0392   -8.5017  -46.8931 H         1 UNK         0.0600 
    188 H188        0.3148   -7.3852  -46.8584 H         1 UNK         0.0600 
    189 H189       -0.6815  -10.4746  -44.4045 H         1 UNK         0.3000 
    190 H190       -1.3231  -22.9817  -44.5226 H         1 UNK         0.3000 
    191 H191       -2.4505  -25.4097  -45.4296 H         1 UNK         0.0600 
    192 H192        0.1564  -24.9078  -43.8992 H         1 UNK         0.0600 
    193 H193       -0.6618  -26.4581  -44.0422 H         1 UNK         0.0600 
    194 H194       -1.4391  -25.1345  -43.1871 H         1 UNK         0.0600 
    195 H195        0.7090  -23.8752  -46.2536 H         1 UNK         0.3000 
    196 H196        1.6219  -25.8765  -48.0409 H         1 UNK         0.0600 
    197 H197        3.1788  -24.0939  -48.8278 H         1 UNK         0.0600 
    198 H198        3.0926  -24.1283  -47.0730 H         1 UNK         0.0600 
    199 H199        2.2407  -22.8757  -47.9736 H         1 UNK         0.0600 
    200 H200       -0.4732  -23.0530  -48.5763 H         1 UNK         0.3000 
    201 H201       -0.7870  -23.4487  -51.4273 H         1 UNK         0.0600 
    202 H202       -0.9838  -21.2143  -50.3572 H         1 UNK         0.0600 
    203 H203       -2.3660  -21.7634  -49.4123 H         1 UNK         0.0600 
    204 H204       -2.4802  -21.6470  -51.1609 H         1 UNK         0.0600 
    205 H205       -1.8595  -25.3848  -48.9618 H         1 UNK         0.3000 
    206 H206       -3.3939  -26.9375  -48.6511 H         1 UNK         0.0600 
    207 H207       -4.3047  -28.1242  -50.6272 H         1 UNK         0.0600 
    208 H208       -2.6108  -27.7367  -50.8808 H         1 UNK         0.0600 
    209 H209       -3.8611  -26.7873  -51.6793 H         1 UNK         0.0600 
    210 H210       -4.2202  -24.4306  -47.9608 H         1 UNK         0.3000 
    211 H211       -5.9191  -23.1865  -47.3375 H         1 UNK         0.0600 
    212 H212       -6.9871  -25.3054  -46.5439 H         1 UNK         0.0600 
    213 H213       -7.8153  -25.4708  -48.0921 H         1 UNK         0.0600 
    214 H214       -8.1746  -24.1106  -47.0399 H         1 UNK         0.0600 
    215 H215       -4.8200  -22.7525  -49.7477 H         1 UNK         0.3000 
    216 H216       -4.8869  -21.4099  -51.4770 H         1 UNK         0.0600 
    217 H217       -6.7649  -19.8971  -51.9528 H         1 UNK         0.0600 
    218 H218       -6.4893  -19.9601  -50.2198 H         1 UNK         0.0600 
    219 H219       -7.8435  -20.8294  -50.9381 H         1 UNK         0.0600 
    220 H220       -6.1306  -24.3716  -51.5137 H         1 UNK         0.3000 
    221 H221       -7.5586  -24.4308  -54.0205 H         1 UNK         0.0600 
    222 H222       -6.1944  -26.7137  -52.5067 H         1 UNK         0.0600 
    223 H223       -7.8437  -26.1565  -52.2231 H         1 UNK         0.0600 
    224 H224       -7.4066  -26.8708  -53.7685 H         1 UNK         0.0600 
    225 H225       -4.1228  -24.5390  -53.1599 H         1 UNK         0.3000 
    226 H226       -3.2271  -25.6951  -55.6728 H         1 UNK         0.0600 
    227 H227       -1.9639  -25.9620  -53.5290 H         1 UNK         0.0600 
    228 H228       -0.9880  -25.2196  -54.7895 H         1 UNK         0.0600 
    229 H229       -1.6507  -24.2276  -53.5020 H         1 UNK         0.0600 
    230 H230       -3.9179  -24.4914  -57.3841 H         1 UNK         0.3000 
    231 H231       -3.9525  -22.9706  -58.9922 H         1 UNK         0.0600 
    232 H232       -1.4896  -23.4153  -58.8967 H         1 UNK         0.0600 
    233 H233       -1.2800  -22.0328  -57.8228 H         1 UNK         0.0600 
    234 H234       -1.8358  -21.7953  -59.4746 H         1 UNK         0.0600 
    235 H235       -5.4316  -22.2177  -56.6996 H         1 UNK         0.3000 
    236 H236       -6.6317  -20.5897  -55.7904 H         1 UNK         0.0600 
    237 H237       -7.1476  -18.5507  -57.0575 H         1 UNK         0.0600 
    238 H238       -5.7786  -18.8059  -58.1281 H         1 UNK         0.0600 
    239 H239       -7.1359  -19.9310  -58.1429 H         1 UNK         0.0600 
    240 H240       -4.3674  -21.0532  -54.5453 H         1 UNK         0.3000 
    241 H241       -3.0870  -20.3797  -52.9233 H         1 UNK         0.0600 
    242 H242       -0.5216  -19.7231  -55.4805 H         1 UNK         0.3800 
    243 H243       -1.8400  -20.8564  -55.2553 H         1 UNK         0.3800 
    244 H244       -3.7338  -17.4202  -52.9848 H         1 UNK         0.0800 
    245 H245       -5.0206  -18.5167  -52.6074 H         1 UNK         0.0800 
    246 H246       -5.5630  -17.6992  -50.3337 H         1 UNK         0.0800 
    247 H247       -4.3972  -16.4163  -50.5316 H         1 UNK         0.0800 
@<TRIPOS>BOND
     1    1    2 1    
     2    1  127 1    
     3    1  128 1    
     4    1  129 1    
     5    2    3 2    
     6    2    4 am   BACKBONE|DICT|INTERRES
     7    4    5 1    
     8    4  130 1    
     9    5    6 1    
    10    5   65 1    
    11    5  131 1    
    12    6    7 1    
    13    6  132 1    
    14    6  133 1    
    15    7    8 1    
    16    8    9 1    
    17    8  134 1    
    18    8  135 1    
    19    9   10 ar   
    20    9   14 ar   
    21   10   11 ar   
    22   10  136 1    
    23   11   12 ar   
    24   11  126 1    
    25   12   13 ar   
    26   12  137 1    
    27   13   14 ar   
    28   13   15 1    
    29   14  138 1    
    30   15   16 1    
    31   15  139 1    
    32   15  140 1    
    33   16   17 1    
    34   17   18 1    
    35   17  141 1    
    36   17  142 1    
    37   18   19 1    
    38   18   67 1    
    39   18  143 1    
    40   19   20 am   BACKBONE|DICT|INTERRES
    41   19  144 1    
    42   20   21 2    
    43   20   22 1    
    44   22   23 1    
    45   22   24 1    
    46   22  145 1    
    47   23  146 1    
    48   23  147 1    
    49   23  148 1    
    50   24   25 am   BACKBONE|DICT|INTERRES
    51   24  149 1    
    52   25   26 2    
    53   25   27 1    
    54   27   28 1    
    55   27   29 1    
    56   27  150 1    
    57   28  151 1    
    58   28  152 1    
    59   28  153 1    
    60   29   30 am   BACKBONE|DICT|INTERRES
    61   29  154 1    
    62   30   31 2    
    63   30   32 1    
    64   32   33 1    
    65   32   34 1    
    66   32  155 1    
    67   33  156 1    
    68   33  157 1    
    69   33  158 1    
    70   34   35 am   BACKBONE|DICT|INTERRES
    71   34  159 1    
    72   35   36 2    
    73   35   37 1    
    74   37   38 1    
    75   37   39 1    
    76   37  160 1    
    77   38  161 1    
    78   38  162 1    
    79   38  163 1    
    80   39   40 am   BACKBONE|DICT|INTERRES
    81   39  164 1    
    82   40   41 2    
    83   40   42 1    
    84   42   43 1    
    85   42   44 1    
    86   42  165 1    
    87   43  166 1    
    88   43  167 1    
    89   43  168 1    
    90   44   45 am   BACKBONE|DICT|INTERRES
    91   44  169 1    
    92   45   46 2    
    93   45   47 1    
    94   47   48 1    
    95   47   49 1    
    96   47  170 1    
    97   48  171 1    
    98   48  172 1    
    99   48  173 1    
   100   49   50 am   BACKBONE|DICT|INTERRES
   101   49  174 1    
   102   50   51 2    
   103   50   52 1    
   104   52   53 1    
   105   52   54 1    
   106   52  175 1    
   107   53  176 1    
   108   53  177 1    
   109   53  178 1    
   110   54   55 am   BACKBONE|DICT|INTERRES
   111   54  179 1    
   112   55   56 2    
   113   55   57 1    
   114   57   58 1    
   115   57   59 1    
   116   57  180 1    
   117   58  181 1    
   118   58  182 1    
   119   58  183 1    
   120   59   60 am   BACKBONE|DICT|INTERRES
   121   59  184 1    
   122   60   61 2    
   123   60   62 1    
   124   62   63 1    
   125   62   64 1    
   126   62  185 1    
   127   63  186 1    
   128   63  187 1    
   129   63  188 1    
   130   64   65 am   BACKBONE|DICT|INTERRES
   131   64  189 1    
   132   65   66 2    
   133   67   68 2    
   134   67   69 am   BACKBONE|DICT|INTERRES
   135   69   70 1    
   136   69  190 1    
   137   70   71 1    
   138   70   72 1    
   139   70  191 1    
   140   71  192 1    
   141   71  193 1    
   142   71  194 1    
   143   72   73 2    
   144   72   74 am   BACKBONE|DICT|INTERRES
   145   74   75 1    
   146   74  195 1    
   147   75   76 1    
   148   75   77 1    
   149   75  196 1    
   150   76  197 1    
   151   76  198 1    
   152   76  199 1    
   153   77   78 2    
   154   77   79 am   BACKBONE|DICT|INTERRES
   155   79   80 1    
   156   79  200 1    
   157   80   81 1    
   158   80   82 1    
   159   80  201 1    
   160   81  202 1    
   161   81  203 1    
   162   81  204 1    
   163   82   83 2    
   164   82   84 am   BACKBONE|DICT|INTERRES
   165   84   85 1    
   166   84  205 1    
   167   85   86 1    
   168   85   87 1    
   169   85  206 1    
   170   86  207 1    
   171   86  208 1    
   172   86  209 1    
   173   87   88 2    
   174   87   89 am   BACKBONE|DICT|INTERRES
   175   89   90 1    
   176   89  210 1    
   177   90   91 1    
   178   90   92 1    
   179   90  211 1    
   180   91  212 1    
   181   91  213 1    
   182   91  214 1    
   183   92   93 2    
   184   92   94 am   BACKBONE|DICT|INTERRES
   185   94   95 1    
   186   94  215 1    
   187   95   96 1    
   188   95   97 1    
   189   95  216 1    
   190   96  217 1    
   191   96  218 1    
   192   96  219 1    
   193   97   98 2    
   194   97   99 am   BACKBONE|DICT|INTERRES
   195   99  100 1    
   196   99  220 1    
   197  100  101 1    
   198  100  102 1    
   199  100  221 1    
   200  101  222 1    
   201  101  223 1    
   202  101  224 1    
   203  102  103 2    
   204  102  104 am   BACKBONE|DICT|INTERRES
   205  104  105 1    
   206  104  225 1    
   207  105  106 1    
   208  105  107 1    
   209  105  226 1    
   210  106  227 1    
   211  106  228 1    
   212  106  229 1    
   213  107  108 2    
   214  107  109 am   BACKBONE|DICT|INTERRES
   215  109  110 1    
   216  109  230 1    
   217  110  111 1    
   218  110  112 1    
   219  110  231 1    
   220  111  232 1    
   221  111  233 1    
   222  111  234 1    
   223  112  113 2    
   224  112  114 am   BACKBONE|DICT|INTERRES
   225  114  115 1    
   226  114  235 1    
   227  115  116 1    
   228  115  117 1    
   229  115  236 1    
   230  116  237 1    
   231  116  238 1    
   232  116  239 1    
   233  117  118 2    
   234  117  119 am   BACKBONE|DICT|INTERRES
   235  119  120 1    
   236  119  240 1    
   237  120  121 1    
   238  120  124 1    
   239  120  241 1    
   240  121  122 am   BACKBONE|DICT|INTERRES
   241  121  123 2    
   242  122  242 1    
   243  122  243 1    
   244  124  125 1    
   245  124  244 1    
   246  124  245 1    
   247  125  126 1    
   248  126  246 1    
   249  126  247 1    
@<TRIPOS>SUBSTRUCTURE
     1 UNK         1 GROUP             0       ****    0 ROOT    
