@<TRIPOS>MOLECULE
3R540
247   249    1
SMALL
USER_CHARGES


@<TRIPOS>ATOM
      1 CA          0.7284   -8.5948  -49.6939 C.3       0 UNK        -0.1800 
      2 C           0.0810   -9.9459  -49.9619 C.2       0 UNK         0.5000 
      3 O          -1.1005  -10.1218  -49.6696 O.2       0 UNK        -0.5000 
      4 N           0.8595  -10.8980  -50.4938 N.am      1 UNK        -0.5000 
      5 CA          0.5079  -12.2719  -50.8923 C.3       1 UNK         0.1400 
      6 C6         -0.5437  -12.3481  -52.0478 C.3       23 UNK        -0.0398 
      7 S7         -2.3042  -12.6022  -51.5862 S.3       23 UNK        -0.2404 
      8 C8         -2.7080  -14.2159  -52.3354 C.3       23 UNK        -0.0205 
      9 C9         -1.9001  -15.3713  -51.7577 C.ar      23 UNK        -0.0193 
     10 C10        -0.8156  -15.8873  -52.4722 C.ar      23 UNK        -0.1150 
     11 C11        -0.0865  -16.9821  -51.9886 C.ar      23 UNK        -0.0193 
     12 C12        -0.4538  -17.5436  -50.7610 C.ar      23 UNK        -0.1150 
     13 C13        -1.5255  -17.0293  -50.0246 C.ar      23 UNK        -0.0193 
     14 C14        -2.2514  -15.9472  -50.5327 C.ar      23 UNK        -0.1150 
     15 C15        -1.8799  -17.6308  -48.6726 C.3       23 UNK        -0.0205 
     16 S16        -3.1488  -18.9181  -48.8175 S.3       23 UNK        -0.2404 
     17 C17        -3.2643  -19.5018  -47.0936 C.3       23 UNK        -0.0398 
     18 CA         -2.6365  -20.9078  -46.9158 C.3       11 UNK         0.1400 
     19 N          -1.1785  -20.8679  -46.7462 N.am      11 UNK        -0.5000 
     20 C          -0.3859  -21.9437  -46.8685 C.2       10 UNK         0.5000 
     21 O          -0.7993  -23.0685  -47.1467 O.2       10 UNK        -0.5000 
     22 CA          1.1038  -21.7411  -46.5546 C.3       10 UNK         0.1400 
     23 CB          1.7842  -20.9064  -47.6492 C.3       10 UNK        -0.1800 
     24 N           1.2943  -21.1142  -45.2454 N.am      10 UNK        -0.5000 
     25 C           1.0169  -21.7133  -44.0792 C.2       9 UNK         0.5000 
     26 O           0.5695  -22.8575  -44.0031 O.2       9 UNK        -0.5000 
     27 CA          1.1974  -20.8929  -42.7865 C.3       9 UNK         0.1400 
     28 CB          1.6086  -21.7593  -41.5776 C.3       9 UNK        -0.1800 
     29 N           2.0644  -19.7177  -42.9137 N.am      9 UNK        -0.5000 
     30 C           3.3886  -19.6915  -43.1265 C.2       8 UNK         0.5000 
     31 O           4.0725  -20.6978  -43.3127 O.2       8 UNK        -0.5000 
     32 CA          4.0758  -18.3145  -43.1173 C.3       8 UNK         0.1400 
     33 CB          4.3088  -17.8131  -44.5529 C.3       8 UNK        -0.1800 
     34 N           3.3317  -17.3187  -42.3396 N.am      8 UNK        -0.5000 
     35 C           3.8287  -16.1548  -41.9023 C.2       7 UNK         0.5000 
     36 O           4.9754  -15.7658  -42.1276 O.2       7 UNK        -0.5000 
     37 CA          2.8907  -15.2897  -41.0413 C.3       7 UNK         0.1400 
     38 CB          1.9092  -14.4990  -41.9219 C.3       7 UNK        -0.1800 
     39 N           2.1464  -16.0883  -40.0664 N.am      7 UNK        -0.5000 
     40 C           2.6796  -16.6548  -38.9751 C.2       6 UNK         0.5000 
     41 O           3.8591  -16.5123  -38.6504 O.2       6 UNK        -0.5000 
     42 CA          1.7743  -17.5512  -38.1019 C.3       6 UNK         0.1400 
     43 CB          1.2098  -16.7725  -36.8976 C.3       6 UNK        -0.1800 
     44 N           0.7175  -18.2631  -38.8363 N.am      6 UNK        -0.5000 
     45 C          -0.3746  -17.7611  -39.4263 C.2       5 UNK         0.5000 
     46 O          -0.6976  -16.5719  -39.3933 O.2       5 UNK        -0.5000 
     47 CA         -1.2247  -18.7596  -40.2351 C.3       5 UNK         0.1400 
     48 CB         -2.4625  -19.1794  -39.4276 C.3       5 UNK        -0.1800 
     49 N          -1.6547  -18.2192  -41.5289 N.am      5 UNK        -0.5000 
     50 C          -0.8556  -17.6742  -42.4574 C.2       4 UNK         0.5000 
     51 O           0.3743  -17.6169  -42.3526 O.2       4 UNK        -0.5000 
     52 CA         -1.5551  -17.1123  -43.7087 C.3       4 UNK         0.1400 
     53 CB         -2.5602  -16.0082  -43.3387 C.3       4 UNK        -0.1800 
     54 N          -0.5998  -16.5465  -44.6557 N.am      4 UNK        -0.5000 
     55 C           0.1452  -17.2172  -45.5390 C.2       3 UNK         0.5000 
     56 O           0.0817  -18.4390  -45.6960 O.2       3 UNK        -0.5000 
     57 CA          1.0721  -16.3499  -46.4223 C.3       3 UNK         0.1400 
     58 CB          1.8974  -17.1699  -47.4304 C.3       3 UNK        -0.1800 
     59 N           0.3162  -15.3437  -47.1665 N.am      3 UNK        -0.5000 
     60 C          -0.2345  -14.2281  -46.6792 C.2       2 UNK         0.5000 
     61 O          -0.0615  -13.8384  -45.5221 O.2       2 UNK        -0.5000 
     62 CA         -1.1853  -13.4718  -47.6283 C.3       2 UNK         0.1400 
     63 CB         -2.1039  -12.4953  -46.8729 C.3       2 UNK        -0.1800 
     64 N          -0.5352  -12.7408  -48.7139 N.am      2 UNK        -0.5000 
     65 C           0.2166  -13.2257  -49.7105 C.2       1 UNK         0.5000 
     66 O           0.6605  -14.3718  -49.7495 O.2       1 UNK        -0.5000 
     67 C          -3.3288  -21.6855  -45.7793 C.2       11 UNK         0.5000 
     68 O          -4.3935  -22.2543  -46.0164 O.2       11 UNK        -0.5000 
     69 N          -2.7163  -21.7306  -44.5881 N.am      12 UNK        -0.5000 
     70 CA         -3.2045  -22.5153  -43.4542 C.3       12 UNK         0.1400 
     71 CB         -2.4745  -22.0874  -42.1726 C.3       12 UNK        -0.1800 
     72 C          -3.0618  -24.0281  -43.7027 C.2       12 UNK         0.5000 
     73 O          -4.0269  -24.7673  -43.5088 O.2       12 UNK        -0.5000 
     74 N          -1.8752  -24.4539  -44.1593 N.am      13 UNK        -0.5000 
     75 CA         -1.5648  -25.8461  -44.4847 C.3       13 UNK         0.1400 
     76 CB         -0.0465  -26.0020  -44.6589 C.3       13 UNK        -0.1800 
     77 C          -2.3048  -26.3477  -45.7370 C.2       13 UNK         0.5000 
     78 O          -2.7966  -27.4767  -45.7402 O.2       13 UNK        -0.5000 
     79 N          -2.3751  -25.5022  -46.7738 N.am      14 UNK        -0.5000 
     80 CA         -3.0006  -25.8225  -48.0581 C.3       14 UNK         0.1400 
     81 CB         -2.4008  -24.9088  -49.1365 C.3       14 UNK        -0.1800 
     82 C          -4.5364  -25.6995  -48.0545 C.2       14 UNK         0.5000 
     83 O          -5.1610  -26.1023  -49.0349 O.2       14 UNK        -0.5000 
     84 N          -5.1160  -25.1192  -46.9921 N.am      15 UNK        -0.5000 
     85 CA         -6.5381  -24.7865  -46.8374 C.3       15 UNK         0.1400 
     86 CB         -7.4013  -26.0623  -46.7480 C.3       15 UNK        -0.1800 
     87 C          -7.0063  -23.8031  -47.9312 C.2       15 UNK         0.5000 
     88 O          -7.9482  -24.0828  -48.6738 O.2       15 UNK        -0.5000 
     89 N          -6.2760  -22.6842  -48.0262 N.am      16 UNK        -0.5000 
     90 CA         -6.4033  -21.5634  -48.9651 C.3       16 UNK         0.1400 
     91 CB         -7.8059  -20.9281  -48.9017 C.3       16 UNK        -0.1800 
     92 C          -5.9814  -21.8667  -50.4175 C.2       16 UNK         0.5000 
     93 O          -5.8746  -20.9281  -51.2069 O.2       16 UNK        -0.5000 
     94 N          -5.6947  -23.1326  -50.7591 N.am      17 UNK        -0.5000 
     95 CA         -5.2956  -23.5536  -52.1087 C.3       17 UNK         0.1400 
     96 CB         -5.3157  -25.0852  -52.2038 C.3       17 UNK        -0.1800 
     97 C          -3.9317  -22.9959  -52.5622 C.2       17 UNK         0.5000 
     98 O          -3.6805  -22.9193  -53.7655 O.2       17 UNK        -0.5000 
     99 N          -3.0941  -22.5645  -51.6072 N.am      18 UNK        -0.5000 
    100 CA        -1.8317  -21.8717  -51.8677 C.3       18 UNK         0.1400 
    101 CB        -1.0474  -21.6846  -50.5609 C.3       18 UNK        -0.1800 
    102 C         -2.0231  -20.5254  -52.5913 C.2       18 UNK         0.5000 
    103 O         -1.1622  -20.1531  -53.3849 O.2       18 UNK        -0.5000 
    104 N         -3.1603  -19.8498  -52.3604 N.am      19 UNK        -0.5000 
    105 CA        -3.5253  -18.6090  -53.0458 C.3       19 UNK         0.1400 
    106 CB        -4.7163  -17.9489  -52.3360 C.3       19 UNK        -0.1800 
    107 C         -3.8362  -18.8287  -54.5369 C.2       19 UNK         0.5000 
    108 O         -3.5261  -17.9612  -55.3532 O.2       19 UNK        -0.5000 
    109 N         -4.4118  -19.9936  -54.8688 N.am      20 UNK        -0.5000 
    110 CA        -4.6513  -20.4296  -56.2439 C.3       20 UNK         0.1400 
    111 CB        -5.7049  -21.5479  -56.2621 C.3       20 UNK        -0.1800 
    112 C         -3.3455  -20.8799  -56.9210 C.2       20 UNK         0.5000 
    113 O         -3.0877  -20.4913  -58.0614 O.2       20 UNK        -0.5000 
    114 N         -2.5184  -21.6431  -56.1886 N.am      21 UNK        -0.5000 
    115 CA        -1.1917  -22.1001  -56.6207 C.3       21 UNK         0.1400 
    116 CB        -0.6162  -23.0624  -55.5720 C.3       21 UNK        -0.1800 
    117 C         -0.2029  -20.9482  -56.8989 C.2       21 UNK         0.5000 
    118 O          0.6873  -21.1016  -57.7359 O.2       21 UNK        -0.5000 
    119 N         -0.4044  -19.8108  -56.2217 N.am      22 UNK        -0.5000 
    120 CA         0.2677  -18.5258  -56.4655 C.3       22 UNK         0.1400 
    121 C          0.0014  -17.8997  -57.8703 C.2       22 UNK         0.5000 
    122 N         -1.0029  -18.3338  -58.6248 N.am      22 UNK        -0.7600 
    123 O          0.7261  -16.9998  -58.2857 O.2       22 UNK        -0.5000 
    124 C124       -0.0503  -17.5044  -55.3324 C.3       23 UNK        -0.0398 
    125 S125        1.4312  -16.9500  -54.4216 S.3       23 UNK        -0.2404 
    126 C126        1.1023  -17.5941  -52.7392 C.3       23 UNK        -0.0205 
    127 H127        1.7772   -8.5797  -49.9916 H         1 UNK         0.0600 
    128 H128        0.6730   -8.3565  -48.6317 H         1 UNK         0.0600 
    129 H129        0.2070   -7.8136  -50.2470 H         1 UNK         0.0600 
    130 H130        1.8287  -10.6641  -50.6599 H         1 UNK         0.3000 
    131 H131        1.4411  -12.6435  -51.3196 H         1 UNK         0.0600 
    132 H132       -0.2540  -13.1499  -52.7259 H         1 UNK         0.0800 
    133 H133       -0.4889  -11.4459  -52.6582 H         1 UNK         0.0800 
    134 H134       -2.5686  -14.1532  -53.4158 H         1 UNK         0.0800 
    135 H135       -3.7699  -14.4138  -52.1826 H         1 UNK         0.0800 
    136 H136       -0.5552  -15.4296  -53.4138 H         1 UNK         0.1150 
    137 H137        0.1020  -18.3858  -50.3735 H         1 UNK         0.1150 
    138 H138       -3.0886  -15.5514  -49.9755 H         1 UNK         0.1150 
    139 H139       -0.9936  -18.0710  -48.2178 H         1 UNK         0.0800 
    140 H140       -2.2274  -16.8508  -47.9939 H         1 UNK         0.0800 
    141 H141       -4.3290  -19.5089  -46.8515 H         1 UNK         0.0800 
    142 H142       -2.8115  -18.7802  -46.4124 H         1 UNK         0.0800 
    143 H143       -2.8456  -21.4854  -47.8188 H         1 UNK         0.0600 
    144 H144       -0.7617  -19.9828  -46.4686 H         1 UNK         0.3000 
    145 H145        1.5815  -22.7230  -46.5320 H         1 UNK         0.0600 
    146 H146        2.8329  -20.7223  -47.4155 H         1 UNK         0.0600 
    147 H147        1.7493  -21.4254  -48.6079 H         1 UNK         0.0600 
    148 H148        1.2932  -19.9443  -47.7863 H         1 UNK         0.0600 
    149 H149        1.5577  -20.1386  -45.2385 H         1 UNK         0.3000 
    150 H150        0.2062  -20.4964  -42.5698 H         1 UNK         0.0600 
    151 H151        0.8702  -22.5359  -41.3765 H         1 UNK         0.0600 
    152 H152        1.6976  -21.1577  -40.6733 H         1 UNK         0.0600 
    153 H153        2.5634  -22.2585  -41.7437 H         1 UNK         0.0600 
    154 H154        1.5662  -18.8359  -42.8193 H         1 UNK         0.3000 
    155 H155        5.0474  -18.4605  -42.6406 H         1 UNK         0.0600 
    156 H156        3.3779  -17.4681  -44.9942 H         1 UNK         0.0600 
    157 H157        4.7144  -18.5979  -45.1928 H         1 UNK         0.0600 
    158 H158        5.0142  -16.9828  -44.5761 H         1 UNK         0.0600 
    159 H159        2.3720  -17.5401  -42.0999 H         1 UNK         0.3000 
    160 H160        3.5053  -14.5709  -40.4951 H         1 UNK         0.0600 
    161 H161        1.2649  -15.1538  -42.5081 H         1 UNK         0.0600 
    162 H162        2.4456  -13.8593  -42.6238 H         1 UNK         0.0600 
    163 H163        1.2696  -13.8546  -41.3187 H         1 UNK         0.0600 
    164 H164        1.1582  -16.2305  -40.2416 H         1 UNK         0.3000 
    165 H165        2.4209  -18.3341  -37.7023 H         1 UNK         0.0600 
    166 H166        0.5959  -15.9264  -37.2067 H         1 UNK         0.0600 
    167 H167        0.6019  -17.4154  -36.2611 H         1 UNK         0.0600 
    168 H168        2.0175  -16.3755  -36.2815 H         1 UNK         0.0600 
    169 H169        0.8897  -19.2528  -38.9443 H         1 UNK         0.3000 
    170 H170       -0.6261  -19.6499  -40.4352 H         1 UNK         0.0600 
    171 H171       -3.1129  -18.3285  -39.2206 H         1 UNK         0.0600 
    172 H172       -3.0511  -19.9293  -39.9551 H         1 UNK         0.0600 
    173 H173       -2.1748  -19.6121  -38.4685 H         1 UNK         0.0600 
    174 H174       -2.6518  -18.1970  -41.6811 H         1 UNK         0.3000 
    175 H175       -2.0903  -17.9319  -44.1915 H         1 UNK         0.0600 
    176 H176       -2.0764  -15.1897  -42.8036 H         1 UNK         0.0600 
    177 H177       -3.0303  -15.5907  -44.2295 H         1 UNK         0.0600 
    178 H178       -3.3614  -16.3883  -42.7043 H         1 UNK         0.0600 
    179 H179       -0.4686  -15.5409  -44.6141 H         1 UNK         0.3000 
    180 H180        1.7666  -15.8401  -45.7519 H         1 UNK         0.0600 
    181 H181        2.6515  -16.5467  -47.9111 H         1 UNK         0.0600 
    182 H182        1.2738  -17.5909  -48.2175 H         1 UNK         0.0600 
    183 H183        2.4205  -17.9968  -46.9520 H         1 UNK         0.0600 
    184 H184        0.2199  -15.4997  -48.1652 H         1 UNK         0.3000 
    185 H185       -1.8278  -14.2227  -48.0912 H         1 UNK         0.0600 
    186 H186       -2.6405  -13.0014  -46.0691 H         1 UNK         0.0600 
    187 H187       -1.5389  -11.6751  -46.4282 H         1 UNK         0.0600 
    188 H188       -2.8517  -12.0635  -47.5386 H         1 UNK         0.0600 
    189 H189       -0.8383  -11.7778  -48.8325 H         1 UNK         0.3000 
    190 H190       -1.8279  -21.2665  -44.4848 H         1 UNK         0.3000 
    191 H191       -4.2663  -22.2942  -43.3231 H         1 UNK         0.0600 
    192 H192       -2.9206  -22.5606  -41.2971 H         1 UNK         0.0600 
    193 H193       -2.5351  -21.0097  -42.0282 H         1 UNK         0.0600 
    194 H194       -1.4226  -22.3672  -42.1903 H         1 UNK         0.0600 
    195 H195       -1.1120  -23.7911  -44.2628 H         1 UNK         0.3000 
    196 H196       -1.8745  -26.4687  -43.6426 H         1 UNK         0.0600 
    197 H197        0.3322  -25.3714  -45.4647 H         1 UNK         0.0600 
    198 H198        0.4840  -25.7301  -43.7462 H         1 UNK         0.0600 
    199 H199        0.2179  -27.0336  -44.8944 H         1 UNK         0.0600 
    200 H200       -1.8975  -24.6063  -46.7158 H         1 UNK         0.3000 
    201 H201       -2.7569  -26.8546  -48.3185 H         1 UNK         0.0600 
    202 H202       -2.7572  -25.1815  -50.1292 H         1 UNK         0.0600 
    203 H203       -2.6642  -23.8655  -48.9628 H         1 UNK         0.0600 
    204 H204       -1.3133  -24.9827  -49.1564 H         1 UNK         0.0600 
    205 H205       -4.5111  -24.7953  -46.2498 H         1 UNK         0.3000 
    206 H206       -6.6302  -24.2604  -45.8859 H         1 UNK         0.0600 
    207 H207       -7.0495  -26.7192  -45.9525 H         1 UNK         0.0600 
    208 H208       -8.4399  -25.8128  -46.5284 H         1 UNK         0.0600 
    209 H209       -7.3933  -26.6296  -47.6790 H         1 UNK         0.0600 
    210 H210       -5.5351  -22.5742  -47.3344 H         1 UNK         0.3000 
    211 H211       -5.6970  -20.8128  -48.6092 H         1 UNK         0.0600 
    212 H212       -7.8409  -20.0050  -49.4817 H         1 UNK         0.0600 
    213 H213       -8.0794  -20.6765  -47.8770 H         1 UNK         0.0600 
    214 H214       -8.5729  -21.5904  -49.3032 H         1 UNK         0.0600 
    215 H215       -5.8245  -23.8638  -50.0727 H         1 UNK         0.3000 
    216 H216       -6.0434  -23.1681  -52.8050 H         1 UNK         0.0600 
    217 H217       -4.5527  -25.5409  -51.5745 H         1 UNK         0.0600 
    218 H218       -5.1301  -25.4129  -53.2275 H         1 UNK         0.0600 
    219 H219       -6.2831  -25.4886  -51.9038 H         1 UNK         0.0600 
    220 H220       -3.3821  -22.6507  -50.6455 H         1 UNK         0.3000 
    221 H221       -1.2364  -22.5126  -52.5191 H         1 UNK         0.0600 
    222 H222       -0.7855  -22.6430  -50.1140 H         1 UNK         0.0600 
    223 H223       -1.6140  -21.1149  -49.8283 H         1 UNK         0.0600 
    224 H224       -0.1145  -21.1479  -50.7385 H         1 UNK         0.0600 
    225 H225       -3.8463  -20.2296  -51.7201 H         1 UNK         0.3000 
    226 H226       -2.6755  -17.9298  -52.9819 H         1 UNK         0.0600 
    227 H227       -5.6174  -18.5585  -52.4044 H         1 UNK         0.0600 
    228 H228       -4.5046  -17.7793  -51.2809 H         1 UNK         0.0600 
    229 H229       -4.9419  -16.9788  -52.7804 H         1 UNK         0.0600 
    230 H230       -4.6021  -20.6636  -54.1374 H         1 UNK         0.3000 
    231 H231       -5.0500  -19.5854  -56.8108 H         1 UNK         0.0600 
    232 H232       -5.3697  -22.4363  -55.7273 H         1 UNK         0.0600 
    233 H233       -5.9304  -21.8501  -57.2855 H         1 UNK         0.0600 
    234 H234       -6.6389  -21.2163  -55.8083 H         1 UNK         0.0600 
    235 H235       -2.8298  -21.9534  -55.2732 H         1 UNK         0.3000 
    236 H236       -1.3254  -22.6522  -57.5531 H         1 UNK         0.0600 
    237 H237       -0.3770  -22.5434  -54.6448 H         1 UNK         0.0600 
    238 H238       -1.3151  -23.8666  -55.3408 H         1 UNK         0.0600 
    239 H239        0.3044  -23.5226  -55.9326 H         1 UNK         0.0600 
    240 H240       -1.0966  -19.8187  -55.4830 H         1 UNK         0.3000 
    241 H241        1.3363  -18.7477  -56.4513 H         1 UNK         0.0600 
    242 H242       -1.1540  -17.9169  -59.5296 H         1 UNK         0.3800 
    243 H243       -1.6179  -19.0756  -58.3101 H         1 UNK         0.3800 
    244 H244       -0.7617  -17.9206  -54.6209 H         1 UNK         0.0800 
    245 H245       -0.5506  -16.6110  -55.7115 H         1 UNK         0.0800 
    246 H246        0.9685  -18.6745  -52.8047 H         1 UNK         0.0800 
    247 H247        1.9984  -17.4333  -52.1386 H         1 UNK         0.0800 
@<TRIPOS>BOND
     1    1    2 1    
     2    1  127 1    
     3    1  128 1    
     4    1  129 1    
     5    2    3 2    
     6    2    4 am   BACKBONE|DICT|INTERRES
     7    4    5 1    
     8    4  130 1    
     9    5    6 1    
    10    5   65 1    
    11    5  131 1    
    12    6    7 1    
    13    6  132 1    
    14    6  133 1    
    15    7    8 1    
    16    8    9 1    
    17    8  134 1    
    18    8  135 1    
    19    9   10 ar   
    20    9   14 ar   
    21   10   11 ar   
    22   10  136 1    
    23   11   12 ar   
    24   11  126 1    
    25   12   13 ar   
    26   12  137 1    
    27   13   14 ar   
    28   13   15 1    
    29   14  138 1    
    30   15   16 1    
    31   15  139 1    
    32   15  140 1    
    33   16   17 1    
    34   17   18 1    
    35   17  141 1    
    36   17  142 1    
    37   18   19 1    
    38   18   67 1    
    39   18  143 1    
    40   19   20 am   BACKBONE|DICT|INTERRES
    41   19  144 1    
    42   20   21 2    
    43   20   22 1    
    44   22   23 1    
    45   22   24 1    
    46   22  145 1    
    47   23  146 1    
    48   23  147 1    
    49   23  148 1    
    50   24   25 am   BACKBONE|DICT|INTERRES
    51   24  149 1    
    52   25   26 2    
    53   25   27 1    
    54   27   28 1    
    55   27   29 1    
    56   27  150 1    
    57   28  151 1    
    58   28  152 1    
    59   28  153 1    
    60   29   30 am   BACKBONE|DICT|INTERRES
    61   29  154 1    
    62   30   31 2    
    63   30   32 1    
    64   32   33 1    
    65   32   34 1    
    66   32  155 1    
    67   33  156 1    
    68   33  157 1    
    69   33  158 1    
    70   34   35 am   BACKBONE|DICT|INTERRES
    71   34  159 1    
    72   35   36 2    
    73   35   37 1    
    74   37   38 1    
    75   37   39 1    
    76   37  160 1    
    77   38  161 1    
    78   38  162 1    
    79   38  163 1    
    80   39   40 am   BACKBONE|DICT|INTERRES
    81   39  164 1    
    82   40   41 2    
    83   40   42 1    
    84   42   43 1    
    85   42   44 1    
    86   42  165 1    
    87   43  166 1    
    88   43  167 1    
    89   43  168 1    
    90   44   45 am   BACKBONE|DICT|INTERRES
    91   44  169 1    
    92   45   46 2    
    93   45   47 1    
    94   47   48 1    
    95   47   49 1    
    96   47  170 1    
    97   48  171 1    
    98   48  172 1    
    99   48  173 1    
   100   49   50 am   BACKBONE|DICT|INTERRES
   101   49  174 1    
   102   50   51 2    
   103   50   52 1    
   104   52   53 1    
   105   52   54 1    
   106   52  175 1    
   107   53  176 1    
   108   53  177 1    
   109   53  178 1    
   110   54   55 am   BACKBONE|DICT|INTERRES
   111   54  179 1    
   112   55   56 2    
   113   55   57 1    
   114   57   58 1    
   115   57   59 1    
   116   57  180 1    
   117   58  181 1    
   118   58  182 1    
   119   58  183 1    
   120   59   60 am   BACKBONE|DICT|INTERRES
   121   59  184 1    
   122   60   61 2    
   123   60   62 1    
   124   62   63 1    
   125   62   64 1    
   126   62  185 1    
   127   63  186 1    
   128   63  187 1    
   129   63  188 1    
   130   64   65 am   BACKBONE|DICT|INTERRES
   131   64  189 1    
   132   65   66 2    
   133   67   68 2    
   134   67   69 am   BACKBONE|DICT|INTERRES
   135   69   70 1    
   136   69  190 1    
   137   70   71 1    
   138   70   72 1    
   139   70  191 1    
   140   71  192 1    
   141   71  193 1    
   142   71  194 1    
   143   72   73 2    
   144   72   74 am   BACKBONE|DICT|INTERRES
   145   74   75 1    
   146   74  195 1    
   147   75   76 1    
   148   75   77 1    
   149   75  196 1    
   150   76  197 1    
   151   76  198 1    
   152   76  199 1    
   153   77   78 2    
   154   77   79 am   BACKBONE|DICT|INTERRES
   155   79   80 1    
   156   79  200 1    
   157   80   81 1    
   158   80   82 1    
   159   80  201 1    
   160   81  202 1    
   161   81  203 1    
   162   81  204 1    
   163   82   83 2    
   164   82   84 am   BACKBONE|DICT|INTERRES
   165   84   85 1    
   166   84  205 1    
   167   85   86 1    
   168   85   87 1    
   169   85  206 1    
   170   86  207 1    
   171   86  208 1    
   172   86  209 1    
   173   87   88 2    
   174   87   89 am   BACKBONE|DICT|INTERRES
   175   89   90 1    
   176   89  210 1    
   177   90   91 1    
   178   90   92 1    
   179   90  211 1    
   180   91  212 1    
   181   91  213 1    
   182   91  214 1    
   183   92   93 2    
   184   92   94 am   BACKBONE|DICT|INTERRES
   185   94   95 1    
   186   94  215 1    
   187   95   96 1    
   188   95   97 1    
   189   95  216 1    
   190   96  217 1    
   191   96  218 1    
   192   96  219 1    
   193   97   98 2    
   194   97   99 am   BACKBONE|DICT|INTERRES
   195   99  100 1    
   196   99  220 1    
   197  100  101 1    
   198  100  102 1    
   199  100  221 1    
   200  101  222 1    
   201  101  223 1    
   202  101  224 1    
   203  102  103 2    
   204  102  104 am   BACKBONE|DICT|INTERRES
   205  104  105 1    
   206  104  225 1    
   207  105  106 1    
   208  105  107 1    
   209  105  226 1    
   210  106  227 1    
   211  106  228 1    
   212  106  229 1    
   213  107  108 2    
   214  107  109 am   BACKBONE|DICT|INTERRES
   215  109  110 1    
   216  109  230 1    
   217  110  111 1    
   218  110  112 1    
   219  110  231 1    
   220  111  232 1    
   221  111  233 1    
   222  111  234 1    
   223  112  113 2    
   224  112  114 am   BACKBONE|DICT|INTERRES
   225  114  115 1    
   226  114  235 1    
   227  115  116 1    
   228  115  117 1    
   229  115  236 1    
   230  116  237 1    
   231  116  238 1    
   232  116  239 1    
   233  117  118 2    
   234  117  119 am   BACKBONE|DICT|INTERRES
   235  119  120 1    
   236  119  240 1    
   237  120  121 1    
   238  120  124 1    
   239  120  241 1    
   240  121  122 am   BACKBONE|DICT|INTERRES
   241  121  123 2    
   242  122  242 1    
   243  122  243 1    
   244  124  125 1    
   245  124  244 1    
   246  124  245 1    
   247  125  126 1    
   248  126  246 1    
   249  126  247 1    
@<TRIPOS>SUBSTRUCTURE
     1 UNK         1 GROUP             0       ****    0 ROOT    
