@<TRIPOS>MOLECULE
3R540
247   249    1
SMALL
USER_CHARGES


@<TRIPOS>ATOM
      1 CA         -3.3853  -10.0990  -43.5994 C.3       0 UNK        -0.1800 
      2 C          -2.7260  -11.0707  -44.5671 C.2       0 UNK         0.5000 
      3 O          -1.7064  -10.7363  -45.1696 O.2       0 UNK        -0.5000 
      4 N          -3.2947  -12.2765  -44.7065 N.am      1 UNK        -0.5000 
      5 CA         -2.8456  -13.3450  -45.6133 C.3       1 UNK         0.1400 
      6 C6         -3.7875  -14.5718  -45.5611 C.3       23 UNK        -0.0398 
      7 S7         -5.4316  -14.1683  -46.2501 S.3       23 UNK        -0.2404 
      8 C8         -6.0419  -15.7913  -46.8306 C.3       23 UNK        -0.0205 
      9 C9         -5.0864  -16.5378  -47.7593 C.ar      23 UNK        -0.0193 
     10 C10        -4.3504  -15.8665  -48.7409 C.ar      23 UNK        -0.1150 
     11 C11        -3.4259  -16.5540  -49.5283 C.ar      23 UNK        -0.0193 
     12 C12        -3.2748  -17.9339  -49.3634 C.ar      23 UNK        -0.1150 
     13 C13        -4.0302  -18.6337  -48.4163 C.ar      23 UNK        -0.0193 
     14 C14        -4.9288  -17.9191  -47.6127 C.ar      23 UNK        -0.1150 
     15 C15        -3.8230  -20.1469  -48.2981 C.3       23 UNK        -0.0205 
     16 S16        -4.9808  -21.0442  -47.2083 S.3       23 UNK        -0.2404 
     17 C17        -4.1579  -20.8814  -45.5881 C.3       23 UNK        -0.0398 
     18 CA         -3.0908  -21.9737  -45.3247 C.3       11 UNK         0.1400 
     19 N          -2.2065  -21.5930  -44.2147 N.am      11 UNK        -0.5000 
     20 C          -1.1113  -22.2625  -43.8273 C.2       10 UNK         0.5000 
     21 O          -0.7544  -23.3275  -44.3339 O.2       10 UNK        -0.5000 
     22 CA         -0.2954  -21.6366  -42.6801 C.3       10 UNK         0.1400 
     23 CB          0.9957  -22.4155  -42.3737 C.3       10 UNK        -0.1800 
     24 N           0.0609  -20.2579  -42.9999 N.am      10 UNK        -0.5000 
     25 C          -0.6206  -19.1679  -42.6273 C.2       9 UNK         0.5000 
     26 O          -1.6554  -19.1999  -41.9613 O.2       9 UNK        -0.5000 
     27 CA         -0.0690  -17.8232  -43.1335 C.3       9 UNK         0.1400 
     28 CB          1.2584  -17.4815  -42.4298 C.3       9 UNK        -0.1800 
     29 N           0.1251  -17.8540  -44.5837 N.am      9 UNK        -0.5000 
     30 C          -0.8687  -17.9394  -45.4820 C.2       8 UNK         0.5000 
     31 O          -2.0600  -17.8535  -45.1870 O.2       8 UNK        -0.5000 
     32 CA         -0.4729  -18.2124  -46.9440 C.3       8 UNK         0.1400 
     33 CB         -0.3027  -16.9132  -47.7356 C.3       8 UNK        -0.1800 
     34 N           0.7551  -18.9997  -47.0312 N.am      8 UNK        -0.5000 
     35 C           0.7932  -20.3383  -46.9812 C.2       7 UNK         0.5000 
     36 O          -0.2123  -21.0437  -46.9783 O.2       7 UNK        -0.5000 
     37 CA          2.1810  -21.0079  -46.9199 C.3       7 UNK         0.1400 
     38 CB          2.5736  -21.5591  -48.2984 C.3       7 UNK        -0.1800 
     39 N           3.2357  -20.1056  -46.4513 N.am      7 UNK        -0.5000 
     40 C           3.3621  -19.6740  -45.1884 C.2       6 UNK         0.5000 
     41 O           2.6303  -20.0401  -44.2705 O.2       6 UNK        -0.5000 
     42 CA          4.4358  -18.5974  -44.9299 C.3       6 UNK         0.1400 
     43 CB          5.7898  -19.2482  -44.6124 C.3       6 UNK        -0.1800 
     44 N           4.5880  -17.6747  -46.0611 N.am      6 UNK        -0.5000 
     45 C           3.6264  -16.8436  -46.4839 C.2       5 UNK         0.5000 
     46 O           2.5410  -16.7171  -45.9127 O.2       5 UNK        -0.5000 
     47 CA          3.8768  -16.1253  -47.8164 C.3       5 UNK         0.1400 
     48 CB          3.6724  -17.1237  -48.9779 C.3       5 UNK        -0.1800 
     49 N           2.9526  -14.9996  -47.9412 N.am      5 UNK        -0.5000 
     50 C           2.9596  -14.0851  -48.9197 C.2       4 UNK         0.5000 
     51 O           3.7972  -14.0522  -49.8220 O.2       4 UNK        -0.5000 
     52 CA          1.8540  -13.0155  -48.8835 C.3       4 UNK         0.1400 
     53 CB          0.5358  -13.5632  -49.4548 C.3       4 UNK        -0.1800 
     54 N           1.6340  -12.4809  -47.5389 N.am      4 UNK        -0.5000 
     55 C           2.4610  -11.6061  -46.9434 C.2       3 UNK         0.5000 
     56 O           3.4871  -11.1761  -47.4723 O.2       3 UNK        -0.5000 
     57 CA          2.0895  -11.1032  -45.5336 C.3       3 UNK         0.1400 
     58 CB          1.4644   -9.7020  -45.6119 C.3       3 UNK        -0.1800 
     59 N           1.1755  -11.9973  -44.8249 N.am      3 UNK        -0.5000 
     60 C           1.5373  -13.1778  -44.3023 C.2       2 UNK         0.5000 
     61 O           2.6981  -13.5880  -44.2989 O.2       2 UNK        -0.5000 
     62 CA          0.4289  -14.0619  -43.6951 C.3       2 UNK         0.1400 
     63 CB          0.4941  -14.0353  -42.1602 C.3       2 UNK        -0.1800 
     64 N          -0.9321  -13.7236  -44.1138 N.am      2 UNK        -0.5000 
     65 C          -1.3845  -13.7761  -45.3738 C.2       1 UNK         0.5000 
     66 O          -0.6810  -14.0897  -46.3326 O.2       1 UNK        -0.5000 
     67 C          -3.7093  -23.3816  -45.1562 C.2       11 UNK         0.5000 
     68 O          -3.8642  -24.1018  -46.1441 O.2       11 UNK        -0.5000 
     69 N          -3.9964  -23.7707  -43.9051 N.am      12 UNK        -0.5000 
     70 CA         -4.4866  -25.1013  -43.5431 C.3       12 UNK         0.1400 
     71 CB         -4.9576  -25.0886  -42.0812 C.3       12 UNK        -0.1800 
     72 C          -3.4391  -26.2091  -43.7666 C.2       12 UNK         0.5000 
     73 O          -3.7949  -27.2893  -44.2372 O.2       12 UNK        -0.5000 
     74 N          -2.1656  -25.9164  -43.4631 N.am      13 UNK        -0.5000 
     75 CA         -1.0346  -26.8245  -43.6807 C.3       13 UNK         0.1400 
     76 CB          0.1772  -26.3506  -42.8653 C.3       13 UNK        -0.1800 
     77 C          -0.6732  -26.9438  -45.1718 C.2       13 UNK         0.5000 
     78 O          -0.2950  -28.0243  -45.6245 O.2       13 UNK        -0.5000 
     79 N          -0.8492  -25.8428  -45.9152 N.am      14 UNK        -0.5000 
     80 CA         -0.7374  -25.7784  -47.3734 C.3       14 UNK         0.1400 
     81 CB         -0.5617  -24.3088  -47.7897 C.3       14 UNK        -0.1800 
     82 C          -1.9379  -26.4113  -48.1111 C.2       14 UNK         0.5000 
     83 O          -1.9244  -26.4549  -49.3412 O.2       14 UNK        -0.5000 
     84 N          -2.9658  -26.8541  -47.3682 N.am      15 UNK        -0.5000 
     85 CA         -4.2127  -27.4713  -47.8371 C.3       15 UNK         0.1400 
     86 CB         -3.9305  -28.8731  -48.4153 C.3       15 UNK        -0.1800 
     87 C          -5.0065  -26.5713  -48.8086 C.2       15 UNK         0.5000 
     88 O          -5.6557  -27.0725  -49.7280 O.2       15 UNK        -0.5000 
     89 N          -4.9034  -25.2511  -48.5981 N.am      16 UNK        -0.5000 
     90 CA         -5.4472  -24.1625  -49.4130 C.3       16 UNK         0.1400 
     91 CB         -6.9889  -24.1719  -49.3919 C.3       16 UNK        -0.1800 
     92 C          -4.8770  -24.0668  -50.8453 C.2       16 UNK         0.5000 
     93 O          -5.4026  -23.2907  -51.6433 O.2       16 UNK        -0.5000 
     94 N          -3.7977  -24.8018  -51.1581 N.am      17 UNK        -0.5000 
     95 CA         -3.1622  -24.7978  -52.4804 C.3       17 UNK         0.1400 
     96 CB         -2.1703  -25.9655  -52.5797 C.3       17 UNK        -0.1800 
     97 C          -2.4611  -23.4653  -52.8015 C.2       17 UNK         0.5000 
     98 O          -2.4205  -23.0601  -53.9634 O.2       17 UNK        -0.5000 
     99 N          -1.9554  -22.7896  -51.7597 N.am      18 UNK        -0.5000 
    100 CA        -1.2914  -21.4885  -51.8471 C.3       18 UNK         0.1400 
    101 CB        -0.6321  -21.1688  -50.4973 C.3       18 UNK        -0.1800 
    102 C         -2.2269  -20.3430  -52.2765 C.2       18 UNK         0.5000 
    103 O         -1.7434  -19.3590  -52.8356 O.2       18 UNK        -0.5000 
    104 N         -3.5402  -20.4936  -52.0399 N.am      19 UNK        -0.5000 
    105 CA        -4.5736  -19.5063  -52.3717 C.3       19 UNK         0.1400 
    106 CB        -5.8992  -19.9043  -51.7044 C.3       19 UNK        -0.1800 
    107 C         -4.7728  -19.3037  -53.8858 C.2       19 UNK         0.5000 
    108 O         -5.2953  -18.2675  -54.2967 O.2       19 UNK        -0.5000 
    109 N         -4.3439  -20.2852  -54.6904 N.am      20 UNK        -0.5000 
    110 CA        -4.3409  -20.2184  -56.1503 C.3       20 UNK         0.1400 
    111 CB        -4.2766  -21.6497  -56.7061 C.3       20 UNK        -0.1800 
    112 C         -3.1833  -19.3681  -56.7136 C.2       20 UNK         0.5000 
    113 O         -3.2237  -19.0217  -57.8952 O.2       20 UNK        -0.5000 
    114 N         -2.1734  -19.0665  -55.8852 N.am      21 UNK        -0.5000 
    115 CA        -0.9676  -18.3390  -56.2693 C.3       21 UNK         0.1400 
    116 CB         0.2636  -19.2164  -55.9802 C.3       21 UNK        -0.1800 
    117 C         -0.8816  -16.9925  -55.5366 C.2       21 UNK         0.5000 
    118 O         -0.8986  -15.9482  -56.1902 O.2       21 UNK        -0.5000 
    119 N         -0.7819  -17.0432  -54.2014 N.am      22 UNK        -0.5000 
    120 CA        -0.5060  -15.9090  -53.3031 C.3       22 UNK         0.1400 
    121 C          0.7962  -15.1268  -53.6742 C.2       22 UNK         0.5000 
    122 N          0.8611  -13.8134  -53.4914 N.am      22 UNK        -0.7600 
    123 O          1.7904  -15.7232  -54.0824 O.2       22 UNK        -0.5000 
    124 C124       -1.7593  -15.0198  -53.0560 C.3       23 UNK        -0.0398 
    125 S125       -3.1022  -15.9307  -52.2220 S.3       23 UNK        -0.2404 
    126 C126       -2.5376  -15.7928  -50.4992 C.3       23 UNK        -0.0205 
    127 H127       -4.2684  -10.5314  -43.1285 H         1 UNK         0.0600 
    128 H128       -3.6888   -9.1944  -44.1263 H         1 UNK         0.0600 
    129 H129       -2.6834   -9.8183  -42.8142 H         1 UNK         0.0600 
    130 H130       -4.1398  -12.4789  -44.1913 H         1 UNK         0.3000 
    131 H131       -2.8763  -12.9362  -46.6258 H         1 UNK         0.0600 
    132 H132       -3.3556  -15.4027  -46.1207 H         1 UNK         0.0800 
    133 H133       -3.9074  -14.9313  -44.5377 H         1 UNK         0.0800 
    134 H134       -6.9881  -15.6435  -47.3521 H         1 UNK         0.0800 
    135 H135       -6.2657  -16.3984  -45.9520 H         1 UNK         0.0800 
    136 H136       -4.4644  -14.7988  -48.8630 H         1 UNK         0.1150 
    137 H137       -2.5544  -18.4620  -49.9716 H         1 UNK         0.1150 
    138 H138       -5.5082  -18.4268  -46.8567 H         1 UNK         0.1150 
    139 H139       -2.8043  -20.3493  -47.9703 H         1 UNK         0.0800 
    140 H140       -3.9103  -20.5859  -49.2907 H         1 UNK         0.0800 
    141 H141       -4.9195  -20.8885  -44.8067 H         1 UNK         0.0800 
    142 H142       -3.7005  -19.8925  -45.5470 H         1 UNK         0.0800 
    143 H143       -2.4542  -22.0290  -46.2077 H         1 UNK         0.0600 
    144 H144       -2.4202  -20.7244  -43.7438 H         1 UNK         0.3000 
    145 H145       -0.9182  -21.6621  -41.7837 H         1 UNK         0.0600 
    146 H146        1.5790  -21.9213  -41.5967 H         1 UNK         0.0600 
    147 H147        0.7693  -23.4193  -42.0152 H         1 UNK         0.0600 
    148 H148        1.6298  -22.5106  -43.2563 H         1 UNK         0.0600 
    149 H149        0.9084  -20.1379  -43.5508 H         1 UNK         0.3000 
    150 H150       -0.7943  -17.0391  -42.9060 H         1 UNK         0.0600 
    151 H151        1.9601  -18.3147  -42.4402 H         1 UNK         0.0600 
    152 H152        1.0820  -17.2259  -41.3846 H         1 UNK         0.0600 
    153 H153        1.7639  -16.6354  -42.8921 H         1 UNK         0.0600 
    154 H154        1.0802  -17.8506  -44.9188 H         1 UNK         0.3000 
    155 H155       -1.2875  -18.7690  -47.4047 H         1 UNK         0.0600 
    156 H156        0.4697  -16.2771  -47.3103 H         1 UNK         0.0600 
    157 H157       -1.2290  -16.3389  -47.7337 H         1 UNK         0.0600 
    158 H158       -0.0392  -17.1144  -48.7735 H         1 UNK         0.0600 
    159 H159        1.6216  -18.4835  -46.9988 H         1 UNK         0.3000 
    160 H160        2.1092  -21.8460  -46.2230 H         1 UNK         0.0600 
    161 H161        2.6212  -20.7705  -49.0505 H         1 UNK         0.0600 
    162 H162        1.8496  -22.2989  -48.6405 H         1 UNK         0.0600 
    163 H163        3.5449  -22.0530  -48.2649 H         1 UNK         0.0600 
    164 H164        3.8847  -19.7662  -47.1452 H         1 UNK         0.3000 
    165 H165        4.1211  -18.0180  -44.0591 H         1 UNK         0.0600 
    166 H166        6.5375  -18.4972  -44.3565 H         1 UNK         0.0600 
    167 H167        6.1685  -19.8264  -45.4561 H         1 UNK         0.0600 
    168 H168        5.7064  -19.9252  -43.7610 H         1 UNK         0.0600 
    169 H169        5.4546  -17.7314  -46.5770 H         1 UNK         0.3000 
    170 H170        4.9003  -15.7458  -47.8229 H         1 UNK         0.0600 
    171 H171        4.3117  -18.0002  -48.8682 H         1 UNK         0.0600 
    172 H172        2.6406  -17.4739  -49.0292 H         1 UNK         0.0600 
    173 H173        3.9183  -16.6799  -49.9421 H         1 UNK         0.0600 
    174 H174        2.2597  -14.9459  -47.2045 H         1 UNK         0.3000 
    175 H175        2.1707  -12.1942  -49.5304 H         1 UNK         0.0600 
    176 H176        0.1394  -14.3778  -48.8515 H         1 UNK         0.0600 
    177 H177       -0.2260  -12.7851  -49.5046 H         1 UNK         0.0600 
    178 H178        0.6781  -13.9460  -50.4659 H         1 UNK         0.0600 
    179 H179        0.8211  -12.8226  -47.0376 H         1 UNK         0.3000 
    180 H180        3.0136  -11.0274  -44.9565 H         1 UNK         0.0600 
    181 H181        0.5585   -9.6996  -46.2189 H         1 UNK         0.0600 
    182 H182        2.1589   -8.9898  -46.0592 H         1 UNK         0.0600 
    183 H183        1.2065   -9.3267  -44.6214 H         1 UNK         0.0600 
    184 H184        0.1987  -11.7263  -44.8089 H         1 UNK         0.3000 
    185 H185        0.6228  -15.0765  -44.0423 H         1 UNK         0.0600 
    186 H186       -0.2148  -14.7374  -41.7213 H         1 UNK         0.0600 
    187 H187        1.4869  -14.3135  -41.8042 H         1 UNK         0.0600 
    188 H188        0.2718  -13.0424  -41.7674 H         1 UNK         0.0600 
    189 H189       -1.5651  -13.4137  -43.3910 H         1 UNK         0.3000 
    190 H190       -3.8339  -23.1229  -43.1484 H         1 UNK         0.3000 
    191 H191       -5.3476  -25.3273  -44.1759 H         1 UNK         0.0600 
    192 H192       -5.3475  -26.0645  -41.7887 H         1 UNK         0.0600 
    193 H193       -5.7569  -24.3627  -41.9309 H         1 UNK         0.0600 
    194 H194       -4.1453  -24.8411  -41.3967 H         1 UNK         0.0600 
    195 H195       -1.9397  -24.9831  -43.1504 H         1 UNK         0.3000 
    196 H196       -1.3175  -27.8163  -43.3215 H         1 UNK         0.0600 
    197 H197        0.5684  -25.4049  -43.2393 H         1 UNK         0.0600 
    198 H198       -0.0756  -26.2217  -41.8128 H         1 UNK         0.0600 
    199 H199        0.9872  -27.0790  -42.9191 H         1 UNK         0.0600 
    200 H200       -1.0915  -24.9783  -45.4408 H         1 UNK         0.3000 
    201 H201        0.1564  -26.3275  -47.6757 H         1 UNK         0.0600 
    202 H202       -1.4515  -23.7191  -47.5701 H         1 UNK         0.0600 
    203 H203       -0.3675  -24.2224  -48.8593 H         1 UNK         0.0600 
    204 H204        0.2784  -23.8486  -47.2693 H         1 UNK         0.0600 
    205 H205       -2.8984  -26.7348  -46.3667 H         1 UNK         0.3000 
    206 H206       -4.8426  -27.5957  -46.9552 H         1 UNK         0.0600 
    207 H207       -3.3778  -29.4875  -47.7046 H         1 UNK         0.0600 
    208 H208       -4.8589  -29.3981  -48.6428 H         1 UNK         0.0600 
    209 H209       -3.3494  -28.8207  -49.3366 H         1 UNK         0.0600 
    210 H210       -4.3726  -24.9475  -47.7840 H         1 UNK         0.3000 
    211 H211       -5.1216  -23.2494  -48.9209 H         1 UNK         0.0600 
    212 H212       -7.3927  -23.2731  -49.8596 H         1 UNK         0.0600 
    213 H213       -7.3677  -24.2000  -48.3702 H         1 UNK         0.0600 
    214 H214       -7.3972  -25.0294  -49.9271 H         1 UNK         0.0600 
    215 H215       -3.3914  -25.4154  -50.4600 H         1 UNK         0.3000 
    216 H216       -3.9417  -24.9514  -53.2297 H         1 UNK         0.0600 
    217 H217       -1.3351  -25.8449  -51.8890 H         1 UNK         0.0600 
    218 H218       -1.7543  -26.0378  -53.5854 H         1 UNK         0.0600 
    219 H219       -2.6548  -26.9166  -52.3578 H         1 UNK         0.0600 
    220 H220       -2.0327  -23.2039  -50.8429 H         1 UNK         0.3000 
    221 H221       -0.5049  -21.5619  -52.6013 H         1 UNK         0.0600 
    222 H222        0.1220  -21.9139  -50.2467 H         1 UNK         0.0600 
    223 H223       -1.3588  -21.1470  -49.6860 H         1 UNK         0.0600 
    224 H224       -0.1340  -20.1983  -50.5187 H         1 UNK         0.0600 
    225 H225       -3.8649  -21.3636  -51.6419 H         1 UNK         0.3000 
    226 H226       -4.2647  -18.5483  -51.9550 H         1 UNK         0.0600 
    227 H227       -6.2852  -20.8424  -52.1033 H         1 UNK         0.0600 
    228 H228       -5.7906  -20.0143  -50.6261 H         1 UNK         0.0600 
    229 H229       -6.6609  -19.1420  -51.8728 H         1 UNK         0.0600 
    230 H230       -3.9248  -21.1064  -54.2745 H         1 UNK         0.3000 
    231 H231       -5.2766  -19.7653  -56.4845 H         1 UNK         0.0600 
    232 H232       -3.3494  -22.1495  -56.4226 H         1 UNK         0.0600 
    233 H233       -4.3287  -21.6493  -57.7955 H         1 UNK         0.0600 
    234 H234       -5.1082  -22.2533  -56.3419 H         1 UNK         0.0600 
    235 H235       -2.2435  -19.3332  -54.9107 H         1 UNK         0.3000 
    236 H236       -0.9696  -18.1229  -57.3397 H         1 UNK         0.0600 
    237 H237        0.2535  -20.1166  -56.5948 H         1 UNK         0.0600 
    238 H238        1.1869  -18.6802  -56.2038 H         1 UNK         0.0600 
    239 H239        0.3085  -19.5290  -54.9363 H         1 UNK         0.0600 
    240 H240       -0.8660  -17.9444  -53.7403 H         1 UNK         0.3000 
    241 H241       -0.2486  -16.3729  -52.3513 H         1 UNK         0.0600 
    242 H242        1.7198  -13.3377  -53.7209 H         1 UNK         0.3800 
    243 H243        0.0743  -13.2762  -53.1661 H         1 UNK         0.3800 
    244 H244       -2.1369  -14.6240  -53.9997 H         1 UNK         0.0800 
    245 H245       -1.5217  -14.1554  -52.4355 H         1 UNK         0.0800 
    246 H246       -2.4891  -14.7393  -50.2187 H         1 UNK         0.0800 
    247 H247       -1.5202  -16.1742  -50.4199 H         1 UNK         0.0800 
@<TRIPOS>BOND
     1    1    2 1    
     2    1  127 1    
     3    1  128 1    
     4    1  129 1    
     5    2    3 2    
     6    2    4 am   BACKBONE|DICT|INTERRES
     7    4    5 1    
     8    4  130 1    
     9    5    6 1    
    10    5   65 1    
    11    5  131 1    
    12    6    7 1    
    13    6  132 1    
    14    6  133 1    
    15    7    8 1    
    16    8    9 1    
    17    8  134 1    
    18    8  135 1    
    19    9   10 ar   
    20    9   14 ar   
    21   10   11 ar   
    22   10  136 1    
    23   11   12 ar   
    24   11  126 1    
    25   12   13 ar   
    26   12  137 1    
    27   13   14 ar   
    28   13   15 1    
    29   14  138 1    
    30   15   16 1    
    31   15  139 1    
    32   15  140 1    
    33   16   17 1    
    34   17   18 1    
    35   17  141 1    
    36   17  142 1    
    37   18   19 1    
    38   18   67 1    
    39   18  143 1    
    40   19   20 am   BACKBONE|DICT|INTERRES
    41   19  144 1    
    42   20   21 2    
    43   20   22 1    
    44   22   23 1    
    45   22   24 1    
    46   22  145 1    
    47   23  146 1    
    48   23  147 1    
    49   23  148 1    
    50   24   25 am   BACKBONE|DICT|INTERRES
    51   24  149 1    
    52   25   26 2    
    53   25   27 1    
    54   27   28 1    
    55   27   29 1    
    56   27  150 1    
    57   28  151 1    
    58   28  152 1    
    59   28  153 1    
    60   29   30 am   BACKBONE|DICT|INTERRES
    61   29  154 1    
    62   30   31 2    
    63   30   32 1    
    64   32   33 1    
    65   32   34 1    
    66   32  155 1    
    67   33  156 1    
    68   33  157 1    
    69   33  158 1    
    70   34   35 am   BACKBONE|DICT|INTERRES
    71   34  159 1    
    72   35   36 2    
    73   35   37 1    
    74   37   38 1    
    75   37   39 1    
    76   37  160 1    
    77   38  161 1    
    78   38  162 1    
    79   38  163 1    
    80   39   40 am   BACKBONE|DICT|INTERRES
    81   39  164 1    
    82   40   41 2    
    83   40   42 1    
    84   42   43 1    
    85   42   44 1    
    86   42  165 1    
    87   43  166 1    
    88   43  167 1    
    89   43  168 1    
    90   44   45 am   BACKBONE|DICT|INTERRES
    91   44  169 1    
    92   45   46 2    
    93   45   47 1    
    94   47   48 1    
    95   47   49 1    
    96   47  170 1    
    97   48  171 1    
    98   48  172 1    
    99   48  173 1    
   100   49   50 am   BACKBONE|DICT|INTERRES
   101   49  174 1    
   102   50   51 2    
   103   50   52 1    
   104   52   53 1    
   105   52   54 1    
   106   52  175 1    
   107   53  176 1    
   108   53  177 1    
   109   53  178 1    
   110   54   55 am   BACKBONE|DICT|INTERRES
   111   54  179 1    
   112   55   56 2    
   113   55   57 1    
   114   57   58 1    
   115   57   59 1    
   116   57  180 1    
   117   58  181 1    
   118   58  182 1    
   119   58  183 1    
   120   59   60 am   BACKBONE|DICT|INTERRES
   121   59  184 1    
   122   60   61 2    
   123   60   62 1    
   124   62   63 1    
   125   62   64 1    
   126   62  185 1    
   127   63  186 1    
   128   63  187 1    
   129   63  188 1    
   130   64   65 am   BACKBONE|DICT|INTERRES
   131   64  189 1    
   132   65   66 2    
   133   67   68 2    
   134   67   69 am   BACKBONE|DICT|INTERRES
   135   69   70 1    
   136   69  190 1    
   137   70   71 1    
   138   70   72 1    
   139   70  191 1    
   140   71  192 1    
   141   71  193 1    
   142   71  194 1    
   143   72   73 2    
   144   72   74 am   BACKBONE|DICT|INTERRES
   145   74   75 1    
   146   74  195 1    
   147   75   76 1    
   148   75   77 1    
   149   75  196 1    
   150   76  197 1    
   151   76  198 1    
   152   76  199 1    
   153   77   78 2    
   154   77   79 am   BACKBONE|DICT|INTERRES
   155   79   80 1    
   156   79  200 1    
   157   80   81 1    
   158   80   82 1    
   159   80  201 1    
   160   81  202 1    
   161   81  203 1    
   162   81  204 1    
   163   82   83 2    
   164   82   84 am   BACKBONE|DICT|INTERRES
   165   84   85 1    
   166   84  205 1    
   167   85   86 1    
   168   85   87 1    
   169   85  206 1    
   170   86  207 1    
   171   86  208 1    
   172   86  209 1    
   173   87   88 2    
   174   87   89 am   BACKBONE|DICT|INTERRES
   175   89   90 1    
   176   89  210 1    
   177   90   91 1    
   178   90   92 1    
   179   90  211 1    
   180   91  212 1    
   181   91  213 1    
   182   91  214 1    
   183   92   93 2    
   184   92   94 am   BACKBONE|DICT|INTERRES
   185   94   95 1    
   186   94  215 1    
   187   95   96 1    
   188   95   97 1    
   189   95  216 1    
   190   96  217 1    
   191   96  218 1    
   192   96  219 1    
   193   97   98 2    
   194   97   99 am   BACKBONE|DICT|INTERRES
   195   99  100 1    
   196   99  220 1    
   197  100  101 1    
   198  100  102 1    
   199  100  221 1    
   200  101  222 1    
   201  101  223 1    
   202  101  224 1    
   203  102  103 2    
   204  102  104 am   BACKBONE|DICT|INTERRES
   205  104  105 1    
   206  104  225 1    
   207  105  106 1    
   208  105  107 1    
   209  105  226 1    
   210  106  227 1    
   211  106  228 1    
   212  106  229 1    
   213  107  108 2    
   214  107  109 am   BACKBONE|DICT|INTERRES
   215  109  110 1    
   216  109  230 1    
   217  110  111 1    
   218  110  112 1    
   219  110  231 1    
   220  111  232 1    
   221  111  233 1    
   222  111  234 1    
   223  112  113 2    
   224  112  114 am   BACKBONE|DICT|INTERRES
   225  114  115 1    
   226  114  235 1    
   227  115  116 1    
   228  115  117 1    
   229  115  236 1    
   230  116  237 1    
   231  116  238 1    
   232  116  239 1    
   233  117  118 2    
   234  117  119 am   BACKBONE|DICT|INTERRES
   235  119  120 1    
   236  119  240 1    
   237  120  121 1    
   238  120  124 1    
   239  120  241 1    
   240  121  122 am   BACKBONE|DICT|INTERRES
   241  121  123 2    
   242  122  242 1    
   243  122  243 1    
   244  124  125 1    
   245  124  244 1    
   246  124  245 1    
   247  125  126 1    
   248  126  246 1    
   249  126  247 1    
@<TRIPOS>SUBSTRUCTURE
     1 UNK         1 GROUP             0       ****    0 ROOT    
