@<TRIPOS>MOLECULE
3R540
247   249    1
SMALL
USER_CHARGES


@<TRIPOS>ATOM
      1 CA          4.5623  -16.6302  -42.6071 C.3       0 UNK        -0.1800 
      2 C           3.8807  -15.4781  -43.3297 C.2       0 UNK         0.5000 
      3 O           3.0531  -14.7857  -42.7393 O.2       0 UNK        -0.5000 
      4 N           4.2270  -15.2608  -44.6033 N.am      1 UNK        -0.5000 
      5 CA          3.6492  -14.2504  -45.5016 C.3       1 UNK         0.1400 
      6 C6          3.8117  -14.6539  -46.9916 C.3       23 UNK        -0.0398 
      7 S7          3.1885  -16.3350  -47.3301 S.3       23 UNK        -0.2404 
      8 C8          1.8572  -16.0291  -48.5336 C.3       23 UNK        -0.0205 
      9 C9          1.0800  -17.3042  -48.8364 C.ar      23 UNK        -0.0193 
     10 C10        -0.3103  -17.3388  -48.6873 C.ar      23 UNK        -0.1150 
     11 C11        -1.0239  -18.5144  -48.9428 C.ar      23 UNK        -0.0193 
     12 C12        -0.3359  -19.6632  -49.3414 C.ar      23 UNK        -0.1150 
     13 C13         1.0520  -19.6422  -49.4969 C.ar      23 UNK        -0.0193 
     14 C14         1.7505  -18.4560  -49.2615 C.ar      23 UNK        -0.1150 
     15 C15         1.7975  -20.9017  -49.9063 C.3       23 UNK        -0.0205 
     16 S16         2.7727  -21.5642  -48.5177 S.3       23 UNK        -0.2404 
     17 C17         2.8848  -23.3273  -48.9671 C.3       23 UNK        -0.0398 
     18 CA          1.9608  -24.2608  -48.1467 C.3       11 UNK         0.1400 
     19 N           2.2966  -24.3155  -46.7218 N.am      11 UNK        -0.5000 
     20 C           1.9472  -25.3367  -45.9261 C.2       10 UNK         0.5000 
     21 O           1.3078  -26.3167  -46.3131 O.2       10 UNK        -0.5000 
     22 CA          2.3512  -25.2308  -44.4453 C.3       10 UNK         0.1400 
     23 CB          3.8709  -25.3827  -44.2746 C.3       10 UNK        -0.1800 
     24 N           1.9106  -23.9844  -43.8188 N.am      10 UNK        -0.5000 
     25 C           0.6307  -23.6122  -43.6795 C.2       9 UNK         0.5000 
     26 O          -0.3233  -24.2625  -44.1022 O.2       9 UNK        -0.5000 
     27 CA          0.3645  -22.2790  -42.9593 C.3       9 UNK         0.1400 
     28 CB          0.2400  -22.5038  -41.4449 C.3       9 UNK        -0.1800 
     29 N           1.3636  -21.2385  -43.2112 N.am      9 UNK        -0.5000 
     30 C           1.6686  -20.7444  -44.4173 C.2       8 UNK         0.5000 
     31 O           1.2341  -21.1984  -45.4780 O.2       8 UNK        -0.5000 
     32 CA          2.5707  -19.5004  -44.4314 C.3       8 UNK         0.1400 
     33 CB          3.8153  -19.6999  -45.3077 C.3       8 UNK        -0.1800 
     34 N           1.7963  -18.3786  -44.9453 N.am      8 UNK        -0.5000 
     35 C           0.9281  -17.6645  -44.2227 C.2       7 UNK         0.5000 
     36 O           0.7988  -17.7603  -42.9997 O.2       7 UNK        -0.5000 
     37 CA          0.0152  -16.7237  -45.0121 C.3       7 UNK         0.1400 
     38 CB         -1.2942  -17.4391  -45.3831 C.3       7 UNK        -0.1800 
     39 N          -0.2928  -15.5432  -44.2141 N.am      7 UNK        -0.5000 
     40 C          -0.4679  -14.3190  -44.7183 C.2       6 UNK         0.5000 
     41 O          -0.3407  -14.0517  -45.9164 O.2       6 UNK        -0.5000 
     42 CA         -0.8324  -13.2092  -43.7132 C.3       6 UNK         0.1400 
     43 CB          0.4118  -12.7200  -42.9567 C.3       6 UNK        -0.1800 
     44 N          -1.4293  -12.0661  -44.3987 N.am      6 UNK        -0.5000 
     45 C          -2.7022  -11.9978  -44.8163 C.2       5 UNK         0.5000 
     46 O          -3.5521  -12.8525  -44.5631 O.2       5 UNK        -0.5000 
     47 CA         -3.0860  -10.7784  -45.6717 C.3       5 UNK         0.1400 
     48 CB         -3.5709   -9.6295  -44.7649 C.3       5 UNK        -0.1800 
     49 N          -1.9426  -10.3662  -46.4835 N.am      5 UNK        -0.5000 
     50 C          -1.8920   -9.4211  -47.4240 C.2       4 UNK         0.5000 
     51 O          -2.8625   -8.7489  -47.7773 O.2       4 UNK        -0.5000 
     52 CA         -0.4974   -9.1863  -48.0499 C.3       4 UNK         0.1400 
     53 CB         -0.5214   -8.1367  -49.1759 C.3       4 UNK        -0.1800 
     54 N           0.5025   -8.7828  -47.0531 N.am      4 UNK        -0.5000 
     55 C           1.0621   -9.5786  -46.1330 C.2       3 UNK         0.5000 
     56 O           0.7963  -10.7791  -46.0106 O.2       3 UNK        -0.5000 
     57 CA          2.0444   -8.9216  -45.1558 C.3       3 UNK         0.1400 
     58 CB          1.2958   -8.1074  -44.0854 C.3       3 UNK        -0.1800 
     59 N           2.8134   -9.9814  -44.5176 N.am      3 UNK        -0.5000 
     60 C           4.0332   -9.8689  -43.9864 C.2       2 UNK         0.5000 
     61 O           4.6577   -8.8087  -43.9288 O.2       2 UNK        -0.5000 
     62 CA          4.6673  -11.1552  -43.4195 C.3       2 UNK         0.1400 
     63 CB          4.5401  -11.1827  -41.8885 C.3       2 UNK        -0.1800 
     64 N           4.1019  -12.3980  -43.9537 N.am      2 UNK        -0.5000 
     65 C           4.2332  -12.8468  -45.2088 C.2       1 UNK         0.5000 
     66 O           4.8161  -12.2165  -46.0925 O.2       1 UNK        -0.5000 
     67 C           0.4634  -23.9710  -48.3666 C.2       11 UNK         0.5000 
     68 O          -0.1179  -24.5276  -49.2962 O.2       11 UNK        -0.5000 
     69 N          -0.1461  -23.1517  -47.4944 N.am      12 UNK        -0.5000 
     70 CA         -1.5771  -22.8487  -47.5168 C.3       12 UNK         0.1400 
     71 CB         -1.8963  -21.7482  -46.4955 C.3       12 UNK        -0.1800 
     72 C          -2.4481  -24.0949  -47.2821 C.2       12 UNK         0.5000 
     73 O          -3.4255  -24.2863  -48.0053 O.2       12 UNK        -0.5000 
     74 N          -2.0553  -24.9407  -46.3182 N.am      13 UNK        -0.5000 
     75 CA         -2.6943  -26.2255  -46.0346 C.3       13 UNK         0.1400 
     76 CB         -2.1524  -26.8023  -44.7185 C.3       13 UNK        -0.1800 
     77 C          -2.5200  -27.2360  -47.1805 C.2       13 UNK         0.5000 
     78 O          -3.4893  -27.9011  -47.5451 O.2       13 UNK        -0.5000 
     79 N          -1.3087  -27.3079  -47.7532 N.am      14 UNK        -0.5000 
     80 CA         -0.9842  -28.1660  -48.8976 C.3       14 UNK         0.1400 
     81 CB          0.5305  -28.1363  -49.1497 C.3       14 UNK        -0.1800 
     82 C          -1.7579  -27.7811  -50.1740 C.2       14 UNK         0.5000 
     83 O          -2.2157  -28.6623  -50.9019 O.2       14 UNK        -0.5000 
     84 N          -1.9195  -26.4711  -50.3973 N.am      15 UNK        -0.5000 
     85 CA         -2.7105  -25.8854  -51.4793 C.3       15 UNK         0.1400 
     86 CB         -2.2678  -24.4244  -51.6557 C.3       15 UNK        -0.1800 
     87 C          -4.2323  -25.9396  -51.2363 C.2       15 UNK         0.5000 
     88 O          -4.9957  -25.6343  -52.1554 O.2       15 UNK        -0.5000 
     89 N          -4.6402  -26.2591  -49.9972 N.am      16 UNK        -0.5000 
     90 CA         -6.0055  -26.2112  -49.4607 C.3       16 UNK         0.1400 
     91 CB         -6.8635  -27.3353  -50.0756 C.3       16 UNK        -0.1800 
     92 C          -6.6451  -24.8136  -49.6139 C.2       16 UNK         0.5000 
     93 O          -7.8385  -24.7061  -49.9025 O.2       16 UNK        -0.5000 
     94 N          -5.8085  -23.7712  -49.4892 N.am      17 UNK        -0.5000 
     95 CA         -6.0168  -22.3512  -49.8007 C.3       17 UNK         0.1400 
     96 CB         -7.0921  -21.7311  -48.8906 C.3       17 UNK        -0.1800 
     97 C          -6.3102  -22.0536  -51.2874 C.2       17 UNK         0.5000 
     98 O          -5.7528  -21.1011  -51.8338 O.2       17 UNK        -0.5000 
     99 N          -7.1720  -22.8631  -51.9124 N.am      18 UNK        -0.5000 
    100 CA        -7.6949  -22.7209  -53.2684 C.3       18 UNK         0.1400 
    101 CB        -8.6912  -23.8573  -53.5428 C.3       18 UNK        -0.1800 
    102 C         -6.6178  -22.6694  -54.3632 C.2       18 UNK         0.5000 
    103 O         -6.6765  -21.7831  -55.2159 O.2       18 UNK        -0.5000 
    104 N         -5.6361  -23.5827  -54.3143 N.am      19 UNK        -0.5000 
    105 CA        -4.5645  -23.6602  -55.3161 C.3       19 UNK         0.1400 
    106 CB        -3.8874  -25.0372  -55.2525 C.3       19 UNK        -0.1800 
    107 C         -3.5301  -22.5221  -55.1968 C.2       19 UNK         0.5000 
    108 O         -2.8164  -22.2511  -56.1628 O.2       19 UNK        -0.5000 
    109 N         -3.4865  -21.8621  -54.0319 N.am      20 UNK        -0.5000 
    110 CA        -2.6813  -20.6687  -53.7700 C.3       20 UNK         0.1400 
    111 CB        -2.2108  -20.7080  -52.3062 C.3       20 UNK        -0.1800 
    112 C         -3.4564  -19.3673  -54.0681 C.2       20 UNK         0.5000 
    113 O         -2.8672  -18.2893  -53.9876 O.2       20 UNK        -0.5000 
    114 N         -4.7535  -19.4883  -54.3980 N.am      21 UNK        -0.5000 
    115 CA        -5.7336  -18.4175  -54.6080 C.3       21 UNK         0.1400 
    116 CB        -5.3551  -17.5414  -55.8206 C.3       21 UNK        -0.1800 
    117 C         -6.0188  -17.5995  -53.3291 C.2       21 UNK         0.5000 
    118 O         -6.3582  -16.4177  -53.4158 O.2       21 UNK        -0.5000 
    119 N         -5.8902  -18.2486  -52.1656 N.am      22 UNK        -0.5000 
    120 CA        -6.1173  -17.6630  -50.8348 C.3       22 UNK         0.1400 
    121 C         -7.5818  -17.8153  -50.3293 C.2       22 UNK         0.5000 
    122 N         -8.4647  -18.5114  -51.0358 N.am      22 UNK        -0.7600 
    123 O         -7.9284  -17.2823  -49.2790 O.2       22 UNK        -0.5000 
    124 C124       -5.1127  -18.2158  -49.7912 C.3       23 UNK        -0.0398 
    125 S125       -3.3769  -17.8899  -50.2413 S.3       23 UNK        -0.2404 
    126 C126       -2.5347  -18.5513  -48.7749 C.3       23 UNK        -0.0205 
    127 H127        3.8133  -17.2911  -42.1710 H         1 UNK         0.0600 
    128 H128        5.1852  -17.2195  -43.2802 H         1 UNK         0.0600 
    129 H129        5.1913  -16.2485  -41.8030 H         1 UNK         0.0600 
    130 H130        4.9279  -15.8521  -45.0263 H         1 UNK         0.3000 
    131 H131        2.5775  -14.1905  -45.3004 H         1 UNK         0.0600 
    132 H132        4.8627  -14.6285  -47.2848 H         1 UNK         0.0800 
    133 H133        3.2977  -13.9387  -47.6362 H         1 UNK         0.0800 
    134 H134        1.1924  -15.2572  -48.1413 H         1 UNK         0.0800 
    135 H135        2.2845  -15.6402  -49.4587 H         1 UNK         0.0800 
    136 H136       -0.8408  -16.4521  -48.3690 H         1 UNK         0.1150 
    137 H137       -0.8822  -20.5751  -49.5317 H         1 UNK         0.1150 
    138 H138        2.8250  -18.4397  -49.3795 H         1 UNK         0.1150 
    139 H139        1.0904  -21.6544  -50.2583 H         1 UNK         0.0800 
    140 H140        2.4610  -20.6833  -50.7442 H         1 UNK         0.0800 
    141 H141        2.6892  -23.4474  -50.0340 H         1 UNK         0.0800 
    142 H142        3.9214  -23.6374  -48.8294 H         1 UNK         0.0800 
    143 H143        2.1324  -25.2626  -48.5464 H         1 UNK         0.0600 
    144 H144        2.7676  -23.5117  -46.3318 H         1 UNK         0.3000 
    145 H145        1.8690  -26.0550  -43.9153 H         1 UNK         0.0600 
    146 H146        4.1464  -25.4202  -43.2204 H         1 UNK         0.0600 
    147 H147        4.2248  -26.3066  -44.7341 H         1 UNK         0.0600 
    148 H148        4.4161  -24.5573  -44.7340 H         1 UNK         0.0600 
    149 H149        2.6279  -23.3765  -43.4524 H         1 UNK         0.3000 
    150 H150       -0.5933  -21.9011  -43.3218 H         1 UNK         0.0600 
    151 H151       -0.5150  -23.2593  -41.2226 H         1 UNK         0.0600 
    152 H152       -0.0588  -21.5888  -40.9329 H         1 UNK         0.0600 
    153 H153        1.1810  -22.8417  -41.0092 H         1 UNK         0.0600 
    154 H154        1.7522  -20.7909  -42.3937 H         1 UNK         0.3000 
    155 H155        2.9054  -19.2823  -43.4153 H         1 UNK         0.0600 
    156 H156        4.4862  -18.8441  -45.2340 H         1 UNK         0.0600 
    157 H157        3.5524  -19.8202  -46.3579 H         1 UNK         0.0600 
    158 H158        4.3756  -20.5840  -45.0015 H         1 UNK         0.0600 
    159 H159        1.8155  -18.2588  -45.9489 H         1 UNK         0.3000 
    160 H160        0.5366  -16.4310  -45.9241 H         1 UNK         0.0600 
    161 H161       -1.9355  -16.7952  -45.9846 H         1 UNK         0.0600 
    162 H162       -1.8556  -17.7352  -44.4962 H         1 UNK         0.0600 
    163 H163       -1.0963  -18.3426  -45.9610 H         1 UNK         0.0600 
    164 H164       -0.3276  -15.6995  -43.2149 H         1 UNK         0.3000 
    165 H165       -1.5498  -13.6065  -42.9919 H         1 UNK         0.0600 
    166 H166        1.2042  -12.4159  -43.6403 H         1 UNK         0.0600 
    167 H167        0.1790  -11.8712  -42.3134 H         1 UNK         0.0600 
    168 H168        0.8094  -13.5071  -42.3164 H         1 UNK         0.0600 
    169 H169       -0.7765  -11.3505  -44.6859 H         1 UNK         0.3000 
    170 H170       -3.8953  -11.0760  -46.3411 H         1 UNK         0.0600 
    171 H171       -4.3715   -9.9651  -44.1044 H         1 UNK         0.0600 
    172 H172       -2.7649   -9.2476  -44.1371 H         1 UNK         0.0600 
    173 H173       -3.9666   -8.7966  -45.3454 H         1 UNK         0.0600 
    174 H174       -1.0782  -10.8729  -46.3135 H         1 UNK         0.3000 
    175 H175       -0.1809  -10.1343  -48.4904 H         1 UNK         0.0600 
    176 H176       -0.8163   -7.1542  -48.8053 H         1 UNK         0.0600 
    177 H177        0.4581   -8.0386  -49.6443 H         1 UNK         0.0600 
    178 H178       -1.2262   -8.4187  -49.9592 H         1 UNK         0.0600 
    179 H179        0.7481   -7.8032  -47.0543 H         1 UNK         0.3000 
    180 H180        2.7145   -8.2712  -45.7218 H         1 UNK         0.0600 
    181 H181        0.6143   -8.7344  -43.5088 H         1 UNK         0.0600 
    182 H182        0.7059   -7.3091  -44.5372 H         1 UNK         0.0600 
    183 H183        1.9899   -7.6395  -43.3871 H         1 UNK         0.0600 
    184 H184        2.3895  -10.8969  -44.5902 H         1 UNK         0.3000 
    185 H185        5.7288  -11.1332  -43.6746 H         1 UNK         0.0600 
    186 H186        4.9773  -10.2887  -41.4418 H         1 UNK         0.0600 
    187 H187        3.4966  -11.2312  -41.5742 H         1 UNK         0.0600 
    188 H188        5.0584  -12.0432  -41.4647 H         1 UNK         0.0600 
    189 H189        3.6404  -13.0137  -43.2898 H         1 UNK         0.3000 
    190 H190        0.4070  -22.6937  -46.7776 H         1 UNK         0.3000 
    191 H191       -1.8184  -22.4673  -48.5105 H         1 UNK         0.0600 
    192 H192       -2.9509  -21.4726  -46.5341 H         1 UNK         0.0600 
    193 H193       -1.3157  -20.8468  -46.6927 H         1 UNK         0.0600 
    194 H194       -1.6765  -22.0697  -45.4778 H         1 UNK         0.0600 
    195 H195       -1.2664  -24.6906  -45.7280 H         1 UNK         0.3000 
    196 H196       -3.7644  -26.0469  -45.9095 H         1 UNK         0.0600 
    197 H197       -2.6129  -27.7649  -44.4928 H         1 UNK         0.0600 
    198 H198       -2.3646  -26.1371  -43.8813 H         1 UNK         0.0600 
    199 H199       -1.0730  -26.9543  -44.7596 H         1 UNK         0.0600 
    200 H200       -0.5537  -26.7484  -47.3733 H         1 UNK         0.3000 
    201 H201       -1.2642  -29.1884  -48.6357 H         1 UNK         0.0600 
    202 H202        1.0849  -28.4504  -48.2651 H         1 UNK         0.0600 
    203 H203        0.8732  -27.1387  -49.4237 H         1 UNK         0.0600 
    204 H204        0.8035  -28.8109  -49.9620 H         1 UNK         0.0600 
    205 H205       -1.4390  -25.8116  -49.7901 H         1 UNK         0.3000 
    206 H206       -2.5018  -26.4298  -52.4021 H         1 UNK         0.0600 
    207 H207       -1.2138  -24.3596  -51.9261 H         1 UNK         0.0600 
    208 H208       -2.8350  -23.9315  -52.4417 H         1 UNK         0.0600 
    209 H209       -2.4160  -23.8471  -50.7421 H         1 UNK         0.0600 
    210 H210       -3.9234  -26.4753  -49.3171 H         1 UNK         0.3000 
    211 H211       -5.9236  -26.3974  -48.3890 H         1 UNK         0.0600 
    212 H212       -7.0284  -27.1806  -51.1425 H         1 UNK         0.0600 
    213 H213       -7.8418  -27.3880  -49.5967 H         1 UNK         0.0600 
    214 H214       -6.3872  -28.3073  -49.9473 H         1 UNK         0.0600 
    215 H215       -4.8650  -23.9977  -49.1813 H         1 UNK         0.3000 
    216 H216       -5.0691  -21.8618  -49.5702 H         1 UNK         0.0600 
    217 H217       -8.0731  -22.1775  -49.0543 H         1 UNK         0.0600 
    218 H218       -7.1916  -20.6610  -49.0732 H         1 UNK         0.0600 
    219 H219       -6.8371  -21.8590  -47.8386 H         1 UNK         0.0600 
    220 H220       -7.5626  -23.6196  -51.3560 H         1 UNK         0.3000 
    221 H221       -8.2409  -21.7762  -53.3037 H         1 UNK         0.0600 
    222 H222       -8.2163  -24.8360  -53.4606 H         1 UNK         0.0600 
    223 H223       -9.5229  -23.8301  -52.8385 H         1 UNK         0.0600 
    224 H224       -9.1122  -23.7773  -54.5460 H         1 UNK         0.0600 
    225 H225       -5.6223  -24.2714  -53.5673 H         1 UNK         0.3000 
    226 H226       -5.0228  -23.5700  -56.3035 H         1 UNK         0.0600 
    227 H227       -4.6161  -25.8415  -55.3546 H         1 UNK         0.0600 
    228 H228       -3.1625  -25.1510  -56.0594 H         1 UNK         0.0600 
    229 H229       -3.3544  -25.1859  -54.3163 H         1 UNK         0.0600 
    230 H230       -4.1365  -22.1280  -53.3049 H         1 UNK         0.3000 
    231 H231       -1.7953  -20.6720  -54.4081 H         1 UNK         0.0600 
    232 H232       -3.0501  -20.7248  -51.6105 H         1 UNK         0.0600 
    233 H233       -1.6062  -19.8322  -52.0672 H         1 UNK         0.0600 
    234 H234       -1.5943  -21.5852  -52.1120 H         1 UNK         0.0600 
    235 H235       -5.1361  -20.4236  -54.4548 H         1 UNK         0.3000 
    236 H236       -6.6708  -18.9194  -54.8521 H         1 UNK         0.0600 
    237 H237       -5.1578  -18.1521  -56.7016 H         1 UNK         0.0600 
    238 H238       -6.1655  -16.8580  -56.0762 H         1 UNK         0.0600 
    239 H239       -4.4696  -16.9363  -55.6252 H         1 UNK         0.0600 
    240 H240       -5.6441  -19.2348  -52.1758 H         1 UNK         0.3000 
    241 H241       -5.9458  -16.5869  -50.8993 H         1 UNK         0.0600 
    242 H242       -8.1954  -18.9444  -51.9037 H         1 UNK         0.3800 
    243 H243       -9.4124  -18.5945  -50.7031 H         1 UNK         0.3800 
    244 H244       -5.2933  -17.7696  -48.8116 H         1 UNK         0.0800 
    245 H245       -5.2415  -19.2917  -49.6712 H         1 UNK         0.0800 
    246 H246       -2.8692  -19.5744  -48.5962 H         1 UNK         0.0800 
    247 H247       -2.8286  -17.9720  -47.8995 H         1 UNK         0.0800 
@<TRIPOS>BOND
     1    1    2 1    
     2    1  127 1    
     3    1  128 1    
     4    1  129 1    
     5    2    3 2    
     6    2    4 am   BACKBONE|DICT|INTERRES
     7    4    5 1    
     8    4  130 1    
     9    5    6 1    
    10    5   65 1    
    11    5  131 1    
    12    6    7 1    
    13    6  132 1    
    14    6  133 1    
    15    7    8 1    
    16    8    9 1    
    17    8  134 1    
    18    8  135 1    
    19    9   10 ar   
    20    9   14 ar   
    21   10   11 ar   
    22   10  136 1    
    23   11   12 ar   
    24   11  126 1    
    25   12   13 ar   
    26   12  137 1    
    27   13   14 ar   
    28   13   15 1    
    29   14  138 1    
    30   15   16 1    
    31   15  139 1    
    32   15  140 1    
    33   16   17 1    
    34   17   18 1    
    35   17  141 1    
    36   17  142 1    
    37   18   19 1    
    38   18   67 1    
    39   18  143 1    
    40   19   20 am   BACKBONE|DICT|INTERRES
    41   19  144 1    
    42   20   21 2    
    43   20   22 1    
    44   22   23 1    
    45   22   24 1    
    46   22  145 1    
    47   23  146 1    
    48   23  147 1    
    49   23  148 1    
    50   24   25 am   BACKBONE|DICT|INTERRES
    51   24  149 1    
    52   25   26 2    
    53   25   27 1    
    54   27   28 1    
    55   27   29 1    
    56   27  150 1    
    57   28  151 1    
    58   28  152 1    
    59   28  153 1    
    60   29   30 am   BACKBONE|DICT|INTERRES
    61   29  154 1    
    62   30   31 2    
    63   30   32 1    
    64   32   33 1    
    65   32   34 1    
    66   32  155 1    
    67   33  156 1    
    68   33  157 1    
    69   33  158 1    
    70   34   35 am   BACKBONE|DICT|INTERRES
    71   34  159 1    
    72   35   36 2    
    73   35   37 1    
    74   37   38 1    
    75   37   39 1    
    76   37  160 1    
    77   38  161 1    
    78   38  162 1    
    79   38  163 1    
    80   39   40 am   BACKBONE|DICT|INTERRES
    81   39  164 1    
    82   40   41 2    
    83   40   42 1    
    84   42   43 1    
    85   42   44 1    
    86   42  165 1    
    87   43  166 1    
    88   43  167 1    
    89   43  168 1    
    90   44   45 am   BACKBONE|DICT|INTERRES
    91   44  169 1    
    92   45   46 2    
    93   45   47 1    
    94   47   48 1    
    95   47   49 1    
    96   47  170 1    
    97   48  171 1    
    98   48  172 1    
    99   48  173 1    
   100   49   50 am   BACKBONE|DICT|INTERRES
   101   49  174 1    
   102   50   51 2    
   103   50   52 1    
   104   52   53 1    
   105   52   54 1    
   106   52  175 1    
   107   53  176 1    
   108   53  177 1    
   109   53  178 1    
   110   54   55 am   BACKBONE|DICT|INTERRES
   111   54  179 1    
   112   55   56 2    
   113   55   57 1    
   114   57   58 1    
   115   57   59 1    
   116   57  180 1    
   117   58  181 1    
   118   58  182 1    
   119   58  183 1    
   120   59   60 am   BACKBONE|DICT|INTERRES
   121   59  184 1    
   122   60   61 2    
   123   60   62 1    
   124   62   63 1    
   125   62   64 1    
   126   62  185 1    
   127   63  186 1    
   128   63  187 1    
   129   63  188 1    
   130   64   65 am   BACKBONE|DICT|INTERRES
   131   64  189 1    
   132   65   66 2    
   133   67   68 2    
   134   67   69 am   BACKBONE|DICT|INTERRES
   135   69   70 1    
   136   69  190 1    
   137   70   71 1    
   138   70   72 1    
   139   70  191 1    
   140   71  192 1    
   141   71  193 1    
   142   71  194 1    
   143   72   73 2    
   144   72   74 am   BACKBONE|DICT|INTERRES
   145   74   75 1    
   146   74  195 1    
   147   75   76 1    
   148   75   77 1    
   149   75  196 1    
   150   76  197 1    
   151   76  198 1    
   152   76  199 1    
   153   77   78 2    
   154   77   79 am   BACKBONE|DICT|INTERRES
   155   79   80 1    
   156   79  200 1    
   157   80   81 1    
   158   80   82 1    
   159   80  201 1    
   160   81  202 1    
   161   81  203 1    
   162   81  204 1    
   163   82   83 2    
   164   82   84 am   BACKBONE|DICT|INTERRES
   165   84   85 1    
   166   84  205 1    
   167   85   86 1    
   168   85   87 1    
   169   85  206 1    
   170   86  207 1    
   171   86  208 1    
   172   86  209 1    
   173   87   88 2    
   174   87   89 am   BACKBONE|DICT|INTERRES
   175   89   90 1    
   176   89  210 1    
   177   90   91 1    
   178   90   92 1    
   179   90  211 1    
   180   91  212 1    
   181   91  213 1    
   182   91  214 1    
   183   92   93 2    
   184   92   94 am   BACKBONE|DICT|INTERRES
   185   94   95 1    
   186   94  215 1    
   187   95   96 1    
   188   95   97 1    
   189   95  216 1    
   190   96  217 1    
   191   96  218 1    
   192   96  219 1    
   193   97   98 2    
   194   97   99 am   BACKBONE|DICT|INTERRES
   195   99  100 1    
   196   99  220 1    
   197  100  101 1    
   198  100  102 1    
   199  100  221 1    
   200  101  222 1    
   201  101  223 1    
   202  101  224 1    
   203  102  103 2    
   204  102  104 am   BACKBONE|DICT|INTERRES
   205  104  105 1    
   206  104  225 1    
   207  105  106 1    
   208  105  107 1    
   209  105  226 1    
   210  106  227 1    
   211  106  228 1    
   212  106  229 1    
   213  107  108 2    
   214  107  109 am   BACKBONE|DICT|INTERRES
   215  109  110 1    
   216  109  230 1    
   217  110  111 1    
   218  110  112 1    
   219  110  231 1    
   220  111  232 1    
   221  111  233 1    
   222  111  234 1    
   223  112  113 2    
   224  112  114 am   BACKBONE|DICT|INTERRES
   225  114  115 1    
   226  114  235 1    
   227  115  116 1    
   228  115  117 1    
   229  115  236 1    
   230  116  237 1    
   231  116  238 1    
   232  116  239 1    
   233  117  118 2    
   234  117  119 am   BACKBONE|DICT|INTERRES
   235  119  120 1    
   236  119  240 1    
   237  120  121 1    
   238  120  124 1    
   239  120  241 1    
   240  121  122 am   BACKBONE|DICT|INTERRES
   241  121  123 2    
   242  122  242 1    
   243  122  243 1    
   244  124  125 1    
   245  124  244 1    
   246  124  245 1    
   247  125  126 1    
   248  126  246 1    
   249  126  247 1    
@<TRIPOS>SUBSTRUCTURE
     1 UNK         1 GROUP             0       ****    0 ROOT    
