@<TRIPOS>MOLECULE
3R540
247   249    1
SMALL
USER_CHARGES


@<TRIPOS>ATOM
      1 CA         -2.5736  -13.0422  -46.7223 C.3       0 UNK        -0.1800 
      2 C          -1.1615  -12.8184  -47.2414 C.2       0 UNK         0.5000 
      3 O          -0.2271  -13.4469  -46.7470 O.2       0 UNK        -0.5000 
      4 N          -1.0022  -11.9182  -48.2209 N.am      1 UNK        -0.5000 
      5 CA          0.2351  -11.5418  -48.9261 C.3       1 UNK         0.1400 
      6 C6          0.8813  -12.7017  -49.7307 C.3       23 UNK        -0.0398 
      7 S7         -0.1096  -13.1013  -51.2096 S.3       23 UNK        -0.2404 
      8 C8         -0.9669  -14.6267  -50.7116 C.3       23 UNK        -0.0205 
      9 C9         -0.0959  -15.8628  -50.8776 C.ar      23 UNK        -0.0193 
     10 C10         0.2793  -16.2848  -52.1559 C.ar      23 UNK        -0.1150 
     11 C11         1.0344  -17.4489  -52.3323 C.ar      23 UNK        -0.0193 
     12 C12         1.4035  -18.1921  -51.2074 C.ar      23 UNK        -0.1150 
     13 C13         1.0424  -17.7858  -49.9189 C.ar      23 UNK        -0.0193 
     14 C14         0.3037  -16.6045  -49.7628 C.ar      23 UNK        -0.1150 
     15 C15         1.4917  -18.6526  -48.7399 C.3       23 UNK        -0.0205 
     16 S16         0.6338  -18.3737  -47.1535 S.3       23 UNK        -0.2404 
     17 C17        -1.0815  -18.8432  -47.5468 C.3       23 UNK        -0.0398 
     18 CA         -1.4125  -20.3213  -47.2411 C.3       11 UNK         0.1400 
     19 N          -1.0921  -20.7462  -45.8681 N.am      11 UNK        -0.5000 
     20 C          -1.2734  -21.9875  -45.3818 C.2       10 UNK         0.5000 
     21 O          -1.7261  -22.9218  -46.0442 O.2       10 UNK        -0.5000 
     22 CA         -0.9561  -22.2138  -43.8953 C.3       10 UNK         0.1400 
     23 CB          0.5426  -22.4818  -43.6872 C.3       10 UNK        -0.1800 
     24 N          -1.3762  -21.0652  -43.0951 N.am      10 UNK        -0.5000 
     25 C          -2.6234  -20.8764  -42.6409 C.2       9 UNK         0.5000 
     26 O          -3.5224  -21.7097  -42.7540 O.2       9 UNK        -0.5000 
     27 CA         -2.9326  -19.5246  -41.9640 C.3       9 UNK         0.1400 
     28 CB         -2.7159  -19.6218  -40.4464 C.3       9 UNK        -0.1800 
     29 N          -2.1400  -18.4105  -42.4886 N.am      9 UNK        -0.5000 
     30 C          -2.2102  -17.9451  -43.7432 C.2       8 UNK         0.5000 
     31 O          -3.0009  -18.3725  -44.5849 O.2       8 UNK        -0.5000 
     32 CA         -1.1914  -16.8584  -44.1443 C.3       8 UNK         0.1400 
     33 CB         -1.7819  -15.4587  -43.9316 C.3       8 UNK        -0.1800 
     34 N           0.1164  -16.9358  -43.4818 N.am      8 UNK        -0.5000 
     35 C           0.9043  -18.0183  -43.3878 C.2       7 UNK         0.5000 
     36 O           0.5796  -19.1385  -43.7811 O.2       7 UNK        -0.5000 
     37 CA          2.2886  -17.7815  -42.7596 C.3       7 UNK         0.1400 
     38 CB          3.1255  -19.0673  -42.5916 C.3       7 UNK        -0.1800 
     39 N           2.9995  -16.7439  -43.5062 N.am      7 UNK        -0.5000 
     40 C           3.4840  -16.8075  -44.7560 C.2       6 UNK         0.5000 
     41 O           3.6070  -17.8418  -45.4105 O.2       6 UNK        -0.5000 
     42 CA          3.8906  -15.4651  -45.3894 C.3       6 UNK         0.1400 
     43 CB          2.7150  -14.8982  -46.2017 C.3       6 UNK        -0.1800 
     44 N           4.3063  -14.4869  -44.3804 N.am      6 UNK        -0.5000 
     45 C           5.5191  -14.4699  -43.8084 C.2       5 UNK         0.5000 
     46 O           6.4507  -15.1937  -44.1611 O.2       5 UNK        -0.5000 
     47 CA          5.7203  -13.5061  -42.6242 C.3       5 UNK         0.1400 
     48 CB          6.2986  -12.1644  -43.0959 C.3       5 UNK        -0.1800 
     49 N           4.4815  -13.2763  -41.8761 N.am      5 UNK        -0.5000 
     50 C           3.9763  -14.1491  -40.9906 C.2       4 UNK         0.5000 
     51 O           4.5201  -15.2149  -40.7015 O.2       4 UNK        -0.5000 
     52 CA          2.6313  -13.7963  -40.3259 C.3       4 UNK         0.1400 
     53 CB          2.8652  -13.1145  -38.9695 C.3       4 UNK        -0.1800 
     54 N           1.7710  -12.9430  -41.1455 N.am      4 UNK        -0.5000 
     55 C           1.2213  -13.2979  -42.3133 C.2       3 UNK         0.5000 
     56 O           1.3848  -14.4043  -42.8307 O.2       3 UNK        -0.5000 
     57 CA          0.3707  -12.2413  -43.0472 C.3       3 UNK         0.1400 
     58 CB          0.0339  -10.9975  -42.1944 C.3       3 UNK        -0.1800 
     59 N           0.9798  -11.8323  -44.3161 N.am      3 UNK        -0.5000 
     60 C           2.2072  -11.3185  -44.4976 C.2       2 UNK         0.5000 
     61 O           3.0305  -11.1907  -43.5900 O.2       2 UNK        -0.5000 
     62 CA          2.5757  -10.8647  -45.9231 C.3       2 UNK         0.1400 
     63 CB          4.0418  -11.1628  -46.2888 C.3       2 UNK        -0.1800 
     64 N           1.6752  -11.4343  -46.9276 N.am      2 UNK        -0.5000 
     65 C           1.2615  -10.8092  -48.0339 C.2       1 UNK         0.5000 
     66 O           1.6408   -9.6825  -48.3579 O.2       1 UNK        -0.5000 
     67 C          -2.8833  -20.5894  -47.6118 C.2       11 UNK         0.5000 
     68 O          -3.1574  -20.9836  -48.7443 O.2       11 UNK        -0.5000 
     69 N          -3.7851  -20.4212  -46.6350 N.am      12 UNK        -0.5000 
     70 CA         -5.2219  -20.6872  -46.7137 C.3       12 UNK         0.1400 
     71 CB         -5.8684  -20.2536  -45.3890 C.3       12 UNK        -0.1800 
     72 C          -5.6093  -22.1457  -47.0469 C.2       12 UNK         0.5000 
     73 O          -6.7646  -22.3776  -47.4037 O.2       12 UNK        -0.5000 
     74 N          -4.6676  -23.0923  -46.9328 N.am      13 UNK        -0.5000 
     75 CA         -4.8614  -24.5062  -47.2565 C.3       13 UNK         0.1400 
     76 CB         -4.8588  -25.3100  -45.9451 C.3       13 UNK        -0.1800 
     77 C          -3.8013  -25.0431  -48.2387 C.2       13 UNK         0.5000 
     78 O          -3.7991  -26.2458  -48.5118 O.2       13 UNK        -0.5000 
     79 N          -2.9200  -24.1707  -48.7492 N.am      14 UNK        -0.5000 
     80 CA         -1.7370  -24.5405  -49.5285 C.3       14 UNK         0.1400 
     81 CB         -0.8109  -23.3237  -49.6566 C.3       14 UNK        -0.1800 
     82 C          -2.0306  -25.1509  -50.9105 C.2       14 UNK         0.5000 
     83 O          -1.2329  -25.9604  -51.3835 O.2       14 UNK        -0.5000 
     84 N          -3.1659  -24.7983  -51.5266 N.am      15 UNK        -0.5000 
     85 CA         -3.6168  -25.3380  -52.8125 C.3       15 UNK         0.1400 
     86 CB         -4.3424  -24.2357  -53.6052 C.3       15 UNK        -0.1800 
     87 C          -4.4850  -26.5990  -52.6180 C.2       15 UNK         0.5000 
     88 O          -5.5231  -26.7335  -53.2660 O.2       15 UNK        -0.5000 
     89 N          -4.0435  -27.4938  -51.7206 N.am      16 UNK        -0.5000 
     90 CA         -4.6873  -28.7456  -51.3096 C.3       16 UNK         0.1400 
     91 CB         -4.7317  -29.7532  -52.4779 C.3       16 UNK        -0.1800 
     92 C          -6.0662  -28.4941  -50.6685 C.2       16 UNK         0.5000 
     93 O          -7.0933  -28.8977  -51.2169 O.2       16 UNK        -0.5000 
     94 N          -6.0447  -27.8028  -49.5195 N.am      17 UNK        -0.5000 
     95 CA         -7.2018  -27.3627  -48.7289 C.3       17 UNK         0.1400 
     96 CB         -8.0751  -28.5499  -48.2693 C.3       17 UNK        -0.1800 
     97 C          -8.0048  -26.2351  -49.4123 C.2       17 UNK         0.5000 
     98 O          -9.2137  -26.1180  -49.2050 O.2       17 UNK        -0.5000 
     99 N          -7.3018  -25.4024  -50.1853 N.am      18 UNK        -0.5000 
    100 CA        -7.7819  -24.1601  -50.7779 C.3       18 UNK         0.1400 
    101 CB        -8.2290  -24.4137  -52.2264 C.3       18 UNK        -0.1800 
    102 C         -6.6467  -23.1291  -50.6973 C.2       18 UNK         0.5000 
    103 O         -5.4870  -23.5097  -50.5124 O.2       18 UNK        -0.5000 
    104 N         -6.9933  -21.8435  -50.8024 N.am      19 UNK        -0.5000 
    105 CA        -6.0614  -20.7405  -50.5870 C.3       19 UNK         0.1400 
    106 CB        -6.8562  -19.4578  -50.2982 C.3       19 UNK        -0.1800 
    107 C         -5.0860  -20.5255  -51.7575 C.2       19 UNK         0.5000 
    108 O         -5.5258  -20.4852  -52.9074 O.2       19 UNK        -0.5000 
    109 N         -3.8105  -20.3097  -51.4030 N.am      20 UNK        -0.5000 
    110 CA        -2.6811  -19.8593  -52.2215 C.3       20 UNK         0.1400 
    111 CB        -2.9257  -18.4287  -52.7387 C.3       20 UNK        -0.1800 
    112 C         -2.3116  -20.8268  -53.3624 C.2       20 UNK         0.5000 
    113 O         -2.9499  -20.8217  -54.4163 O.2       20 UNK        -0.5000 
    114 N         -1.2438  -21.6123  -53.1522 N.am      21 UNK        -0.5000 
    115 CA        -0.6978  -22.5939  -54.1035 C.3       21 UNK         0.1400 
    116 CB         0.5007  -23.3031  -53.4558 C.3       21 UNK        -0.1800 
    117 C         -0.2900  -22.0152  -55.4755 C.2       21 UNK         0.5000 
    118 O         -0.2731  -22.7486  -56.4646 O.2       21 UNK        -0.5000 
    119 N          0.0133  -20.7134  -55.5085 N.am      22 UNK        -0.5000 
    120 CA         0.2378  -19.9131  -56.7202 C.3       22 UNK         0.1400 
    121 C         -1.0425  -19.6174  -57.5608 C.2       22 UNK         0.5000 
    122 N         -2.2498  -19.8824  -57.0743 N.am      22 UNK        -0.7600 
    123 O         -0.9348  -19.1491  -58.6911 O.2       22 UNK        -0.5000 
    124 C124        1.0266  -18.6161  -56.3971 C.3       23 UNK        -0.0398 
    125 S125        0.2838  -17.6317  -55.0451 S.3       23 UNK        -0.2404 
    126 C126        1.5015  -17.9040  -53.7134 C.3       23 UNK        -0.0205 
    127 H127       -3.3055  -12.4419  -47.2632 H         1 UNK         0.0600 
    128 H128       -2.6300  -12.7804  -45.6658 H         1 UNK         0.0600 
    129 H129       -2.8476  -14.0917  -46.8293 H         1 UNK         0.0600 
    130 H130       -1.8222  -11.4253  -48.5458 H         1 UNK         0.3000 
    131 H131       -0.0828  -10.7906  -49.6517 H         1 UNK         0.0600 
    132 H132        1.8735  -12.4189  -50.0869 H         1 UNK         0.0800 
    133 H133        1.0264  -13.5903  -49.1148 H         1 UNK         0.0800 
    134 H134       -1.3262  -14.5323  -49.6864 H         1 UNK         0.0800 
    135 H135       -1.8557  -14.7434  -51.3332 H         1 UNK         0.0800 
    136 H136       -0.0173  -15.6967  -53.0128 H         1 UNK         0.1150 
    137 H137        1.9912  -19.0909  -51.3331 H         1 UNK         0.1150 
    138 H138        0.0222  -16.2610  -48.7778 H         1 UNK         0.1150 
    139 H139        1.3851  -19.7068  -49.0003 H         1 UNK         0.0800 
    140 H140        2.5568  -18.4816  -48.5784 H         1 UNK         0.0800 
    141 H141       -1.2731  -18.6297  -48.5996 H         1 UNK         0.0800 
    142 H142       -1.7454  -18.1803  -46.9920 H         1 UNK         0.0800 
    143 H143       -0.7973  -20.9288  -47.9038 H         1 UNK         0.0600 
    144 H144       -0.6689  -20.0490  -45.2661 H         1 UNK         0.3000 
    145 H145       -1.5011  -23.1007  -43.5648 H         1 UNK         0.0600 
    146 H146        0.7741  -22.6292  -42.6323 H         1 UNK         0.0600 
    147 H147        0.8505  -23.3837  -44.2175 H         1 UNK         0.0600 
    148 H148        1.1612  -21.6630  -44.0547 H         1 UNK         0.0600 
    149 H149       -0.7050  -20.3051  -43.0305 H         1 UNK         0.3000 
    150 H150       -3.9857  -19.3003  -42.1462 H         1 UNK         0.0600 
    151 H151       -3.3133  -20.4275  -40.0176 H         1 UNK         0.0600 
    152 H152       -3.0100  -18.6992  -39.9456 H         1 UNK         0.0600 
    153 H153       -1.6719  -19.8206  -40.2011 H         1 UNK         0.0600 
    154 H154       -1.4536  -18.0076  -41.8682 H         1 UNK         0.3000 
    155 H155       -1.0064  -16.9697  -45.2109 H         1 UNK         0.0600 
    156 H156       -1.1495  -14.7029  -44.3960 H         1 UNK         0.0600 
    157 H157       -1.8803  -15.2177  -42.8727 H         1 UNK         0.0600 
    158 H158       -2.7701  -15.3732  -44.3855 H         1 UNK         0.0600 
    159 H159        0.5019  -16.0479  -43.1712 H         1 UNK         0.3000 
    160 H160        2.1144  -17.3741  -41.7626 H         1 UNK         0.0600 
    161 H161        3.2711  -19.5927  -43.5356 H         1 UNK         0.0600 
    162 H162        2.6299  -19.7619  -41.9126 H         1 UNK         0.0600 
    163 H163        4.1075  -18.8462  -42.1737 H         1 UNK         0.0600 
    164 H164        2.9089  -15.8161  -43.1126 H         1 UNK         0.3000 
    165 H165        4.7190  -15.6539  -46.0754 H         1 UNK         0.0600 
    166 H166        1.8805  -14.6187  -45.5579 H         1 UNK         0.0600 
    167 H167        3.0110  -14.0234  -46.7772 H         1 UNK         0.0600 
    168 H168        2.3399  -15.6334  -46.9153 H         1 UNK         0.0600 
    169 H169        3.5937  -13.8708  -44.0168 H         1 UNK         0.3000 
    170 H170        6.4527  -13.9608  -41.9534 H         1 UNK         0.0600 
    171 H171        7.2441  -12.3100  -43.6198 H         1 UNK         0.0600 
    172 H172        5.6236  -11.6508  -43.7778 H         1 UNK         0.0600 
    173 H173        6.4922  -11.5005  -42.2533 H         1 UNK         0.0600 
    174 H174        3.9619  -12.4346  -42.1004 H         1 UNK         0.3000 
    175 H175        2.0995  -14.7336  -40.1492 H         1 UNK         0.0600 
    176 H176        3.3730  -12.1559  -39.0835 H         1 UNK         0.0600 
    177 H177        1.9238  -12.9371  -38.4491 H         1 UNK         0.0600 
    178 H178        3.4815  -13.7374  -38.3198 H         1 UNK         0.0600 
    179 H179        1.6107  -12.0057  -40.8064 H         1 UNK         0.3000 
    180 H180       -0.5722  -12.7277  -43.2958 H         1 UNK         0.0600 
    181 H181        0.9218  -10.4219  -41.9302 H         1 UNK         0.0600 
    182 H182       -0.4728  -11.2773  -41.2698 H         1 UNK         0.0600 
    183 H183       -0.6378  -10.3301  -42.7344 H         1 UNK         0.0600 
    184 H184        0.3938  -11.9541  -45.1298 H         1 UNK         0.3000 
    185 H185        2.4491   -9.7803  -45.9169 H         1 UNK         0.0600 
    186 H186        4.2583  -10.8865  -47.3207 H         1 UNK         0.0600 
    187 H187        4.7208  -10.5890  -45.6583 H         1 UNK         0.0600 
    188 H188        4.2895  -12.2158  -46.1649 H         1 UNK         0.0600 
    189 H189        1.2786  -12.3511  -46.7332 H         1 UNK         0.3000 
    190 H190       -3.4568  -20.0327  -45.7570 H         1 UNK         0.3000 
    191 H191       -5.6259  -20.0560  -47.5064 H         1 UNK         0.0600 
    192 H192       -5.6798  -19.1998  -45.1831 H         1 UNK         0.0600 
    193 H193       -6.9503  -20.3893  -45.4155 H         1 UNK         0.0600 
    194 H194       -5.4847  -20.8331  -44.5486 H         1 UNK         0.0600 
    195 H195       -3.7399  -22.8356  -46.6116 H         1 UNK         0.3000 
    196 H196       -5.8241  -24.6532  -47.7470 H         1 UNK         0.0600 
    197 H197       -5.0165  -26.3737  -46.1270 H         1 UNK         0.0600 
    198 H198       -5.6536  -24.9753  -45.2784 H         1 UNK         0.0600 
    199 H199       -3.9111  -25.2038  -45.4155 H         1 UNK         0.0600 
    200 H200       -3.0395  -23.1867  -48.5485 H         1 UNK         0.3000 
    201 H201       -1.2009  -25.3021  -48.9581 H         1 UNK         0.0600 
    202 H202       -0.4621  -23.0064  -48.6751 H         1 UNK         0.0600 
    203 H203       -1.3113  -22.4821  -50.1359 H         1 UNK         0.0600 
    204 H204        0.0773  -23.5628  -50.2415 H         1 UNK         0.0600 
    205 H205       -3.8242  -24.1896  -51.0443 H         1 UNK         0.3000 
    206 H206       -2.7503  -25.6388  -53.4048 H         1 UNK         0.0600 
    207 H207       -4.5779  -24.5709  -54.6158 H         1 UNK         0.0600 
    208 H208       -5.2773  -23.9399  -53.1345 H         1 UNK         0.0600 
    209 H209       -3.7299  -23.3424  -53.6968 H         1 UNK         0.0600 
    210 H210       -3.1804  -27.2720  -51.2417 H         1 UNK         0.3000 
    211 H211       -4.0555  -29.1783  -50.5323 H         1 UNK         0.0600 
    212 H212       -5.3605  -29.4051  -53.2977 H         1 UNK         0.0600 
    213 H213       -5.1314  -30.7124  -52.1468 H         1 UNK         0.0600 
    214 H214       -3.7341  -29.9374  -52.8765 H         1 UNK         0.0600 
    215 H215       -5.1438  -27.4778  -49.1763 H         1 UNK         0.3000 
    216 H216       -6.7845  -26.9173  -47.8259 H         1 UNK         0.0600 
    217 H217       -7.4704  -29.3289  -47.8050 H         1 UNK         0.0600 
    218 H218       -8.6256  -28.9980  -49.0965 H         1 UNK         0.0600 
    219 H219       -8.8098  -28.2279  -47.5305 H         1 UNK         0.0600 
    220 H220       -6.3051  -25.5436  -50.2783 H         1 UNK         0.3000 
    221 H221       -8.6239  -23.7745  -50.1990 H         1 UNK         0.0600 
    222 H222       -7.4260  -24.8358  -52.8295 H         1 UNK         0.0600 
    223 H223       -9.0670  -25.1100  -52.2595 H         1 UNK         0.0600 
    224 H224       -8.5536  -23.4905  -52.7074 H         1 UNK         0.0600 
    225 H225       -7.9525  -21.5966  -50.9960 H         1 UNK         0.3000 
    226 H226       -5.4833  -20.9745  -49.6959 H         1 UNK         0.0600 
    227 H227       -7.4948  -19.5780  -49.4228 H         1 UNK         0.0600 
    228 H228       -6.1857  -18.6209  -50.0983 H         1 UNK         0.0600 
    229 H229       -7.4887  -19.1780  -51.1416 H         1 UNK         0.0600 
    230 H230       -3.5799  -20.4613  -50.4222 H         1 UNK         0.3000 
    231 H231       -1.8271  -19.8056  -51.5440 H         1 UNK         0.0600 
    232 H232       -2.0607  -18.0614  -53.2899 H         1 UNK         0.0600 
    233 H233       -3.0999  -17.7365  -51.9149 H         1 UNK         0.0600 
    234 H234       -3.7843  -18.3771  -53.4089 H         1 UNK         0.0600 
    235 H235       -0.7604  -21.5437  -52.2693 H         1 UNK         0.3000 
    236 H236       -1.4706  -23.3404  -54.2913 H         1 UNK         0.0600 
    237 H237        1.2813  -22.5971  -53.1700 H         1 UNK         0.0600 
    238 H238        0.2001  -23.8542  -52.5669 H         1 UNK         0.0600 
    239 H239        0.9465  -24.0259  -54.1407 H         1 UNK         0.0600 
    240 H240       -0.0528  -20.1868  -54.6510 H         1 UNK         0.3000 
    241 H241        0.8731  -20.5094  -57.3779 H         1 UNK         0.0600 
    242 H242       -2.3780  -20.2574  -56.1379 H         1 UNK         0.3800 
    243 H243       -3.0598  -19.6880  -57.6405 H         1 UNK         0.3800 
    244 H244        2.0513  -18.8769  -56.1298 H         1 UNK         0.0800 
    245 H245        1.1169  -17.9820  -57.2809 H         1 UNK         0.0800 
    246 H246        2.4214  -17.3733  -53.9618 H         1 UNK         0.0800 
    247 H247        1.7529  -18.9654  -53.6845 H         1 UNK         0.0800 
@<TRIPOS>BOND
     1    1    2 1    
     2    1  127 1    
     3    1  128 1    
     4    1  129 1    
     5    2    3 2    
     6    2    4 am   BACKBONE|DICT|INTERRES
     7    4    5 1    
     8    4  130 1    
     9    5    6 1    
    10    5   65 1    
    11    5  131 1    
    12    6    7 1    
    13    6  132 1    
    14    6  133 1    
    15    7    8 1    
    16    8    9 1    
    17    8  134 1    
    18    8  135 1    
    19    9   10 ar   
    20    9   14 ar   
    21   10   11 ar   
    22   10  136 1    
    23   11   12 ar   
    24   11  126 1    
    25   12   13 ar   
    26   12  137 1    
    27   13   14 ar   
    28   13   15 1    
    29   14  138 1    
    30   15   16 1    
    31   15  139 1    
    32   15  140 1    
    33   16   17 1    
    34   17   18 1    
    35   17  141 1    
    36   17  142 1    
    37   18   19 1    
    38   18   67 1    
    39   18  143 1    
    40   19   20 am   BACKBONE|DICT|INTERRES
    41   19  144 1    
    42   20   21 2    
    43   20   22 1    
    44   22   23 1    
    45   22   24 1    
    46   22  145 1    
    47   23  146 1    
    48   23  147 1    
    49   23  148 1    
    50   24   25 am   BACKBONE|DICT|INTERRES
    51   24  149 1    
    52   25   26 2    
    53   25   27 1    
    54   27   28 1    
    55   27   29 1    
    56   27  150 1    
    57   28  151 1    
    58   28  152 1    
    59   28  153 1    
    60   29   30 am   BACKBONE|DICT|INTERRES
    61   29  154 1    
    62   30   31 2    
    63   30   32 1    
    64   32   33 1    
    65   32   34 1    
    66   32  155 1    
    67   33  156 1    
    68   33  157 1    
    69   33  158 1    
    70   34   35 am   BACKBONE|DICT|INTERRES
    71   34  159 1    
    72   35   36 2    
    73   35   37 1    
    74   37   38 1    
    75   37   39 1    
    76   37  160 1    
    77   38  161 1    
    78   38  162 1    
    79   38  163 1    
    80   39   40 am   BACKBONE|DICT|INTERRES
    81   39  164 1    
    82   40   41 2    
    83   40   42 1    
    84   42   43 1    
    85   42   44 1    
    86   42  165 1    
    87   43  166 1    
    88   43  167 1    
    89   43  168 1    
    90   44   45 am   BACKBONE|DICT|INTERRES
    91   44  169 1    
    92   45   46 2    
    93   45   47 1    
    94   47   48 1    
    95   47   49 1    
    96   47  170 1    
    97   48  171 1    
    98   48  172 1    
    99   48  173 1    
   100   49   50 am   BACKBONE|DICT|INTERRES
   101   49  174 1    
   102   50   51 2    
   103   50   52 1    
   104   52   53 1    
   105   52   54 1    
   106   52  175 1    
   107   53  176 1    
   108   53  177 1    
   109   53  178 1    
   110   54   55 am   BACKBONE|DICT|INTERRES
   111   54  179 1    
   112   55   56 2    
   113   55   57 1    
   114   57   58 1    
   115   57   59 1    
   116   57  180 1    
   117   58  181 1    
   118   58  182 1    
   119   58  183 1    
   120   59   60 am   BACKBONE|DICT|INTERRES
   121   59  184 1    
   122   60   61 2    
   123   60   62 1    
   124   62   63 1    
   125   62   64 1    
   126   62  185 1    
   127   63  186 1    
   128   63  187 1    
   129   63  188 1    
   130   64   65 am   BACKBONE|DICT|INTERRES
   131   64  189 1    
   132   65   66 2    
   133   67   68 2    
   134   67   69 am   BACKBONE|DICT|INTERRES
   135   69   70 1    
   136   69  190 1    
   137   70   71 1    
   138   70   72 1    
   139   70  191 1    
   140   71  192 1    
   141   71  193 1    
   142   71  194 1    
   143   72   73 2    
   144   72   74 am   BACKBONE|DICT|INTERRES
   145   74   75 1    
   146   74  195 1    
   147   75   76 1    
   148   75   77 1    
   149   75  196 1    
   150   76  197 1    
   151   76  198 1    
   152   76  199 1    
   153   77   78 2    
   154   77   79 am   BACKBONE|DICT|INTERRES
   155   79   80 1    
   156   79  200 1    
   157   80   81 1    
   158   80   82 1    
   159   80  201 1    
   160   81  202 1    
   161   81  203 1    
   162   81  204 1    
   163   82   83 2    
   164   82   84 am   BACKBONE|DICT|INTERRES
   165   84   85 1    
   166   84  205 1    
   167   85   86 1    
   168   85   87 1    
   169   85  206 1    
   170   86  207 1    
   171   86  208 1    
   172   86  209 1    
   173   87   88 2    
   174   87   89 am   BACKBONE|DICT|INTERRES
   175   89   90 1    
   176   89  210 1    
   177   90   91 1    
   178   90   92 1    
   179   90  211 1    
   180   91  212 1    
   181   91  213 1    
   182   91  214 1    
   183   92   93 2    
   184   92   94 am   BACKBONE|DICT|INTERRES
   185   94   95 1    
   186   94  215 1    
   187   95   96 1    
   188   95   97 1    
   189   95  216 1    
   190   96  217 1    
   191   96  218 1    
   192   96  219 1    
   193   97   98 2    
   194   97   99 am   BACKBONE|DICT|INTERRES
   195   99  100 1    
   196   99  220 1    
   197  100  101 1    
   198  100  102 1    
   199  100  221 1    
   200  101  222 1    
   201  101  223 1    
   202  101  224 1    
   203  102  103 2    
   204  102  104 am   BACKBONE|DICT|INTERRES
   205  104  105 1    
   206  104  225 1    
   207  105  106 1    
   208  105  107 1    
   209  105  226 1    
   210  106  227 1    
   211  106  228 1    
   212  106  229 1    
   213  107  108 2    
   214  107  109 am   BACKBONE|DICT|INTERRES
   215  109  110 1    
   216  109  230 1    
   217  110  111 1    
   218  110  112 1    
   219  110  231 1    
   220  111  232 1    
   221  111  233 1    
   222  111  234 1    
   223  112  113 2    
   224  112  114 am   BACKBONE|DICT|INTERRES
   225  114  115 1    
   226  114  235 1    
   227  115  116 1    
   228  115  117 1    
   229  115  236 1    
   230  116  237 1    
   231  116  238 1    
   232  116  239 1    
   233  117  118 2    
   234  117  119 am   BACKBONE|DICT|INTERRES
   235  119  120 1    
   236  119  240 1    
   237  120  121 1    
   238  120  124 1    
   239  120  241 1    
   240  121  122 am   BACKBONE|DICT|INTERRES
   241  121  123 2    
   242  122  242 1    
   243  122  243 1    
   244  124  125 1    
   245  124  244 1    
   246  124  245 1    
   247  125  126 1    
   248  126  246 1    
   249  126  247 1    
@<TRIPOS>SUBSTRUCTURE
     1 UNK         1 GROUP             0       ****    0 ROOT    
