@<TRIPOS>MOLECULE
3R540
247   249    1
SMALL
USER_CHARGES


@<TRIPOS>ATOM
      1 CA          6.6513  -16.8694  -46.7722 C.3       0 UNK        -0.1800 
      2 C           5.3333  -17.4334  -46.2424 C.2       0 UNK         0.5000 
      3 O           5.3000  -18.6003  -45.8613 O.2       0 UNK        -0.5000 
      4 N           4.2293  -16.6704  -46.1812 N.am      1 UNK        -0.5000 
      5 CA          4.0351  -15.2550  -46.5499 C.3       1 UNK         0.1400 
      6 C6          4.4621  -14.9288  -48.0123 C.3       23 UNK        -0.0398 
      7 S7          3.2600  -13.8894  -48.9113 S.3       23 UNK        -0.2404 
      8 C8          3.2671  -14.6580  -50.5661 C.3       23 UNK        -0.0205 
      9 C9          2.2968  -15.8266  -50.6508 C.ar      23 UNK        -0.0193 
     10 C10         0.9895  -15.6190  -51.1004 C.ar      23 UNK        -0.1150 
     11 C11         0.0789  -16.6782  -51.1501 C.ar      23 UNK        -0.0193 
     12 C12         0.4796  -17.9493  -50.7301 C.ar      23 UNK        -0.1150 
     13 C13         1.7851  -18.1708  -50.2863 C.ar      23 UNK        -0.0193 
     14 C14         2.6953  -17.1118  -50.2719 C.ar      23 UNK        -0.1150 
     15 C15         2.2005  -19.5370  -49.7681 C.3       23 UNK        -0.0205 
     16 S16         2.2154  -19.5187  -47.9526 S.3       23 UNK        -0.2404 
     17 C17         2.4240  -21.2739  -47.5319 C.3       23 UNK        -0.0398 
     18 CA          1.1236  -22.0095  -47.1229 C.3       11 UNK         0.1400 
     19 N           0.3624  -21.3667  -46.0425 N.am      11 UNK        -0.5000 
     20 C          -0.5315  -22.0336  -45.2944 C.2       10 UNK         0.5000 
     21 O          -0.7586  -23.2373  -45.4287 O.2       10 UNK        -0.5000 
     22 CA         -1.3386  -21.2356  -44.2540 C.3       10 UNK         0.1400 
     23 CB         -0.4865  -20.9058  -43.0194 C.3       10 UNK        -0.1800 
     24 N          -1.9308  -20.0155  -44.8020 N.am      10 UNK        -0.5000 
     25 C          -2.8673  -19.9954  -45.7617 C.2       9 UNK         0.5000 
     26 O          -3.3374  -21.0087  -46.2764 O.2       9 UNK        -0.5000 
     27 CA         -3.3364  -18.6160  -46.2592 C.3       9 UNK         0.1400 
     28 CB         -4.4603  -18.0641  -45.3701 C.3       9 UNK        -0.1800 
     29 N          -2.2485  -17.6445  -46.3348 N.am      9 UNK        -0.5000 
     30 C          -1.1897  -17.7581  -47.1479 C.2       8 UNK         0.5000 
     31 O          -1.0580  -18.6681  -47.9649 O.2       8 UNK        -0.5000 
     32 CA         -0.0702  -16.7169  -46.9630 C.3       8 UNK         0.1400 
     33 CB         -0.4267  -15.3814  -47.6327 C.3       8 UNK        -0.1800 
     34 N           0.2327  -16.4920  -45.5480 N.am      8 UNK        -0.5000 
     35 C           0.7522  -17.4125  -44.7226 C.2       7 UNK         0.5000 
     36 O           1.0908  -18.5403  -45.0732 O.2       7 UNK        -0.5000 
     37 CA          0.9076  -17.0076  -43.2475 C.3       7 UNK         0.1400 
     38 CB          2.2713  -16.3403  -43.0304 C.3       7 UNK        -0.1800 
     39 N          -0.1636  -16.1184  -42.7904 N.am      7 UNK        -0.5000 
     40 C          -1.4363  -16.5082  -42.6366 C.2       6 UNK         0.5000 
     41 O          -1.8280  -17.6555  -42.8529 O.2       6 UNK        -0.5000 
     42 CA         -2.4474  -15.4215  -42.2257 C.3       6 UNK         0.1400 
     43 CB         -2.3009  -15.0633  -40.7388 C.3       6 UNK        -0.1800 
     44 N          -2.3599  -14.2044  -43.0408 N.am      6 UNK        -0.5000 
     45 C          -2.5680  -14.1634  -44.3645 C.2       5 UNK         0.5000 
     46 O          -2.7868  -15.1652  -45.0422 O.2       5 UNK        -0.5000 
     47 CA         -2.5149  -12.7957  -45.0736 C.3       5 UNK         0.1400 
     48 CB         -3.9211  -12.3966  -45.5461 C.3       5 UNK        -0.1800 
     49 N          -1.9773  -11.7086  -44.2510 N.am      5 UNK        -0.5000 
     50 C          -0.6925  -11.4113  -44.0102 C.2       4 UNK         0.5000 
     51 O          -0.3886  -10.4228  -43.3410 O.2       4 UNK        -0.5000 
     52 CA          0.4381  -12.2987  -44.5893 C.3       4 UNK         0.1400 
     53 CB          0.8976  -11.7842  -45.9622 C.3       4 UNK        -0.1800 
     54 N           1.5945  -12.3436  -43.6943 N.am      4 UNK        -0.5000 
     55 C           1.5757  -12.8632  -42.4608 C.2       3 UNK         0.5000 
     56 O           0.6161  -13.4869  -42.0048 O.2       3 UNK        -0.5000 
     57 CA          2.8769  -12.7380  -41.6584 C.3       3 UNK         0.1400 
     58 CB          2.7634  -13.2839  -40.2229 C.3       3 UNK        -0.1800 
     59 N           3.9080  -13.4702  -42.3820 N.am      3 UNK        -0.5000 
     60 C           5.1624  -13.0637  -42.5911 C.2       2 UNK         0.5000 
     61 O           5.6368  -12.0243  -42.1319 O.2       2 UNK        -0.5000 
     62 CA          6.0307  -13.9752  -43.4788 C.3       2 UNK         0.1400 
     63 CB          6.8579  -14.9370  -42.6125 C.3       2 UNK        -0.1800 
     64 N           5.2677  -14.7596  -44.4578 N.am      2 UNK        -0.5000 
     65 C           4.6384  -14.2541  -45.5306 C.2       1 UNK         0.5000 
     66 O           4.5298  -13.0452  -45.7333 O.2       1 UNK        -0.5000 
     67 C           0.2364  -22.3760  -48.3304 C.2       11 UNK         0.5000 
     68 O           0.4826  -23.4095  -48.9504 O.2       11 UNK        -0.5000 
     69 N          -0.8068  -21.5812  -48.6170 N.am      12 UNK        -0.5000 
     70 CA         -1.8235  -21.9093  -49.6193 C.3       12 UNK         0.1400 
     71 CB         -2.7598  -20.7162  -49.8354 C.3       12 UNK        -0.1800 
     72 C          -2.6333  -23.1663  -49.2539 C.2       12 UNK         0.5000 
     73 O          -2.8754  -24.0049  -50.1217 O.2       12 UNK        -0.5000 
     74 N          -3.0130  -23.2991  -47.9759 N.am      13 UNK        -0.5000 
     75 CA         -3.6715  -24.4861  -47.4316 C.3       13 UNK         0.1400 
     76 CB         -4.1618  -24.2091  -46.0035 C.3       13 UNK        -0.1800 
     77 C          -2.7713  -25.7329  -47.4849 C.2       13 UNK         0.5000 
     78 O          -3.2419  -26.7946  -47.8928 O.2       13 UNK        -0.5000 
     79 N          -1.4851  -25.5733  -47.1392 N.am      14 UNK        -0.5000 
     80 CA         -0.4622  -26.6204  -47.2390 C.3       14 UNK         0.1400 
     81 CB          0.8382  -26.1346  -46.5826 C.3       14 UNK        -0.1800 
     82 C          -0.2031  -27.0792  -48.6893 C.2       14 UNK         0.5000 
     83 O           0.0213  -28.2674  -48.9208 O.2       14 UNK        -0.5000 
     84 N          -0.2828  -26.1390  -49.6407 N.am      15 UNK        -0.5000 
     85 CA         -0.1985  -26.3764  -51.0840 C.3       15 UNK         0.1400 
     86 CB          0.1669  -25.0542  -51.7798 C.3       15 UNK        -0.1800 
     87 C          -1.4871  -26.9702  -51.6952 C.2       15 UNK         0.5000 
     88 O          -1.4921  -27.2770  -52.8879 O.2       15 UNK        -0.5000 
     89 N          -2.5505  -27.1079  -50.8878 N.am      16 UNK        -0.5000 
     90 CA         -3.8898  -27.5941  -51.2378 C.3       16 UNK         0.1400 
     91 CB         -3.8466  -29.0482  -51.7528 C.3       16 UNK        -0.1800 
     92 C          -4.6719  -26.6440  -52.1707 C.2       16 UNK         0.5000 
     93 O          -5.6099  -27.0784  -52.8412 O.2       16 UNK        -0.5000 
     94 N          -4.3055  -25.3553  -52.1664 N.am      17 UNK        -0.5000 
     95 CA         -5.0153  -24.2746  -52.8540 C.3       17 UNK         0.1400 
     96 CB         -3.9920  -23.2209  -53.2996 C.3       17 UNK        -0.1800 
     97 C          -6.1105  -23.6487  -51.9639 C.2       17 UNK         0.5000 
     98 O          -6.9139  -22.8540  -52.4550 O.2       17 UNK        -0.5000 
     99 N          -6.1219  -24.0153  -50.6706 N.am      18 UNK        -0.5000 
    100 CA        -7.1445  -23.7315  -49.6523 C.3       18 UNK         0.1400 
    101 CB        -8.4575  -24.4560  -50.0138 C.3       18 UNK        -0.1800 
    102 C         -7.3731  -22.2336  -49.3582 C.2       18 UNK         0.5000 
    103 O         -8.4180  -21.8738  -48.8151 O.2       18 UNK        -0.5000 
    104 N         -6.4049  -21.3901  -49.7440 N.am      19 UNK        -0.5000 
    105 CA        -6.4275  -19.9228  -49.7072 C.3       19 UNK         0.1400 
    106 CB        -6.5693  -19.4017  -48.2624 C.3       19 UNK        -0.1800 
    107 C         -7.4493  -19.2838  -50.6757 C.2       19 UNK         0.5000 
    108 O         -7.6477  -18.0691  -50.6248 O.2       19 UNK        -0.5000 
    109 N         -8.0458  -20.0860  -51.5715 N.am      20 UNK        -0.5000 
    110 CA        -8.8585  -19.6168  -52.6976 C.3       20 UNK         0.1400 
    111 CB        -9.7545  -20.7656  -53.1846 C.3       20 UNK        -0.1800 
    112 C         -7.9674  -19.0949  -53.8415 C.2       20 UNK         0.5000 
    113 O         -8.3713  -18.2002  -54.5850 O.2       20 UNK        -0.5000 
    114 N         -6.7552  -19.6478  -53.9211 N.am      21 UNK        -0.5000 
    115 CA        -5.6195  -19.1887  -54.7030 C.3       21 UNK         0.1400 
    116 CB        -5.5468  -19.9927  -56.0121 C.3       21 UNK        -0.1800 
    117 C         -4.3682  -19.4018  -53.8351 C.2       21 UNK         0.5000 
    118 O         -4.4568  -20.0391  -52.7809 O.2       21 UNK        -0.5000 
    119 N         -3.2274  -18.8728  -54.2830 N.am      22 UNK        -0.5000 
    120 CA        -1.9179  -19.1145  -53.6589 C.3       22 UNK         0.1400 
    121 C         -1.3313  -20.5024  -54.0425 C.2       22 UNK         0.5000 
    122 N         -0.4562  -21.0620  -53.2175 N.am      22 UNK        -0.7600 
    123 O         -1.6281  -21.0604  -55.0967 O.2       22 UNK        -0.5000 
    124 C124       -0.9099  -17.9822  -53.9775 C.3       23 UNK        -0.0398 
    125 S125       -1.4779  -16.3319  -53.4350 S.3       23 UNK        -0.2404 
    126 C126       -1.3481  -16.4397  -51.6192 C.3       23 UNK        -0.0205 
    127 H127        6.7966  -15.8202  -46.5242 H         1 UNK         0.0600 
    128 H128        6.6987  -16.9807  -47.8553 H         1 UNK         0.0600 
    129 H129        7.4908  -17.4187  -46.3455 H         1 UNK         0.0600 
    130 H130        3.3886  -17.1315  -45.8621 H         1 UNK         0.3000 
    131 H131        2.9553  -15.1158  -46.4754 H         1 UNK         0.0600 
    132 H132        5.4359  -14.4372  -48.0529 H         1 UNK         0.0800 
    133 H133        4.5928  -15.8499  -48.5740 H         1 UNK         0.0800 
    134 H134        2.9929  -13.8997  -51.3011 H         1 UNK         0.0800 
    135 H135        4.2761  -14.9787  -50.8297 H         1 UNK         0.0800 
    136 H136        0.6747  -14.6297  -51.4015 H         1 UNK         0.1150 
    137 H137       -0.2306  -18.7621  -50.7236 H         1 UNK         0.1150 
    138 H138        3.7034  -17.2930  -49.9316 H         1 UNK         0.1150 
    139 H139        1.5147  -20.3057  -50.1256 H         1 UNK         0.0800 
    140 H140        3.1917  -19.7965  -50.1426 H         1 UNK         0.0800 
    141 H141        3.1251  -21.3126  -46.6972 H         1 UNK         0.0800 
    142 H142        2.9240  -21.7921  -48.3522 H         1 UNK         0.0800 
    143 H143        1.4636  -22.9662  -46.7213 H         1 UNK         0.0600 
    144 H144        0.5204  -20.3747  -45.8897 H         1 UNK         0.3000 
    145 H145       -2.1620  -21.8722  -43.9233 H         1 UNK         0.0600 
    146 H146       -1.0687  -20.3714  -42.2685 H         1 UNK         0.0600 
    147 H147       -0.1127  -21.8179  -42.5528 H         1 UNK         0.0600 
    148 H148        0.3778  -20.2935  -43.2719 H         1 UNK         0.0600 
    149 H149       -1.6302  -19.1365  -44.3978 H         1 UNK         0.3000 
    150 H150       -3.7336  -18.7432  -47.2675 H         1 UNK         0.0600 
    151 H151       -5.2911  -18.7678  -45.3071 H         1 UNK         0.0600 
    152 H152       -4.8543  -17.1296  -45.7699 H         1 UNK         0.0600 
    153 H153       -4.1133  -17.8722  -44.3544 H         1 UNK         0.0600 
    154 H154       -2.3182  -16.8360  -45.7220 H         1 UNK         0.3000 
    155 H155        0.8298  -17.0959  -47.4476 H         1 UNK         0.0600 
    156 H156       -0.6363  -15.5249  -48.6915 H         1 UNK         0.0600 
    157 H157        0.3957  -14.6696  -47.5595 H         1 UNK         0.0600 
    158 H158       -1.3115  -14.9252  -47.1930 H         1 UNK         0.0600 
    159 H159       -0.0698  -15.6171  -45.1515 H         1 UNK         0.3000 
    160 H160        0.8744  -17.9166  -42.6433 H         1 UNK         0.0600 
    161 H161        2.3788  -15.4549  -43.6556 H         1 UNK         0.0600 
    162 H162        3.0832  -17.0236  -43.2837 H         1 UNK         0.0600 
    163 H163        2.4053  -16.0508  -41.9884 H         1 UNK         0.0600 
    164 H164        0.0850  -15.1616  -42.5471 H         1 UNK         0.3000 
    165 H165       -3.4461  -15.8390  -42.3707 H         1 UNK         0.0600 
    166 H166       -3.0825  -14.3729  -40.4215 H         1 UNK         0.0600 
    167 H167       -2.3815  -15.9534  -40.1137 H         1 UNK         0.0600 
    168 H168       -1.3377  -14.5993  -40.5250 H         1 UNK         0.0600 
    169 H169       -2.1498  -13.3455  -42.5529 H         1 UNK         0.3000 
    170 H170       -1.8956  -12.9110  -45.9636 H         1 UNK         0.0600 
    171 H171       -4.3487  -13.1602  -46.1977 H         1 UNK         0.0600 
    172 H172       -4.6052  -12.2612  -44.7073 H         1 UNK         0.0600 
    173 H173       -3.8976  -11.4662  -46.1140 H         1 UNK         0.0600 
    174 H174       -2.6754  -11.1025  -43.8456 H         1 UNK         0.3000 
    175 H175        0.0911  -13.3246  -44.7046 H         1 UNK         0.0600 
    176 H176        1.3021  -10.7734  -45.8965 H         1 UNK         0.0600 
    177 H177        1.6708  -12.4262  -46.3858 H         1 UNK         0.0600 
    178 H178        0.0730  -11.7597  -46.6749 H         1 UNK         0.0600 
    179 H179        2.4275  -11.8665  -44.0089 H         1 UNK         0.3000 
    180 H180        3.1235  -11.6753  -41.6089 H         1 UNK         0.0600 
    181 H181        2.5167  -14.3459  -40.2104 H         1 UNK         0.0600 
    182 H182        1.9859  -12.7586  -39.6669 H         1 UNK         0.0600 
    183 H183        3.6984  -13.1522  -39.6784 H         1 UNK         0.0600 
    184 H184        3.6124  -14.3293  -42.8205 H         1 UNK         0.3000 
    185 H185        6.7216  -13.3321  -44.0283 H         1 UNK         0.0600 
    186 H186        7.4629  -14.3894  -41.8884 H         1 UNK         0.0600 
    187 H187        6.2214  -15.6251  -42.0546 H         1 UNK         0.0600 
    188 H188        7.5409  -15.5292  -43.2219 H         1 UNK         0.0600 
    189 H189        5.2979  -15.7631  -44.3510 H         1 UNK         0.3000 
    190 H190       -0.9225  -20.7076  -48.1121 H         1 UNK         0.3000 
    191 H191       -1.3121  -22.1106  -50.5623 H         1 UNK         0.0600 
    192 H192       -2.2172  -19.8356  -50.1745 H         1 UNK         0.0600 
    193 H193       -3.5029  -20.9518  -50.5949 H         1 UNK         0.0600 
    194 H194       -3.2938  -20.4502  -48.9243 H         1 UNK         0.0600 
    195 H195       -2.8465  -22.5338  -47.3276 H         1 UNK         0.3000 
    196 H196       -4.5464  -24.6921  -48.0495 H         1 UNK         0.0600 
    197 H197       -4.6681  -25.0810  -45.5878 H         1 UNK         0.0600 
    198 H198       -4.8714  -23.3817  -45.9863 H         1 UNK         0.0600 
    199 H199       -3.3394  -23.9562  -45.3345 H         1 UNK         0.0600 
    200 H200       -1.1895  -24.6760  -46.7668 H         1 UNK         0.3000 
    201 H201       -0.8218  -27.4853  -46.6779 H         1 UNK         0.0600 
    202 H202        0.6689  -25.8170  -45.5535 H         1 UNK         0.0600 
    203 H203        1.2741  -25.2971  -47.1262 H         1 UNK         0.0600 
    204 H204        1.5828  -26.9312  -46.5601 H         1 UNK         0.0600 
    205 H205       -0.3900  -25.1711  -49.3542 H         1 UNK         0.3000 
    206 H206        0.6058  -27.0909  -51.2698 H         1 UNK         0.0600 
    207 H207        1.1023  -24.6498  -51.3927 H         1 UNK         0.0600 
    208 H208        0.2964  -25.1961  -52.8534 H         1 UNK         0.0600 
    209 H209       -0.6074  -24.2995  -51.6406 H         1 UNK         0.0600 
    210 H210       -2.4441  -26.8180  -49.9233 H         1 UNK         0.3000 
    211 H211       -4.4483  -27.6045  -50.3010 H         1 UNK         0.0600 
    212 H212       -3.3876  -29.1182  -52.7391 H         1 UNK         0.0600 
    213 H213       -4.8516  -29.4639  -51.8332 H         1 UNK         0.0600 
    214 H214       -3.2856  -29.6903  -51.0737 H         1 UNK         0.0600 
    215 H215       -3.5483  -25.0648  -51.5525 H         1 UNK         0.3000 
    216 H216       -5.5033  -24.6687  -53.7476 H         1 UNK         0.0600 
    217 H217       -4.4669  -22.4642  -53.9233 H         1 UNK         0.0600 
    218 H218       -3.1929  -23.6678  -53.8912 H         1 UNK         0.0600 
    219 H219       -3.5337  -22.7111  -52.4519 H         1 UNK         0.0600 
    220 H220       -5.3732  -24.6254  -50.3756 H         1 UNK         0.3000 
    221 H221       -6.7787  -24.1638  -48.7207 H         1 UNK         0.0600 
    222 H222       -8.9216  -24.0293  -50.9037 H         1 UNK         0.0600 
    223 H223       -8.2843  -25.5157  -50.2018 H         1 UNK         0.0600 
    224 H224       -9.1829  -24.3882  -49.2022 H         1 UNK         0.0600 
    225 H225       -5.6087  -21.7978  -50.2120 H         1 UNK         0.3000 
    226 H226       -5.4507  -19.6029  -50.0701 H         1 UNK         0.0600 
    227 H227       -5.8781  -19.9110  -47.5911 H         1 UNK         0.0600 
    228 H228       -6.3504  -18.3347  -48.2091 H         1 UNK         0.0600 
    229 H229       -7.5781  -19.5454  -47.8751 H         1 UNK         0.0600 
    230 H230       -7.8096  -21.0714  -51.5701 H         1 UNK         0.3000 
    231 H231       -9.4984  -18.7980  -52.3625 H         1 UNK         0.0600 
    232 H232       -9.1667  -21.6114  -53.5438 H         1 UNK         0.0600 
    233 H233      -10.3953  -20.4389  -54.0045 H         1 UNK         0.0600 
    234 H234      -10.4039  -21.1243  -52.3859 H         1 UNK         0.0600 
    235 H235       -6.5020  -20.3408  -53.2267 H         1 UNK         0.3000 
    236 H236       -5.7160  -18.1228  -54.9194 H         1 UNK         0.0600 
    237 H237       -6.4543  -19.8649  -56.6023 H         1 UNK         0.0600 
    238 H238       -4.7094  -19.6666  -56.6297 H         1 UNK         0.0600 
    239 H239       -5.4196  -21.0591  -55.8216 H         1 UNK         0.0600 
    240 H240       -3.2182  -18.3773  -55.1619 H         1 UNK         0.3000 
    241 H241       -2.0633  -19.1318  -52.5781 H         1 UNK         0.0600 
    242 H242       -0.1586  -20.6127  -52.3687 H         1 UNK         0.3800 
    243 H243       -0.0566  -21.9504  -53.4751 H         1 UNK         0.3800 
    244 H244        0.0620  -18.1831  -53.5251 H         1 UNK         0.0800 
    245 H245       -0.7288  -17.9348  -55.0526 H         1 UNK         0.0800 
    246 H246       -1.7142  -15.5063  -51.1893 H         1 UNK         0.0800 
    247 H247       -2.0137  -17.2185  -51.2447 H         1 UNK         0.0800 
@<TRIPOS>BOND
     1    1    2 1    
     2    1  127 1    
     3    1  128 1    
     4    1  129 1    
     5    2    3 2    
     6    2    4 am   BACKBONE|DICT|INTERRES
     7    4    5 1    
     8    4  130 1    
     9    5    6 1    
    10    5   65 1    
    11    5  131 1    
    12    6    7 1    
    13    6  132 1    
    14    6  133 1    
    15    7    8 1    
    16    8    9 1    
    17    8  134 1    
    18    8  135 1    
    19    9   10 ar   
    20    9   14 ar   
    21   10   11 ar   
    22   10  136 1    
    23   11   12 ar   
    24   11  126 1    
    25   12   13 ar   
    26   12  137 1    
    27   13   14 ar   
    28   13   15 1    
    29   14  138 1    
    30   15   16 1    
    31   15  139 1    
    32   15  140 1    
    33   16   17 1    
    34   17   18 1    
    35   17  141 1    
    36   17  142 1    
    37   18   19 1    
    38   18   67 1    
    39   18  143 1    
    40   19   20 am   BACKBONE|DICT|INTERRES
    41   19  144 1    
    42   20   21 2    
    43   20   22 1    
    44   22   23 1    
    45   22   24 1    
    46   22  145 1    
    47   23  146 1    
    48   23  147 1    
    49   23  148 1    
    50   24   25 am   BACKBONE|DICT|INTERRES
    51   24  149 1    
    52   25   26 2    
    53   25   27 1    
    54   27   28 1    
    55   27   29 1    
    56   27  150 1    
    57   28  151 1    
    58   28  152 1    
    59   28  153 1    
    60   29   30 am   BACKBONE|DICT|INTERRES
    61   29  154 1    
    62   30   31 2    
    63   30   32 1    
    64   32   33 1    
    65   32   34 1    
    66   32  155 1    
    67   33  156 1    
    68   33  157 1    
    69   33  158 1    
    70   34   35 am   BACKBONE|DICT|INTERRES
    71   34  159 1    
    72   35   36 2    
    73   35   37 1    
    74   37   38 1    
    75   37   39 1    
    76   37  160 1    
    77   38  161 1    
    78   38  162 1    
    79   38  163 1    
    80   39   40 am   BACKBONE|DICT|INTERRES
    81   39  164 1    
    82   40   41 2    
    83   40   42 1    
    84   42   43 1    
    85   42   44 1    
    86   42  165 1    
    87   43  166 1    
    88   43  167 1    
    89   43  168 1    
    90   44   45 am   BACKBONE|DICT|INTERRES
    91   44  169 1    
    92   45   46 2    
    93   45   47 1    
    94   47   48 1    
    95   47   49 1    
    96   47  170 1    
    97   48  171 1    
    98   48  172 1    
    99   48  173 1    
   100   49   50 am   BACKBONE|DICT|INTERRES
   101   49  174 1    
   102   50   51 2    
   103   50   52 1    
   104   52   53 1    
   105   52   54 1    
   106   52  175 1    
   107   53  176 1    
   108   53  177 1    
   109   53  178 1    
   110   54   55 am   BACKBONE|DICT|INTERRES
   111   54  179 1    
   112   55   56 2    
   113   55   57 1    
   114   57   58 1    
   115   57   59 1    
   116   57  180 1    
   117   58  181 1    
   118   58  182 1    
   119   58  183 1    
   120   59   60 am   BACKBONE|DICT|INTERRES
   121   59  184 1    
   122   60   61 2    
   123   60   62 1    
   124   62   63 1    
   125   62   64 1    
   126   62  185 1    
   127   63  186 1    
   128   63  187 1    
   129   63  188 1    
   130   64   65 am   BACKBONE|DICT|INTERRES
   131   64  189 1    
   132   65   66 2    
   133   67   68 2    
   134   67   69 am   BACKBONE|DICT|INTERRES
   135   69   70 1    
   136   69  190 1    
   137   70   71 1    
   138   70   72 1    
   139   70  191 1    
   140   71  192 1    
   141   71  193 1    
   142   71  194 1    
   143   72   73 2    
   144   72   74 am   BACKBONE|DICT|INTERRES
   145   74   75 1    
   146   74  195 1    
   147   75   76 1    
   148   75   77 1    
   149   75  196 1    
   150   76  197 1    
   151   76  198 1    
   152   76  199 1    
   153   77   78 2    
   154   77   79 am   BACKBONE|DICT|INTERRES
   155   79   80 1    
   156   79  200 1    
   157   80   81 1    
   158   80   82 1    
   159   80  201 1    
   160   81  202 1    
   161   81  203 1    
   162   81  204 1    
   163   82   83 2    
   164   82   84 am   BACKBONE|DICT|INTERRES
   165   84   85 1    
   166   84  205 1    
   167   85   86 1    
   168   85   87 1    
   169   85  206 1    
   170   86  207 1    
   171   86  208 1    
   172   86  209 1    
   173   87   88 2    
   174   87   89 am   BACKBONE|DICT|INTERRES
   175   89   90 1    
   176   89  210 1    
   177   90   91 1    
   178   90   92 1    
   179   90  211 1    
   180   91  212 1    
   181   91  213 1    
   182   91  214 1    
   183   92   93 2    
   184   92   94 am   BACKBONE|DICT|INTERRES
   185   94   95 1    
   186   94  215 1    
   187   95   96 1    
   188   95   97 1    
   189   95  216 1    
   190   96  217 1    
   191   96  218 1    
   192   96  219 1    
   193   97   98 2    
   194   97   99 am   BACKBONE|DICT|INTERRES
   195   99  100 1    
   196   99  220 1    
   197  100  101 1    
   198  100  102 1    
   199  100  221 1    
   200  101  222 1    
   201  101  223 1    
   202  101  224 1    
   203  102  103 2    
   204  102  104 am   BACKBONE|DICT|INTERRES
   205  104  105 1    
   206  104  225 1    
   207  105  106 1    
   208  105  107 1    
   209  105  226 1    
   210  106  227 1    
   211  106  228 1    
   212  106  229 1    
   213  107  108 2    
   214  107  109 am   BACKBONE|DICT|INTERRES
   215  109  110 1    
   216  109  230 1    
   217  110  111 1    
   218  110  112 1    
   219  110  231 1    
   220  111  232 1    
   221  111  233 1    
   222  111  234 1    
   223  112  113 2    
   224  112  114 am   BACKBONE|DICT|INTERRES
   225  114  115 1    
   226  114  235 1    
   227  115  116 1    
   228  115  117 1    
   229  115  236 1    
   230  116  237 1    
   231  116  238 1    
   232  116  239 1    
   233  117  118 2    
   234  117  119 am   BACKBONE|DICT|INTERRES
   235  119  120 1    
   236  119  240 1    
   237  120  121 1    
   238  120  124 1    
   239  120  241 1    
   240  121  122 am   BACKBONE|DICT|INTERRES
   241  121  123 2    
   242  122  242 1    
   243  122  243 1    
   244  124  125 1    
   245  124  244 1    
   246  124  245 1    
   247  125  126 1    
   248  126  246 1    
   249  126  247 1    
@<TRIPOS>SUBSTRUCTURE
     1 UNK         1 GROUP             0       ****    0 ROOT    
