@<TRIPOS>MOLECULE
3R540
247   249    1
SMALL
USER_CHARGES


@<TRIPOS>ATOM
      1 CA          4.3033  -13.3624  -50.2709 C.3       0 UNK        -0.1800 
      2 C           3.3951  -12.1919  -50.6454 C.2       0 UNK         0.5000 
      3 O           3.6150  -11.5694  -51.6827 O.2       0 UNK        -0.5000 
      4 N           2.3624  -11.8594  -49.8585 N.am      1 UNK        -0.5000 
      5 CA          2.0107  -12.4312  -48.5544 C.3       1 UNK         0.1400 
      6 C6          0.5903  -12.0048  -48.1076 C.3       23 UNK        -0.0398 
      7 S7         -0.6937  -12.7347  -49.1783 S.3       23 UNK        -0.2404 
      8 C8         -1.4778  -13.9223  -48.0443 C.3       23 UNK        -0.0205 
      9 C9         -2.0546  -15.1019  -48.8071 C.ar      23 UNK        -0.0193 
     10 C10        -3.3328  -15.0326  -49.3707 C.ar      23 UNK        -0.1150 
     11 C11        -3.8668  -16.1213  -50.0698 C.ar      23 UNK        -0.0193 
     12 C12        -3.1065  -17.2909  -50.1803 C.ar      23 UNK        -0.1150 
     13 C13        -1.8245  -17.3667  -49.6337 C.ar      23 UNK        -0.0193 
     14 C14        -1.3027  -16.2700  -48.9465 C.ar      23 UNK        -0.1150 
     15 C15        -1.0106  -18.6386  -49.7764 C.3       23 UNK        -0.0205 
     16 S16        -1.6118  -19.9055  -48.6287 S.3       23 UNK        -0.2404 
     17 C17        -0.3127  -21.1651  -48.8181 C.3       23 UNK        -0.0398 
     18 CA         -0.3717  -22.2923  -47.7634 C.3       11 UNK         0.1400 
     19 N          -0.1092  -21.8235  -46.3984 N.am      11 UNK        -0.5000 
     20 C           0.2559  -22.6438  -45.4020 C.2       10 UNK         0.5000 
     21 O           0.4047  -23.8575  -45.5438 O.2       10 UNK        -0.5000 
     22 CA          0.4290  -22.0247  -44.0050 C.3       10 UNK         0.1400 
     23 CB          1.7389  -21.2284  -43.9072 C.3       10 UNK        -0.1800 
     24 N          -0.6967  -21.1747  -43.6238 N.am      10 UNK        -0.5000 
     25 C          -1.9633  -21.5938  -43.4942 C.2       9 UNK         0.5000 
     26 O          -2.3218  -22.7572  -43.6781 O.2       9 UNK        -0.5000 
     27 CA         -3.0065  -20.5260  -43.1278 C.3       9 UNK         0.1400 
     28 CB         -3.0412  -20.2961  -41.6096 C.3       9 UNK        -0.1800 
     29 N          -2.7338  -19.2639  -43.8159 N.am      9 UNK        -0.5000 
     30 C          -3.0655  -19.0248  -45.0927 C.2       8 UNK         0.5000 
     31 O          -3.7024  -19.8166  -45.7854 O.2       8 UNK        -0.5000 
     32 CA         -2.6003  -17.6893  -45.7055 C.3       8 UNK         0.1400 
     33 CB         -3.6801  -16.6098  -45.5419 C.3       8 UNK        -0.1800 
     34 N          -1.3410  -17.1986  -45.1442 N.am      8 UNK        -0.5000 
     35 C          -0.1499  -17.7906  -45.3094 C.2       7 UNK         0.5000 
     36 O           0.0270  -18.8248  -45.9530 O.2       7 UNK        -0.5000 
     37 CA          1.0388  -17.1396  -44.5797 C.3       7 UNK         0.1400 
     38 CB          1.6028  -15.9691  -45.4009 C.3       7 UNK        -0.1800 
     39 N           0.7238  -16.6718  -43.2259 N.am      7 UNK        -0.5000 
     40 C           0.2241  -17.4188  -42.2314 C.2       6 UNK         0.5000 
     41 O          -0.1091  -18.5967  -42.3712 O.2       6 UNK        -0.5000 
     42 CA          0.1042  -16.7339  -40.8526 C.3       6 UNK         0.1400 
     43 CB         -0.5209  -17.6498  -39.7854 C.3       6 UNK        -0.1800 
     44 N           1.4122  -16.2784  -40.3765 N.am      6 UNK        -0.5000 
     45 C           2.0239  -15.1587  -40.7788 C.2       5 UNK         0.5000 
     46 O           1.5054  -14.3549  -41.5588 O.2       5 UNK        -0.5000 
     47 CA          3.4542  -14.9375  -40.2575 C.3       5 UNK         0.1400 
     48 CB          4.4239  -15.9413  -40.9046 C.3       5 UNK        -0.1800 
     49 N           3.8951  -13.5915  -40.6035 N.am      5 UNK        -0.5000 
     50 C           4.2660  -12.6339  -39.7451 C.2       4 UNK         0.5000 
     51 O           4.3645  -12.8059  -38.5292 O.2       4 UNK        -0.5000 
     52 CA          4.5792  -11.2415  -40.3376 C.3       4 UNK         0.1400 
     53 CB          6.0972  -11.0426  -40.4681 C.3       4 UNK        -0.1800 
     54 N           3.9613  -11.0208  -41.6468 N.am      4 UNK        -0.5000 
     55 C           2.6443  -10.9009  -41.8609 C.2       3 UNK         0.5000 
     56 O           1.8194  -10.7925  -40.9524 O.2       3 UNK        -0.5000 
     57 CA          2.1540  -10.9219  -43.3248 C.3       3 UNK         0.1400 
     58 CB          1.6194   -9.5410  -43.7364 C.3       3 UNK        -0.1800 
     59 N           3.1322  -11.3580  -44.3302 N.am      3 UNK        -0.5000 
     60 C           3.7450  -12.5478  -44.3948 C.2       2 UNK         0.5000 
     61 O           3.6634  -13.4102  -43.5215 O.2       2 UNK        -0.5000 
     62 CA          4.5448  -12.8233  -45.6817 C.3       2 UNK         0.1400 
     63 CB          5.4470  -14.0652  -45.5656 C.3       2 UNK        -0.1800 
     64 N           3.6252  -13.0094  -46.8036 N.am      2 UNK        -0.5000 
     65 C           3.0461  -12.0184  -47.4920 C.2       1 UNK         0.5000 
     66 O           3.2811  -10.8232  -47.2989 O.2       1 UNK        -0.5000 
     67 C          -1.6648  -23.1294  -47.8686 C.2       11 UNK         0.5000 
     68 O          -1.7282  -24.0273  -48.7109 O.2       11 UNK        -0.5000 
     69 N          -2.6621  -22.8501  -47.0143 N.am      12 UNK        -0.5000 
     70 CA         -3.8923  -23.6360  -46.9011 C.3       12 UNK         0.1400 
     71 CB         -4.9272  -22.9060  -46.0348 C.3       12 UNK        -0.1800 
     72 C          -3.6210  -25.0550  -46.3773 C.2       12 UNK         0.5000 
     73 O          -4.1547  -26.0168  -46.9295 O.2       12 UNK        -0.5000 
     74 N          -2.7568  -25.1633  -45.3607 N.am      13 UNK        -0.5000 
     75 CA         -2.2806  -26.4358  -44.8236 C.3       13 UNK         0.1400 
     76 CB         -1.5363  -26.1831  -43.5034 C.3       13 UNK        -0.1800 
     77 C          -1.3890  -27.2034  -45.8188 C.2       13 UNK         0.5000 
     78 O          -1.5266  -28.4215  -45.9380 O.2       13 UNK        -0.5000 
     79 N          -0.4897  -26.4839  -46.5044 N.am      14 UNK        -0.5000 
     80 CA          0.5007  -27.0610  -47.4113 C.3       14 UNK         0.1400 
     81 CB          1.6343  -26.0514  -47.6473 C.3       14 UNK        -0.1800 
     82 C          -0.0768  -27.5372  -48.7560 C.2       14 UNK         0.5000 
     83 O           0.2666  -28.6369  -49.1931 O.2       14 UNK        -0.5000 
     84 N          -0.8945  -26.7015  -49.4123 N.am      15 UNK        -0.5000 
     85 CA         -1.2862  -26.8958  -50.8128 C.3       15 UNK         0.1400 
     86 CB         -0.1910  -26.3138  -51.7306 C.3       15 UNK        -0.1800 
     87 C          -2.6748  -26.3188  -51.1385 C.2       15 UNK         0.5000 
     88 O          -2.9335  -25.9840  -52.2973 O.2       15 UNK        -0.5000 
     89 N          -3.5442  -26.1824  -50.1254 N.am      16 UNK        -0.5000 
     90 CA         -4.9120  -25.6523  -50.2255 C.3       16 UNK         0.1400 
     91 CB         -5.8179  -26.6447  -50.9852 C.3       16 UNK        -0.1800 
     92 C          -4.9693  -24.2253  -50.8144 C.2       16 UNK         0.5000 
     93 O          -5.8865  -23.9107  -51.5717 O.2       16 UNK        -0.5000 
     94 N          -3.9593  -23.4027  -50.4909 N.am      17 UNK        -0.5000 
     95 CA         -3.7333  -22.0443  -50.9972 C.3       17 UNK         0.1400 
     96 CB         -4.8361  -21.0805  -50.5128 C.3       17 UNK        -0.1800 
     97 C          -3.5132  -22.0198  -52.5229 C.2       17 UNK         0.5000 
     98 O          -4.0453  -21.1519  -53.2171 O.2       17 UNK        -0.5000 
     99 N          -2.7503  -23.0116  -53.0089 N.am      18 UNK        -0.5000 
    100 CA        -2.4895  -23.3257  -54.4168 C.3       18 UNK         0.1400 
    101 CB        -1.6856  -22.1958  -55.0952 C.3       18 UNK        -0.1800 
    102 C         -3.7918  -23.6838  -55.1599 C.2       18 UNK         0.5000 
    103 O         -4.0536  -23.1554  -56.2398 O.2       18 UNK        -0.5000 
    104 N         -4.6090  -24.5404  -54.5278 N.am      19 UNK        -0.5000 
    105 CA        -5.9759  -24.9053  -54.9237 C.3       19 UNK         0.1400 
    106 CB        -5.9631  -25.7665  -56.2035 C.3       19 UNK        -0.1800 
    107 C         -6.9015  -23.6709  -55.0261 C.2       19 UNK         0.5000 
    108 O         -7.6059  -23.4935  -56.0215 O.2       19 UNK        -0.5000 
    109 N         -6.8452  -22.8291  -53.9848 N.am      20 UNK        -0.5000 
    110 CA        -7.5597  -21.5640  -53.7883 C.3       20 UNK         0.1400 
    111 CB        -9.0793  -21.8098  -53.6868 C.3       20 UNK        -0.1800 
    112 C         -7.2071  -20.4484  -54.7979 C.2       20 UNK         0.5000 
    113 O         -7.9508  -19.4703  -54.8954 O.2       20 UNK        -0.5000 
    114 N         -6.0885  -20.5868  -55.5231 N.am      21 UNK        -0.5000 
    115 CA        -5.6077  -19.5900  -56.4809 C.3       21 UNK         0.1400 
    116 CB        -4.6955  -20.2676  -57.5136 C.3       21 UNK        -0.1800 
    117 C         -4.8699  -18.4182  -55.8081 C.2       21 UNK         0.5000 
    118 O         -4.8516  -17.3249  -56.3751 O.2       21 UNK        -0.5000 
    119 N         -4.2653  -18.6629  -54.6356 N.am      22 UNK        -0.5000 
    120 CA        -3.4653  -17.7007  -53.8529 C.3       22 UNK         0.1400 
    121 C         -2.1394  -17.2459  -54.5410 C.2       22 UNK         0.5000 
    122 N         -1.6266  -17.9689  -55.5296 N.am      22 UNK        -0.7600 
    123 O         -1.5426  -16.2434  -54.1586 O.2       22 UNK        -0.5000 
    124 C124       -4.3085  -16.5091  -53.3089 C.3       23 UNK        -0.0398 
    125 S125       -5.5964  -17.0599  -52.1345 S.3       23 UNK        -0.2404 
    126 C126       -5.2678  -16.0039  -50.6744 C.3       23 UNK        -0.0205 
    127 H127        4.9071  -13.6610  -51.1281 H         1 UNK         0.0600 
    128 H128        3.7300  -14.2349  -49.9597 H         1 UNK         0.0600 
    129 H129        4.9850  -13.0804  -49.4687 H         1 UNK         0.0600 
    130 H130        1.7839  -11.0825  -50.1430 H         1 UNK         0.3000 
    131 H131        2.0147  -13.5193  -48.6402 H         1 UNK         0.0600 
    132 H132        0.4872  -10.9185  -48.1360 H         1 UNK         0.0800 
    133 H133        0.4021  -12.2925  -47.0715 H         1 UNK         0.0800 
    134 H134       -2.2614  -13.4194  -47.4756 H         1 UNK         0.0800 
    135 H135       -0.7525  -14.2853  -47.3147 H         1 UNK         0.0800 
    136 H136       -3.9105  -14.1247  -49.2667 H         1 UNK         0.1150 
    137 H137       -3.5055  -18.1526  -50.6906 H         1 UNK         0.1150 
    138 H138       -0.3142  -16.3289  -48.5129 H         1 UNK         0.1150 
    139 H139       -1.0761  -19.0098  -50.8003 H         1 UNK         0.0800 
    140 H140        0.0439  -18.4378  -49.5806 H         1 UNK         0.0800 
    141 H141       -0.3741  -21.5830  -49.8244 H         1 UNK         0.0800 
    142 H142        0.6588  -20.6722  -48.7590 H         1 UNK         0.0800 
    143 H143        0.4424  -22.9730  -48.0177 H         1 UNK         0.0600 
    144 H144       -0.2075  -20.8267  -46.2244 H         1 UNK         0.3000 
    145 H145        0.4783  -22.8439  -43.2846 H         1 UNK         0.0600 
    146 H146        1.8802  -20.8230  -42.9051 H         1 UNK         0.0600 
    147 H147        1.7606  -20.3961  -44.6101 H         1 UNK         0.0600 
    148 H148        2.5975  -21.8642  -44.1264 H         1 UNK         0.0600 
    149 H149       -0.4829  -20.2069  -43.4028 H         1 UNK         0.3000 
    150 H150       -3.9895  -20.8917  -43.4320 H         1 UNK         0.0600 
    151 H151       -3.3349  -21.2078  -41.0882 H         1 UNK         0.0600 
    152 H152       -3.7603  -19.5218  -41.3419 H         1 UNK         0.0600 
    153 H153       -2.0668  -20.0010  -41.2212 H         1 UNK         0.0600 
    154 H154       -2.1506  -18.5980  -43.3283 H         1 UNK         0.3000 
    155 H155       -2.4520  -17.8516  -46.7731 H         1 UNK         0.0600 
    156 H156       -4.6240  -16.9351  -45.9815 H         1 UNK         0.0600 
    157 H157       -3.3927  -15.6860  -46.0443 H         1 UNK         0.0600 
    158 H158       -3.8664  -16.3806  -44.4921 H         1 UNK         0.0600 
    159 H159       -1.3877  -16.3630  -44.5805 H         1 UNK         0.3000 
    160 H160        1.8196  -17.8968  -44.4868 H         1 UNK         0.0600 
    161 H161        0.8869  -15.1505  -45.4823 H         1 UNK         0.0600 
    162 H162        1.8593  -16.2869  -46.4124 H         1 UNK         0.0600 
    163 H163        2.5095  -15.5741  -44.9432 H         1 UNK         0.0600 
    164 H164        0.9907  -15.7193  -42.9986 H         1 UNK         0.3000 
    165 H165       -0.5551  -15.8716  -40.9731 H         1 UNK         0.0600 
    166 H166       -0.5983  -17.1401  -38.8249 H         1 UNK         0.0600 
    167 H167       -1.5296  -17.9484  -40.0719 H         1 UNK         0.0600 
    168 H168        0.0643  -18.5583  -39.6370 H         1 UNK         0.0600 
    169 H169        1.9056  -16.9110  -39.7630 H         1 UNK         0.3000 
    170 H170        3.4502  -15.0822  -39.1754 H         1 UNK         0.0600 
    171 H171        4.4217  -15.8559  -41.9925 H         1 UNK         0.0600 
    172 H172        5.4452  -15.7779  -40.5599 H         1 UNK         0.0600 
    173 H173        4.1595  -16.9692  -40.6543 H         1 UNK         0.0600 
    174 H174        3.7762  -13.3547  -41.5858 H         1 UNK         0.3000 
    175 H175        4.1920  -10.4922  -39.6441 H         1 UNK         0.0600 
    176 H176        6.5385  -11.7604  -41.1607 H         1 UNK         0.0600 
    177 H177        6.3352  -10.0402  -40.8245 H         1 UNK         0.0600 
    178 H178        6.5921  -11.1694  -39.5043 H         1 UNK         0.0600 
    179 H179        4.5641  -11.1004  -42.4520 H         1 UNK         0.3000 
    180 H180        1.3245  -11.6311  -43.3604 H         1 UNK         0.0600 
    181 H181        2.4129   -8.7930  -43.7503 H         1 UNK         0.0600 
    182 H182        0.8516   -9.1929  -43.0440 H         1 UNK         0.0600 
    183 H183        1.1684   -9.5715  -44.7286 H         1 UNK         0.0600 
    184 H184        3.2513  -10.7392  -45.1236 H         1 UNK         0.3000 
    185 H185        5.1876  -11.9608  -45.8710 H         1 UNK         0.0600 
    186 H186        4.8700  -14.9750  -45.3968 H         1 UNK         0.0600 
    187 H187        6.0373  -14.2075  -46.4710 H         1 UNK         0.0600 
    188 H188        6.1467  -13.9621  -44.7352 H         1 UNK         0.0600 
    189 H189        3.3671  -13.9647  -47.0030 H         1 UNK         0.3000 
    190 H190       -2.5541  -22.0758  -46.3735 H         1 UNK         0.3000 
    191 H191       -4.3243  -23.7317  -47.8948 H         1 UNK         0.0600 
    192 H192       -5.1942  -21.9440  -46.4719 H         1 UNK         0.0600 
    193 H193       -4.5636  -22.7278  -45.0242 H         1 UNK         0.0600 
    194 H194       -5.8458  -23.4883  -45.9530 H         1 UNK         0.0600 
    195 H195       -2.3968  -24.3177  -44.9283 H         1 UNK         0.3000 
    196 H196       -3.1511  -27.0586  -44.6069 H         1 UNK         0.0600 
    197 H197       -2.1863  -25.7034  -42.7713 H         1 UNK         0.0600 
    198 H198       -0.6663  -25.5414  -43.6462 H         1 UNK         0.0600 
    199 H199       -1.1870  -27.1192  -43.0660 H         1 UNK         0.0600 
    200 H200       -0.3931  -25.4954  -46.2928 H         1 UNK         0.3000 
    201 H201        0.9383  -27.9312  -46.9170 H         1 UNK         0.0600 
    202 H202        2.1087  -25.7631  -46.7091 H         1 UNK         0.0600 
    203 H203        1.2720  -25.1461  -48.1332 H         1 UNK         0.0600 
    204 H204        2.4098  -26.4769  -48.2855 H         1 UNK         0.0600 
    205 H205       -1.1376  -25.8034  -49.0006 H         1 UNK         0.3000 
    206 H206       -1.3698  -27.9645  -51.0195 H         1 UNK         0.0600 
    207 H207        0.7770  -26.7756  -51.5363 H         1 UNK         0.0600 
    208 H208       -0.0828  -25.2381  -51.5871 H         1 UNK         0.0600 
    209 H209       -0.4190  -26.4862  -52.7831 H         1 UNK         0.0600 
    210 H210       -3.2525  -26.4662  -49.1993 H         1 UNK         0.3000 
    211 H211       -5.3010  -25.5744  -49.2112 H         1 UNK         0.0600 
    212 H212       -5.5255  -26.7455  -52.0306 H         1 UNK         0.0600 
    213 H213       -6.8589  -26.3197  -50.9667 H         1 UNK         0.0600 
    214 H214       -5.7821  -27.6350  -50.5313 H         1 UNK         0.0600 
    215 H215       -3.2279  -23.7680  -49.8872 H         1 UNK         0.3000 
    216 H216       -2.7924  -21.7092  -50.5646 H         1 UNK         0.0600 
    217 H217       -4.6574  -20.0666  -50.8679 H         1 UNK         0.0600 
    218 H218       -4.8671  -21.0407  -49.4237 H         1 UNK         0.0600 
    219 H219       -5.8237  -21.3736  -50.8659 H         1 UNK         0.0600 
    220 H220       -2.4270  -23.7118  -52.3556 H         1 UNK         0.3000 
    221 H221       -1.8718  -24.2249  -54.4266 H         1 UNK         0.0600 
    222 H222       -2.2552  -21.2689  -55.1586 H         1 UNK         0.0600 
    223 H223       -0.7659  -21.9856  -54.5494 H         1 UNK         0.0600 
    224 H224       -1.4038  -22.4747  -56.1111 H         1 UNK         0.0600 
    225 H225       -4.2853  -24.9293  -53.6491 H         1 UNK         0.3000 
    226 H226       -6.3764  -25.5205  -54.1168 H         1 UNK         0.0600 
    227 H227       -5.3200  -26.6383  -56.0843 H         1 UNK         0.0600 
    228 H228       -6.9639  -26.1310  -56.4374 H         1 UNK         0.0600 
    229 H229       -5.6099  -25.2047  -57.0687 H         1 UNK         0.0600 
    230 H230       -6.2734  -23.1153  -53.1924 H         1 UNK         0.3000 
    231 H231       -7.2266  -21.1909  -52.8195 H         1 UNK         0.0600 
    232 H232       -9.6042  -20.9057  -53.3764 H         1 UNK         0.0600 
    233 H233       -9.3049  -22.5811  -52.9503 H         1 UNK         0.0600 
    234 H234       -9.5034  -22.1217  -54.6415 H         1 UNK         0.0600 
    235 H235       -5.5145  -21.4085  -55.3850 H         1 UNK         0.3000 
    236 H236       -6.4655  -19.1783  -57.0170 H         1 UNK         0.0600 
    237 H237       -3.7795  -20.6429  -57.0572 H         1 UNK         0.0600 
    238 H238       -5.1982  -21.1056  -57.9970 H         1 UNK         0.0600 
    239 H239       -4.4055  -19.5658  -58.2964 H         1 UNK         0.0600 
    240 H240       -4.3267  -19.5972  -54.2368 H         1 UNK         0.3000 
    241 H241       -3.1176  -18.2686  -52.9905 H         1 UNK         0.0600 
    242 H242       -0.7654  -17.6749  -55.9628 H         1 UNK         0.3800 
    243 H243       -2.0956  -18.7981  -55.8542 H         1 UNK         0.3800 
    244 H244       -4.7846  -15.9620  -54.1227 H         1 UNK         0.0800 
    245 H245       -3.6697  -15.7836  -52.8040 H         1 UNK         0.0800 
    246 H246       -5.9955  -16.2509  -49.9007 H         1 UNK         0.0800 
    247 H247       -5.4601  -14.9680  -50.9585 H         1 UNK         0.0800 
@<TRIPOS>BOND
     1    1    2 1    
     2    1  127 1    
     3    1  128 1    
     4    1  129 1    
     5    2    3 2    
     6    2    4 am   BACKBONE|DICT|INTERRES
     7    4    5 1    
     8    4  130 1    
     9    5    6 1    
    10    5   65 1    
    11    5  131 1    
    12    6    7 1    
    13    6  132 1    
    14    6  133 1    
    15    7    8 1    
    16    8    9 1    
    17    8  134 1    
    18    8  135 1    
    19    9   10 ar   
    20    9   14 ar   
    21   10   11 ar   
    22   10  136 1    
    23   11   12 ar   
    24   11  126 1    
    25   12   13 ar   
    26   12  137 1    
    27   13   14 ar   
    28   13   15 1    
    29   14  138 1    
    30   15   16 1    
    31   15  139 1    
    32   15  140 1    
    33   16   17 1    
    34   17   18 1    
    35   17  141 1    
    36   17  142 1    
    37   18   19 1    
    38   18   67 1    
    39   18  143 1    
    40   19   20 am   BACKBONE|DICT|INTERRES
    41   19  144 1    
    42   20   21 2    
    43   20   22 1    
    44   22   23 1    
    45   22   24 1    
    46   22  145 1    
    47   23  146 1    
    48   23  147 1    
    49   23  148 1    
    50   24   25 am   BACKBONE|DICT|INTERRES
    51   24  149 1    
    52   25   26 2    
    53   25   27 1    
    54   27   28 1    
    55   27   29 1    
    56   27  150 1    
    57   28  151 1    
    58   28  152 1    
    59   28  153 1    
    60   29   30 am   BACKBONE|DICT|INTERRES
    61   29  154 1    
    62   30   31 2    
    63   30   32 1    
    64   32   33 1    
    65   32   34 1    
    66   32  155 1    
    67   33  156 1    
    68   33  157 1    
    69   33  158 1    
    70   34   35 am   BACKBONE|DICT|INTERRES
    71   34  159 1    
    72   35   36 2    
    73   35   37 1    
    74   37   38 1    
    75   37   39 1    
    76   37  160 1    
    77   38  161 1    
    78   38  162 1    
    79   38  163 1    
    80   39   40 am   BACKBONE|DICT|INTERRES
    81   39  164 1    
    82   40   41 2    
    83   40   42 1    
    84   42   43 1    
    85   42   44 1    
    86   42  165 1    
    87   43  166 1    
    88   43  167 1    
    89   43  168 1    
    90   44   45 am   BACKBONE|DICT|INTERRES
    91   44  169 1    
    92   45   46 2    
    93   45   47 1    
    94   47   48 1    
    95   47   49 1    
    96   47  170 1    
    97   48  171 1    
    98   48  172 1    
    99   48  173 1    
   100   49   50 am   BACKBONE|DICT|INTERRES
   101   49  174 1    
   102   50   51 2    
   103   50   52 1    
   104   52   53 1    
   105   52   54 1    
   106   52  175 1    
   107   53  176 1    
   108   53  177 1    
   109   53  178 1    
   110   54   55 am   BACKBONE|DICT|INTERRES
   111   54  179 1    
   112   55   56 2    
   113   55   57 1    
   114   57   58 1    
   115   57   59 1    
   116   57  180 1    
   117   58  181 1    
   118   58  182 1    
   119   58  183 1    
   120   59   60 am   BACKBONE|DICT|INTERRES
   121   59  184 1    
   122   60   61 2    
   123   60   62 1    
   124   62   63 1    
   125   62   64 1    
   126   62  185 1    
   127   63  186 1    
   128   63  187 1    
   129   63  188 1    
   130   64   65 am   BACKBONE|DICT|INTERRES
   131   64  189 1    
   132   65   66 2    
   133   67   68 2    
   134   67   69 am   BACKBONE|DICT|INTERRES
   135   69   70 1    
   136   69  190 1    
   137   70   71 1    
   138   70   72 1    
   139   70  191 1    
   140   71  192 1    
   141   71  193 1    
   142   71  194 1    
   143   72   73 2    
   144   72   74 am   BACKBONE|DICT|INTERRES
   145   74   75 1    
   146   74  195 1    
   147   75   76 1    
   148   75   77 1    
   149   75  196 1    
   150   76  197 1    
   151   76  198 1    
   152   76  199 1    
   153   77   78 2    
   154   77   79 am   BACKBONE|DICT|INTERRES
   155   79   80 1    
   156   79  200 1    
   157   80   81 1    
   158   80   82 1    
   159   80  201 1    
   160   81  202 1    
   161   81  203 1    
   162   81  204 1    
   163   82   83 2    
   164   82   84 am   BACKBONE|DICT|INTERRES
   165   84   85 1    
   166   84  205 1    
   167   85   86 1    
   168   85   87 1    
   169   85  206 1    
   170   86  207 1    
   171   86  208 1    
   172   86  209 1    
   173   87   88 2    
   174   87   89 am   BACKBONE|DICT|INTERRES
   175   89   90 1    
   176   89  210 1    
   177   90   91 1    
   178   90   92 1    
   179   90  211 1    
   180   91  212 1    
   181   91  213 1    
   182   91  214 1    
   183   92   93 2    
   184   92   94 am   BACKBONE|DICT|INTERRES
   185   94   95 1    
   186   94  215 1    
   187   95   96 1    
   188   95   97 1    
   189   95  216 1    
   190   96  217 1    
   191   96  218 1    
   192   96  219 1    
   193   97   98 2    
   194   97   99 am   BACKBONE|DICT|INTERRES
   195   99  100 1    
   196   99  220 1    
   197  100  101 1    
   198  100  102 1    
   199  100  221 1    
   200  101  222 1    
   201  101  223 1    
   202  101  224 1    
   203  102  103 2    
   204  102  104 am   BACKBONE|DICT|INTERRES
   205  104  105 1    
   206  104  225 1    
   207  105  106 1    
   208  105  107 1    
   209  105  226 1    
   210  106  227 1    
   211  106  228 1    
   212  106  229 1    
   213  107  108 2    
   214  107  109 am   BACKBONE|DICT|INTERRES
   215  109  110 1    
   216  109  230 1    
   217  110  111 1    
   218  110  112 1    
   219  110  231 1    
   220  111  232 1    
   221  111  233 1    
   222  111  234 1    
   223  112  113 2    
   224  112  114 am   BACKBONE|DICT|INTERRES
   225  114  115 1    
   226  114  235 1    
   227  115  116 1    
   228  115  117 1    
   229  115  236 1    
   230  116  237 1    
   231  116  238 1    
   232  116  239 1    
   233  117  118 2    
   234  117  119 am   BACKBONE|DICT|INTERRES
   235  119  120 1    
   236  119  240 1    
   237  120  121 1    
   238  120  124 1    
   239  120  241 1    
   240  121  122 am   BACKBONE|DICT|INTERRES
   241  121  123 2    
   242  122  242 1    
   243  122  243 1    
   244  124  125 1    
   245  124  244 1    
   246  124  245 1    
   247  125  126 1    
   248  126  246 1    
   249  126  247 1    
@<TRIPOS>SUBSTRUCTURE
     1 UNK         1 GROUP             0       ****    0 ROOT    
