@<TRIPOS>MOLECULE
3R540
247   249    1
SMALL
USER_CHARGES


@<TRIPOS>ATOM
      1 CA         -0.2458  -10.1477  -50.4364 C.3       0 UNK        -0.1800 
      2 C           1.1492  -10.7353  -50.2795 C.2       0 UNK         0.5000 
      3 O           2.1363  -10.0731  -50.6033 O.2       0 UNK        -0.5000 
      4 N           1.2394  -11.9717  -49.7753 N.am      1 UNK        -0.5000 
      5 CA          2.4864  -12.7097  -49.5442 C.3       1 UNK         0.1400 
      6 C6          2.2653  -14.2439  -49.5444 C.3       23 UNK        -0.0398 
      7 S7          1.6219  -14.8761  -51.1291 S.3       23 UNK        -0.2404 
      8 C8         -0.1078  -15.2666  -50.6874 C.3       23 UNK        -0.0205 
      9 C9         -0.3322  -16.4871  -49.7888 C.ar      23 UNK        -0.0193 
     10 C10        -1.6526  -16.8291  -49.4800 C.ar      23 UNK        -0.1150 
     11 C11        -1.9396  -17.9405  -48.6855 C.ar      23 UNK        -0.0193 
     12 C12        -0.8919  -18.7224  -48.1998 C.ar      23 UNK        -0.1150 
     13 C13         0.4370  -18.3886  -48.4700 C.ar      23 UNK        -0.0193 
     14 C14         0.7087  -17.2735  -49.2698 C.ar      23 UNK        -0.1150 
     15 C15         1.5785  -19.2499  -47.9400 C.3       23 UNK        -0.0205 
     16 S16         1.9779  -18.9522  -46.1822 S.3       23 UNK        -0.2404 
     17 C17         0.6577  -19.7986  -45.2405 C.3       23 UNK        -0.0398 
     18 CA          0.6847  -21.3512  -45.3557 C.3       11 UNK         0.1400 
     19 N           0.4760  -22.0274  -44.0737 N.am      11 UNK        -0.5000 
     20 C           0.7142  -23.3311  -43.8582 C.2       10 UNK         0.5000 
     21 O           1.2247  -24.0810  -44.6902 O.2       10 UNK        -0.5000 
     22 CA          0.2623  -23.9053  -42.5019 C.3       10 UNK         0.1400 
     23 CB          1.3676  -23.7353  -41.4492 C.3       10 UNK        -0.1800 
     24 N          -0.9712  -23.2905  -42.0091 N.am      10 UNK        -0.5000 
     25 C          -2.1660  -23.3855  -42.6108 C.2       9 UNK         0.5000 
     26 O          -2.3725  -24.0628  -43.6160 O.2       9 UNK        -0.5000 
     27 CA         -3.3064  -22.5318  -42.0260 C.3       9 UNK         0.1400 
     28 CB         -4.0898  -23.3280  -40.9723 C.3       9 UNK        -0.1800 
     29 N          -2.8408  -21.2726  -41.4377 N.am      9 UNK        -0.5000 
     30 C          -2.2215  -20.2952  -42.1126 C.2       8 UNK         0.5000 
     31 O          -1.9573  -20.3504  -43.3174 O.2       8 UNK        -0.5000 
     32 CA         -1.7402  -19.0990  -41.2752 C.3       8 UNK         0.1400 
     33 CB         -0.2652  -19.2856  -40.8902 C.3       8 UNK        -0.1800 
     34 N          -1.8930  -17.8325  -41.9866 N.am      8 UNK        -0.5000 
     35 C          -3.0680  -17.2452  -42.2495 C.2       7 UNK         0.5000 
     36 O          -4.1548  -17.7067  -41.8976 O.2       7 UNK        -0.5000 
     37 CA         -3.0300  -15.9018  -43.0022 C.3       7 UNK         0.1400 
     38 CB         -3.2430  -14.7342  -42.0262 C.3       7 UNK        -0.1800 
     39 N          -1.7815  -15.6775  -43.7314 N.am      7 UNK        -0.5000 
     40 C          -1.4670  -16.2345  -44.9048 C.2       6 UNK         0.5000 
     41 O          -2.1901  -17.0432  -45.4825 O.2       6 UNK        -0.5000 
     42 CA         -0.1274  -15.8157  -45.5420 C.3       6 UNK         0.1400 
     43 CB         -0.1609  -14.3497  -46.0135 C.3       6 UNK        -0.1800 
     44 N           1.0585  -16.0776  -44.7161 N.am      6 UNK        -0.5000 
     45 C           1.4034  -15.5668  -43.5238 C.2       5 UNK         0.5000 
     46 O           0.7111  -14.7806  -42.8764 O.2       5 UNK        -0.5000 
     47 CA          2.7698  -16.0094  -42.9648 C.3       5 UNK         0.1400 
     48 CB          2.6436  -17.3373  -42.2049 C.3       5 UNK        -0.1800 
     49 N           3.7847  -16.1453  -44.0126 N.am      5 UNK        -0.5000 
     50 C           4.3433  -15.1054  -44.6462 C.2       4 UNK         0.5000 
     51 O           4.1208  -13.9303  -44.3429 O.2       4 UNK        -0.5000 
     52 CA          5.3083  -15.4470  -45.7969 C.3       4 UNK         0.1400 
     53 CB          4.6019  -16.2735  -46.8871 C.3       4 UNK        -0.1800 
     54 N           5.8083  -14.2191  -46.4096 N.am      4 UNK        -0.5000 
     55 C           7.0771  -13.7921  -46.3918 C.2       3 UNK         0.5000 
     56 O           7.9980  -14.4179  -45.8642 O.2       3 UNK        -0.5000 
     57 CA          7.3908  -12.4534  -47.0954 C.3       3 UNK         0.1400 
     58 CB          8.1726  -12.7019  -48.3954 C.3       3 UNK        -0.1800 
     59 N           6.1964  -11.6705  -47.4161 N.am      3 UNK        -0.5000 
     60 C           5.5030  -10.9314  -46.5400 C.2       2 UNK         0.5000 
     61 O           5.8540  -10.7492  -45.3738 O.2       2 UNK        -0.5000 
     62 CA          4.1903  -10.2962  -47.0467 C.3       2 UNK         0.1400 
     63 CB          4.4069   -8.8147  -47.3910 C.3       2 UNK        -0.1800 
     64 N           3.5911  -10.9673  -48.2070 N.am      2 UNK        -0.5000 
     65 C           3.1561  -12.2339  -48.2375 C.2       1 UNK         0.5000 
     66 O           3.2625  -13.0048  -47.2849 O.2       1 UNK        -0.5000 
     67 C          -0.3512  -21.8585  -46.3725 C.2       11 UNK         0.5000 
     68 O           0.0267  -22.2990  -47.4545 O.2       11 UNK        -0.5000 
     69 N          -1.6372  -21.8118  -45.9963 N.am      12 UNK        -0.5000 
     70 CA         -2.7656  -22.2086  -46.8428 C.3       12 UNK         0.1400 
     71 CB         -4.0753  -21.9139  -46.0980 C.3       12 UNK        -0.1800 
     72 C          -2.6984  -23.6775  -47.3100 C.2       12 UNK         0.5000 
     73 O          -3.0191  -23.9658  -48.4634 O.2       12 UNK        -0.5000 
     74 N          -2.2358  -24.5727  -46.4276 N.am      13 UNK        -0.5000 
     75 CA         -1.9681  -25.9775  -46.7320 C.3       13 UNK         0.1400 
     76 CB         -1.6670  -26.7337  -45.4291 C.3       13 UNK        -0.1800 
     77 C          -0.8211  -26.1618  -47.7437 C.2       13 UNK         0.5000 
     78 O          -0.9520  -26.9699  -48.6634 O.2       13 UNK        -0.5000 
     79 N           0.2704  -25.4033  -47.5688 N.am      14 UNK        -0.5000 
     80 CA          1.4450  -25.4280  -48.4432 C.3       14 UNK         0.1400 
     81 CB          2.6190  -24.7276  -47.7418 C.3       14 UNK        -0.1800 
     82 C           1.1771  -24.7944  -49.8209 C.2       14 UNK         0.5000 
     83 O           1.6457  -25.3165  -50.8330 O.2       14 UNK        -0.5000 
     84 N           0.4199  -23.6900  -49.8339 N.am      15 UNK        -0.5000 
     85 CA          0.0212  -22.9512  -51.0326 C.3       15 UNK         0.1400 
     86 CB         -0.5129  -21.5724  -50.6119 C.3       15 UNK        -0.1800 
     87 C          -1.0275  -23.6840  -51.8894 C.2       15 UNK         0.5000 
     88 O          -1.1441  -23.3731  -53.0744 O.2       15 UNK        -0.5000 
     89 N          -1.7612  -24.6237  -51.2734 N.am      16 UNK        -0.5000 
     90 CA         -2.9291  -25.3375  -51.7919 C.3       16 UNK         0.1400 
     91 CB         -2.6133  -26.1195  -53.0845 C.3       16 UNK        -0.1800 
     92 C          -4.1109  -24.3656  -51.9430 C.2       16 UNK         0.5000 
     93 O          -4.4070  -23.9064  -53.0468 O.2       16 UNK        -0.5000 
     94 N          -4.7328  -24.0532  -50.7985 N.am      17 UNK        -0.5000 
     95 CA         -5.7894  -23.0649  -50.5605 C.3       17 UNK         0.1400 
     96 CB         -6.4580  -23.3836  -49.2144 C.3       17 UNK        -0.1800 
     97 C          -6.8726  -22.9246  -51.6440 C.2       17 UNK         0.5000 
     98 O          -7.2581  -21.7991  -51.9570 O.2       17 UNK        -0.5000 
     99 N          -7.3323  -24.0538  -52.1985 N.am      18 UNK        -0.5000 
    100 CA        -8.3494  -24.1088  -53.2504 C.3       18 UNK         0.1400 
    101 CB        -8.8251  -25.5608  -53.4097 C.3       18 UNK        -0.1800 
    102 C         -7.8719  -23.5474  -54.6046 C.2       18 UNK         0.5000 
    103 O         -8.6855  -22.9993  -55.3491 O.2       18 UNK        -0.5000 
    104 N         -6.5729  -23.6872  -54.8975 N.am      19 UNK        -0.5000 
    105 CA        -5.9288  -23.1582  -56.0992 C.3       19 UNK         0.1400 
    106 CB        -4.8035  -24.1114  -56.5323 C.3       19 UNK        -0.1800 
    107 C         -5.3763  -21.7449  -55.8527 C.2       19 UNK         0.5000 
    108 O         -5.4669  -20.8929  -56.7371 O.2       19 UNK        -0.5000 
    109 N         -4.8276  -21.5185  -54.6512 N.am      20 UNK        -0.5000 
    110 CA        -4.2676  -20.2394  -54.2098 C.3       20 UNK         0.1400 
    111 CB        -3.4062  -20.4860  -52.9637 C.3       20 UNK        -0.1800 
    112 C         -5.3284  -19.1573  -53.9255 C.2       20 UNK         0.5000 
    113 O         -4.9889  -17.9736  -53.9220 O.2       20 UNK        -0.5000 
    114 N         -6.5778  -19.5830  -53.6882 N.am      21 UNK        -0.5000 
    115 CA        -7.7398  -18.7815  -53.2939 C.3       21 UNK         0.1400 
    116 CB        -8.1293  -17.7739  -54.3962 C.3       21 UNK        -0.1800 
    117 C         -7.5562  -18.1385  -51.9033 C.2       21 UNK         0.5000 
    118 O         -7.8991  -16.9710  -51.7048 O.2       21 UNK        -0.5000 
    119 N         -7.0075  -18.9214  -50.9661 N.am      22 UNK        -0.5000 
    120 CA        -6.8259  -18.5412  -49.5579 C.3       22 UNK         0.1400 
    121 C         -8.1786  -18.4836  -48.7957 C.2       22 UNK         0.5000 
    122 N         -8.3593  -17.5128  -47.9106 N.am      22 UNK        -0.7600 
    123 O         -9.0476  -19.3357  -48.9670 O.2       22 UNK        -0.5000 
    124 C124       -5.8375  -19.4838  -48.8263 C.3       23 UNK        -0.0398 
    125 S125       -4.1472  -19.4076  -49.5103 S.3       23 UNK        -0.2404 
    126 C126       -3.3760  -18.2748  -48.3160 C.3       23 UNK        -0.0205 
    127 H127       -0.4304   -9.8945  -51.4804 H         1 UNK         0.0600 
    128 H128       -1.0187  -10.8459  -50.1141 H         1 UNK         0.0600 
    129 H129       -0.3387   -9.2387  -49.8422 H         1 UNK         0.0600 
    130 H130        0.3949  -12.4506  -49.5007 H         1 UNK         0.3000 
    131 H131        3.1811  -12.4830  -50.3561 H         1 UNK         0.0600 
    132 H132        3.2100  -14.7585  -49.3607 H         1 UNK         0.0800 
    133 H133        1.5985  -14.5390  -48.7331 H         1 UNK         0.0800 
    134 H134       -0.6540  -15.4270  -51.6181 H         1 UNK         0.0800 
    135 H135       -0.5588  -14.3918  -50.2179 H         1 UNK         0.0800 
    136 H136       -2.4654  -16.2271  -49.8621 H         1 UNK         0.1150 
    137 H137       -1.1248  -19.5861  -47.6026 H         1 UNK         0.1150 
    138 H138        1.7383  -17.0366  -49.4902 H         1 UNK         0.1150 
    139 H139        1.3709  -20.3027  -48.1098 H         1 UNK         0.0800 
    140 H140        2.4812  -19.0465  -48.5179 H         1 UNK         0.0800 
    141 H141       -0.3128  -19.3653  -45.4869 H         1 UNK         0.0800 
    142 H142        0.8185  -19.5121  -44.2015 H         1 UNK         0.0800 
    143 H143        1.6712  -21.6547  -45.7139 H         1 UNK         0.0600 
    144 H144       -0.0237  -21.5049  -43.3685 H         1 UNK         0.3000 
    145 H145        0.0770  -24.9730  -42.6381 H         1 UNK         0.0600 
    146 H146        1.0892  -24.2047  -40.5055 H         1 UNK         0.0600 
    147 H147        2.2967  -24.2010  -41.7808 H         1 UNK         0.0600 
    148 H148        1.5795  -22.6835  -41.2523 H         1 UNK         0.0600 
    149 H149       -0.8969  -22.7213  -41.1793 H         1 UNK         0.3000 
    150 H150       -3.9867  -22.2847  -42.8430 H         1 UNK         0.0600 
    151 H151       -4.4678  -24.2619  -41.3908 H         1 UNK         0.0600 
    152 H152       -4.9501  -22.7644  -40.6108 H         1 UNK         0.0600 
    153 H153       -3.4678  -23.5814  -40.1129 H         1 UNK         0.0600 
    154 H154       -3.0081  -21.1540  -40.4487 H         1 UNK         0.3000 
    155 H155       -2.3321  -19.0466  -40.3588 H         1 UNK         0.0600 
    156 H156        0.0830  -18.4674  -40.2597 H         1 UNK         0.0600 
    157 H157       -0.1199  -20.2086  -40.3274 H         1 UNK         0.0600 
    158 H158        0.3785  -19.3340  -41.7684 H         1 UNK         0.0600 
    159 H159       -1.0550  -17.3968  -42.3386 H         1 UNK         0.3000 
    160 H160       -3.8557  -15.9035  -43.7171 H         1 UNK         0.0600 
    161 H161       -2.4372  -14.6714  -41.2937 H         1 UNK         0.0600 
    162 H162       -4.1789  -14.8470  -41.4775 H         1 UNK         0.0600 
    163 H163       -3.2904  -13.7822  -42.5552 H         1 UNK         0.0600 
    164 H164       -1.0869  -15.0741  -43.2980 H         1 UNK         0.3000 
    165 H165       -0.0031  -16.4324  -46.4321 H         1 UNK         0.0600 
    166 H166       -0.3088  -13.6559  -45.1855 H         1 UNK         0.0600 
    167 H167        0.7695  -14.0765  -46.5102 H         1 UNK         0.0600 
    168 H168       -0.9712  -14.1894  -46.7257 H         1 UNK         0.0600 
    169 H169        1.7042  -16.7380  -45.1271 H         1 UNK         0.3000 
    170 H170        3.1019  -15.2468  -42.2568 H         1 UNK         0.0600 
    171 H171        1.9093  -17.2557  -41.4032 H         1 UNK         0.0600 
    172 H172        2.3341  -18.1518  -42.8599 H         1 UNK         0.0600 
    173 H173        3.5912  -17.6195  -41.7459 H         1 UNK         0.0600 
    174 H174        4.0274  -17.0842  -44.2937 H         1 UNK         0.3000 
    175 H175        6.1301  -16.0355  -45.3846 H         1 UNK         0.0600 
    176 H176        3.6544  -15.8238  -47.1863 H         1 UNK         0.0600 
    177 H177        5.2229  -16.3698  -47.7779 H         1 UNK         0.0600 
    178 H178        4.3922  -17.2836  -46.5375 H         1 UNK         0.0600 
    179 H179        5.0841  -13.6031  -46.7657 H         1 UNK         0.3000 
    180 H180        8.0242  -11.8706  -46.4233 H         1 UNK         0.0600 
    181 H181        7.5899  -13.2844  -49.1102 H         1 UNK         0.0600 
    182 H182        9.0947  -13.2507  -48.1994 H         1 UNK         0.0600 
    183 H183        8.4516  -11.7630  -48.8740 H         1 UNK         0.0600 
    184 H184        5.8404  -11.7511  -48.3569 H         1 UNK         0.3000 
    185 H185        3.4704  -10.3549  -46.2278 H         1 UNK         0.0600 
    186 H186        4.8209   -8.2707  -46.5409 H         1 UNK         0.0600 
    187 H187        5.0976   -8.6942  -48.2266 H         1 UNK         0.0600 
    188 H188        3.4677   -8.3302  -47.6589 H         1 UNK         0.0600 
    189 H189        3.4184  -10.3957  -49.0276 H         1 UNK         0.3000 
    190 H190       -1.8618  -21.4327  -45.0822 H         1 UNK         0.3000 
    191 H191       -2.7359  -21.5815  -47.7359 H         1 UNK         0.0600 
    192 H192       -4.9374  -22.0522  -46.7485 H         1 UNK         0.0600 
    193 H193       -4.1049  -20.8832  -45.7432 H         1 UNK         0.0600 
    194 H194       -4.2038  -22.5696  -45.2368 H         1 UNK         0.0600 
    195 H195       -2.0678  -24.2738  -45.4704 H         1 UNK         0.3000 
    196 H196       -2.8721  -26.4040  -47.1716 H         1 UNK         0.0600 
    197 H197       -1.4648  -27.7874  -45.6249 H         1 UNK         0.0600 
    198 H198       -2.5128  -26.6868  -44.7430 H         1 UNK         0.0600 
    199 H199       -0.7979  -26.3202  -44.9156 H         1 UNK         0.0600 
    200 H200        0.2958  -24.7484  -46.7977 H         1 UNK         0.3000 
    201 H201        1.7247  -26.4709  -48.6066 H         1 UNK         0.0600 
    202 H202        2.8648  -25.2196  -46.8006 H         1 UNK         0.0600 
    203 H203        2.3946  -23.6831  -47.5227 H         1 UNK         0.0600 
    204 H204        3.5147  -24.7481  -48.3637 H         1 UNK         0.0600 
    205 H205        0.1369  -23.2882  -48.9410 H         1 UNK         0.3000 
    206 H206        0.9077  -22.8010  -51.6520 H         1 UNK         0.0600 
    207 H207        0.2427  -21.0080  -50.0681 H         1 UNK         0.0600 
    208 H208       -0.7932  -20.9755  -51.4800 H         1 UNK         0.0600 
    209 H209       -1.3933  -21.6577  -49.9732 H         1 UNK         0.0600 
    210 H210       -1.5854  -24.7553  -50.2860 H         1 UNK         0.3000 
    211 H211       -3.2019  -26.0705  -51.0309 H         1 UNK         0.0600 
    212 H212       -2.3898  -25.4638  -53.9261 H         1 UNK         0.0600 
    213 H213       -3.4643  -26.7352  -53.3772 H         1 UNK         0.0600 
    214 H214       -1.7620  -26.7852  -52.9430 H         1 UNK         0.0600 
    215 H215       -4.3058  -24.4072  -49.9486 H         1 UNK         0.3000 
    216 H216       -5.2899  -22.0997  -50.4763 H         1 UNK         0.0600 
    217 H217       -7.2303  -22.6532  -48.9694 H         1 UNK         0.0600 
    218 H218       -5.7340  -23.3803  -48.4023 H         1 UNK         0.0600 
    219 H219       -6.9318  -24.3659  -49.2269 H         1 UNK         0.0600 
    220 H220       -6.9477  -24.9337  -51.8879 H         1 UNK         0.3000 
    221 H221       -9.2004  -23.5055  -52.9272 H         1 UNK         0.0600 
    222 H222       -8.0098  -26.2207  -53.7092 H         1 UNK         0.0600 
    223 H223       -9.2435  -25.9436  -52.4786 H         1 UNK         0.0600 
    224 H224       -9.6042  -25.6356  -54.1695 H         1 UNK         0.0600 
    225 H225       -5.9522  -24.0794  -54.1960 H         1 UNK         0.3000 
    226 H226       -6.6537  -23.1017  -56.9141 H         1 UNK         0.0600 
    227 H227       -5.1919  -25.1079  -56.7430 H         1 UNK         0.0600 
    228 H228       -4.3169  -23.7526  -57.4400 H         1 UNK         0.0600 
    229 H229       -4.0350  -24.2078  -55.7642 H         1 UNK         0.0600 
    230 H230       -4.7428  -22.2999  -54.0066 H         1 UNK         0.3000 
    231 H231       -3.6191  -19.8584  -55.0013 H         1 UNK         0.0600 
    232 H232       -2.5730  -21.1474  -53.1946 H         1 UNK         0.0600 
    233 H233       -3.9834  -20.9434  -52.1606 H         1 UNK         0.0600 
    234 H234       -2.9855  -19.5556  -52.5798 H         1 UNK         0.0600 
    235 H235       -6.7215  -20.5842  -53.6405 H         1 UNK         0.3000 
    236 H236       -8.5673  -19.4851  -53.1914 H         1 UNK         0.0600 
    237 H237       -9.0775  -17.2891  -54.1616 H         1 UNK         0.0600 
    238 H238       -7.3832  -16.9878  -54.5137 H         1 UNK         0.0600 
    239 H239       -8.2486  -18.2706  -55.3591 H         1 UNK         0.0600 
    240 H240       -6.8184  -19.8865  -51.2072 H         1 UNK         0.3000 
    241 H241       -6.3957  -17.5375  -49.5461 H         1 UNK         0.0600 
    242 H242       -7.6618  -16.8025  -47.7504 H         1 UNK         0.3800 
    243 H243       -9.2276  -17.4741  -47.3993 H         1 UNK         0.3800 
    244 H244       -6.1870  -20.5136  -48.8807 H         1 UNK         0.0800 
    245 H245       -5.7939  -19.2454  -47.7618 H         1 UNK         0.0800 
    246 H246       -3.4045  -18.7251  -47.3223 H         1 UNK         0.0800 
    247 H247       -3.9624  -17.3570  -48.2525 H         1 UNK         0.0800 
@<TRIPOS>BOND
     1    1    2 1    
     2    1  127 1    
     3    1  128 1    
     4    1  129 1    
     5    2    3 2    
     6    2    4 am   BACKBONE|DICT|INTERRES
     7    4    5 1    
     8    4  130 1    
     9    5    6 1    
    10    5   65 1    
    11    5  131 1    
    12    6    7 1    
    13    6  132 1    
    14    6  133 1    
    15    7    8 1    
    16    8    9 1    
    17    8  134 1    
    18    8  135 1    
    19    9   10 ar   
    20    9   14 ar   
    21   10   11 ar   
    22   10  136 1    
    23   11   12 ar   
    24   11  126 1    
    25   12   13 ar   
    26   12  137 1    
    27   13   14 ar   
    28   13   15 1    
    29   14  138 1    
    30   15   16 1    
    31   15  139 1    
    32   15  140 1    
    33   16   17 1    
    34   17   18 1    
    35   17  141 1    
    36   17  142 1    
    37   18   19 1    
    38   18   67 1    
    39   18  143 1    
    40   19   20 am   BACKBONE|DICT|INTERRES
    41   19  144 1    
    42   20   21 2    
    43   20   22 1    
    44   22   23 1    
    45   22   24 1    
    46   22  145 1    
    47   23  146 1    
    48   23  147 1    
    49   23  148 1    
    50   24   25 am   BACKBONE|DICT|INTERRES
    51   24  149 1    
    52   25   26 2    
    53   25   27 1    
    54   27   28 1    
    55   27   29 1    
    56   27  150 1    
    57   28  151 1    
    58   28  152 1    
    59   28  153 1    
    60   29   30 am   BACKBONE|DICT|INTERRES
    61   29  154 1    
    62   30   31 2    
    63   30   32 1    
    64   32   33 1    
    65   32   34 1    
    66   32  155 1    
    67   33  156 1    
    68   33  157 1    
    69   33  158 1    
    70   34   35 am   BACKBONE|DICT|INTERRES
    71   34  159 1    
    72   35   36 2    
    73   35   37 1    
    74   37   38 1    
    75   37   39 1    
    76   37  160 1    
    77   38  161 1    
    78   38  162 1    
    79   38  163 1    
    80   39   40 am   BACKBONE|DICT|INTERRES
    81   39  164 1    
    82   40   41 2    
    83   40   42 1    
    84   42   43 1    
    85   42   44 1    
    86   42  165 1    
    87   43  166 1    
    88   43  167 1    
    89   43  168 1    
    90   44   45 am   BACKBONE|DICT|INTERRES
    91   44  169 1    
    92   45   46 2    
    93   45   47 1    
    94   47   48 1    
    95   47   49 1    
    96   47  170 1    
    97   48  171 1    
    98   48  172 1    
    99   48  173 1    
   100   49   50 am   BACKBONE|DICT|INTERRES
   101   49  174 1    
   102   50   51 2    
   103   50   52 1    
   104   52   53 1    
   105   52   54 1    
   106   52  175 1    
   107   53  176 1    
   108   53  177 1    
   109   53  178 1    
   110   54   55 am   BACKBONE|DICT|INTERRES
   111   54  179 1    
   112   55   56 2    
   113   55   57 1    
   114   57   58 1    
   115   57   59 1    
   116   57  180 1    
   117   58  181 1    
   118   58  182 1    
   119   58  183 1    
   120   59   60 am   BACKBONE|DICT|INTERRES
   121   59  184 1    
   122   60   61 2    
   123   60   62 1    
   124   62   63 1    
   125   62   64 1    
   126   62  185 1    
   127   63  186 1    
   128   63  187 1    
   129   63  188 1    
   130   64   65 am   BACKBONE|DICT|INTERRES
   131   64  189 1    
   132   65   66 2    
   133   67   68 2    
   134   67   69 am   BACKBONE|DICT|INTERRES
   135   69   70 1    
   136   69  190 1    
   137   70   71 1    
   138   70   72 1    
   139   70  191 1    
   140   71  192 1    
   141   71  193 1    
   142   71  194 1    
   143   72   73 2    
   144   72   74 am   BACKBONE|DICT|INTERRES
   145   74   75 1    
   146   74  195 1    
   147   75   76 1    
   148   75   77 1    
   149   75  196 1    
   150   76  197 1    
   151   76  198 1    
   152   76  199 1    
   153   77   78 2    
   154   77   79 am   BACKBONE|DICT|INTERRES
   155   79   80 1    
   156   79  200 1    
   157   80   81 1    
   158   80   82 1    
   159   80  201 1    
   160   81  202 1    
   161   81  203 1    
   162   81  204 1    
   163   82   83 2    
   164   82   84 am   BACKBONE|DICT|INTERRES
   165   84   85 1    
   166   84  205 1    
   167   85   86 1    
   168   85   87 1    
   169   85  206 1    
   170   86  207 1    
   171   86  208 1    
   172   86  209 1    
   173   87   88 2    
   174   87   89 am   BACKBONE|DICT|INTERRES
   175   89   90 1    
   176   89  210 1    
   177   90   91 1    
   178   90   92 1    
   179   90  211 1    
   180   91  212 1    
   181   91  213 1    
   182   91  214 1    
   183   92   93 2    
   184   92   94 am   BACKBONE|DICT|INTERRES
   185   94   95 1    
   186   94  215 1    
   187   95   96 1    
   188   95   97 1    
   189   95  216 1    
   190   96  217 1    
   191   96  218 1    
   192   96  219 1    
   193   97   98 2    
   194   97   99 am   BACKBONE|DICT|INTERRES
   195   99  100 1    
   196   99  220 1    
   197  100  101 1    
   198  100  102 1    
   199  100  221 1    
   200  101  222 1    
   201  101  223 1    
   202  101  224 1    
   203  102  103 2    
   204  102  104 am   BACKBONE|DICT|INTERRES
   205  104  105 1    
   206  104  225 1    
   207  105  106 1    
   208  105  107 1    
   209  105  226 1    
   210  106  227 1    
   211  106  228 1    
   212  106  229 1    
   213  107  108 2    
   214  107  109 am   BACKBONE|DICT|INTERRES
   215  109  110 1    
   216  109  230 1    
   217  110  111 1    
   218  110  112 1    
   219  110  231 1    
   220  111  232 1    
   221  111  233 1    
   222  111  234 1    
   223  112  113 2    
   224  112  114 am   BACKBONE|DICT|INTERRES
   225  114  115 1    
   226  114  235 1    
   227  115  116 1    
   228  115  117 1    
   229  115  236 1    
   230  116  237 1    
   231  116  238 1    
   232  116  239 1    
   233  117  118 2    
   234  117  119 am   BACKBONE|DICT|INTERRES
   235  119  120 1    
   236  119  240 1    
   237  120  121 1    
   238  120  124 1    
   239  120  241 1    
   240  121  122 am   BACKBONE|DICT|INTERRES
   241  121  123 2    
   242  122  242 1    
   243  122  243 1    
   244  124  125 1    
   245  124  244 1    
   246  124  245 1    
   247  125  126 1    
   248  126  246 1    
   249  126  247 1    
@<TRIPOS>SUBSTRUCTURE
     1 UNK         1 GROUP             0       ****    0 ROOT    
