@<TRIPOS>MOLECULE
3R540
247   249    1
SMALL
USER_CHARGES


@<TRIPOS>ATOM
      1 CA         -0.4080  -11.8104  -44.5933 C.3       0 UNK        -0.1800 
      2 C           0.4727  -11.5493  -45.8054 C.2       0 UNK         0.5000 
      3 O           0.1477  -10.6946  -46.6295 O.2       0 UNK        -0.5000 
      4 N           1.5931  -12.2735  -45.9093 N.am      1 UNK        -0.5000 
      5 CA          2.6098  -12.0991  -46.9539 C.3       1 UNK         0.1400 
      6 C6          3.5166  -13.3444  -47.0996 C.3       23 UNK        -0.0398 
      7 S7          2.5788  -14.8542  -47.5082 S.3       23 UNK        -0.2404 
      8 C8          2.9711  -15.0412  -49.2731 C.3       23 UNK        -0.0205 
      9 C9          2.4471  -16.3507  -49.8463 C.ar      23 UNK        -0.0193 
     10 C10         1.3548  -16.3600  -50.7215 C.ar      23 UNK        -0.1150 
     11 C11         0.9361  -17.5518  -51.3233 C.ar      23 UNK        -0.0193 
     12 C12         1.6121  -18.7386  -51.0331 C.ar      23 UNK        -0.1150 
     13 C13         2.6879  -18.7482  -50.1420 C.ar      23 UNK        -0.0193 
     14 C14         3.1003  -17.5512  -49.5504 C.ar      23 UNK        -0.1150 
     15 C15         3.4271  -20.0465  -49.8532 C.3       23 UNK        -0.0205 
     16 S16         2.7704  -20.8966  -48.3857 S.3       23 UNK        -0.2404 
     17 C17         1.0777  -21.2943  -48.9350 C.3       23 UNK        -0.0398 
     18 CA          0.4311  -22.4344  -48.1225 C.3       11 UNK         0.1400 
     19 N           0.3452  -22.1308  -46.6933 N.am      11 UNK        -0.5000 
     20 C          -0.0117  -23.0123  -45.7498 C.2       10 UNK         0.5000 
     21 O          -0.2562  -24.1982  -45.9759 O.2       10 UNK        -0.5000 
     22 CA         -0.1800  -22.4553  -44.3268 C.3       10 UNK         0.1400 
     23 CB          1.1727  -22.3588  -43.6055 C.3       10 UNK        -0.1800 
     24 N          -0.8288  -21.1434  -44.3442 N.am      10 UNK        -0.5000 
     25 C          -2.1248  -20.9545  -44.6292 C.2       9 UNK         0.5000 
     26 O          -2.9143  -21.8748  -44.8442 O.2       9 UNK        -0.5000 
     27 CA         -2.6099  -19.4961  -44.7297 C.3       9 UNK         0.1400 
     28 CB         -2.9618  -18.9441  -43.3406 C.3       9 UNK        -0.1800 
     29 N          -1.6283  -18.6192  -45.3712 N.am      9 UNK        -0.5000 
     30 C          -1.3117  -18.6713  -46.6746 C.2       8 UNK         0.5000 
     31 O          -1.8364  -19.4458  -47.4690 O.2       8 UNK        -0.5000 
     32 CA         -0.2036  -17.7334  -47.1852 C.3       8 UNK         0.1400 
     33 CB         -0.8272  -16.4245  -47.6929 C.3       8 UNK        -0.1800 
     34 N           0.8243  -17.4328  -46.1899 N.am      8 UNK        -0.5000 
     35 C           1.5502  -18.3309  -45.5078 C.2       7 UNK         0.5000 
     36 O           1.4463  -19.5490  -45.6499 O.2       7 UNK        -0.5000 
     37 CA          2.4860  -17.7728  -44.4198 C.3       7 UNK         0.1400 
     38 CB          3.9017  -17.5550  -44.9731 C.3       7 UNK        -0.1800 
     39 N           1.9951  -16.5268  -43.8212 N.am      7 UNK        -0.5000 
     40 C           0.8461  -16.3972  -43.1421 C.2       6 UNK         0.5000 
     41 O           0.0716  -17.3358  -42.9476 O.2       6 UNK        -0.5000 
     42 CA          0.4993  -14.9863  -42.6198 C.3       6 UNK         0.1400 
     43 CB         -0.7146  -14.9815  -41.6743 C.3       6 UNK        -0.1800 
     44 N           1.6223  -14.3320  -41.9446 N.am      6 UNK        -0.5000 
     45 C           2.6634  -13.7420  -42.5393 C.2       5 UNK         0.5000 
     46 O           2.7841  -13.6751  -43.7640 O.2       5 UNK        -0.5000 
     47 CA          3.7259  -13.1190  -41.6123 C.3       5 UNK         0.1400 
     48 CB          5.0254  -12.7837  -42.3629 C.3       5 UNK        -0.1800 
     49 N           3.2225  -11.9093  -40.9600 N.am      5 UNK        -0.5000 
     50 C           2.3584  -11.8929  -39.9339 C.2       4 UNK         0.5000 
     51 O           1.9225  -12.9160  -39.4024 O.2       4 UNK        -0.5000 
     52 CA          1.8990  -10.5208  -39.4004 C.3       4 UNK         0.1400 
     53 CB          2.6288  -10.1838  -38.0909 C.3       4 UNK        -0.1800 
     54 N           2.0930   -9.4184  -40.3431 N.am      4 UNK        -0.5000 
     55 C           1.4036   -9.2385  -41.4772 C.2       3 UNK         0.5000 
     56 O           0.5073   -9.9910  -41.8586 O.2       3 UNK        -0.5000 
     57 CA          1.7866   -8.0230  -42.3464 C.3       3 UNK         0.1400 
     58 CB          2.4851   -6.8886  -41.5626 C.3       3 UNK        -0.1800 
     59 N           2.5881   -8.4137  -43.5106 N.am      3 UNK        -0.5000 
     60 C           3.7673   -9.0510  -43.5055 C.2       2 UNK         0.5000 
     61 O           4.3378   -9.4445  -42.4861 O.2       2 UNK        -0.5000 
     62 CA          4.3574   -9.3621  -44.8860 C.3       2 UNK         0.1400 
     63 CB          5.8781   -9.6107  -44.8602 C.3       2 UNK        -0.1800 
     64 N           3.6571  -10.5336  -45.3915 N.am      2 UNK        -0.5000 
     65 C           3.4699  -10.8484  -46.6781 C.2       1 UNK         0.5000 
     66 O           3.9255  -10.1971  -47.6189 O.2       1 UNK        -0.5000 
     67 C          -0.9473  -22.8149  -48.7027 C.2       11 UNK         0.5000 
     68 O          -1.0367  -23.7996  -49.4311 O.2       11 UNK        -0.5000 
     69 N          -2.0050  -22.0802  -48.3238 N.am      12 UNK        -0.5000 
     70 CA         -3.3988  -22.3782  -48.6547 C.3       12 UNK         0.1400 
     71 CB         -4.3273  -21.2821  -48.1111 C.3       12 UNK        -0.1800 
     72 C          -3.8519  -23.7518  -48.1426 C.2       12 UNK         0.5000 
     73 O          -4.4716  -24.4933  -48.9026 O.2       12 UNK        -0.5000 
     74 N          -3.5140  -24.0819  -46.8882 N.am      13 UNK        -0.5000 
     75 CA         -3.7984  -25.3820  -46.2775 C.3       13 UNK         0.1400 
     76 CB         -3.4056  -25.3585  -44.7929 C.3       13 UNK        -0.1800 
     77 C          -3.1152  -26.5478  -47.0179 C.2       13 UNK         0.5000 
     78 O          -3.7611  -27.5667  -47.2677 O.2       13 UNK        -0.5000 
     79 N          -1.8458  -26.3547  -47.4058 N.am      14 UNK        -0.5000 
     80 CA         -1.0824  -27.2872  -48.2394 C.3       14 UNK         0.1400 
     81 CB          0.3909  -26.8540  -48.2748 C.3       14 UNK        -0.1800 
     82 C          -1.6544  -27.4205  -49.6662 C.2       14 UNK         0.5000 
     83 O          -1.6814  -28.5238  -50.2112 O.2       14 UNK        -0.5000 
     84 N          -2.1477  -26.3073  -50.2229 N.am      15 UNK        -0.5000 
     85 CA         -2.8053  -26.2002  -51.5270 C.3       15 UNK         0.1400 
     86 CB         -2.5833  -24.7798  -52.0800 C.3       15 UNK        -0.1800 
     87 C          -4.3051  -26.5732  -51.4966 C.2       15 UNK         0.5000 
     88 O          -5.0604  -26.0834  -52.3365 O.2       15 UNK        -0.5000 
     89 N          -4.7166  -27.4258  -50.5454 N.am      16 UNK        -0.5000 
     90 CA         -6.0571  -28.0022  -50.3867 C.3       16 UNK         0.1400 
     91 CB         -6.3613  -28.9764  -51.5444 C.3       16 UNK        -0.1800 
     92 C          -7.1587  -26.9399  -50.1868 C.2       16 UNK         0.5000 
     93 O          -8.1833  -26.9688  -50.8710 O.2       16 UNK        -0.5000 
     94 N          -6.9066  -26.0181  -49.2474 N.am      17 UNK        -0.5000 
     95 CA         -7.7192  -24.8440  -48.9086 C.3       17 UNK         0.1400 
     96 CB         -9.1196  -25.2457  -48.3982 C.3       17 UNK        -0.1800 
     97 C          -7.7469  -23.8159  -50.0582 C.2       17 UNK         0.5000 
     98 O          -8.8059  -23.2834  -50.3943 O.2       17 UNK        -0.5000 
     99 N          -6.5570  -23.5653  -50.6232 N.am      18 UNK        -0.5000 
    100 CA        -6.2540  -22.6651  -51.7368 C.3       18 UNK         0.1400 
    101 CB        -6.4033  -21.1892  -51.3107 C.3       18 UNK        -0.1800 
    102 C         -7.0545  -23.0019  -53.0084 C.2       18 UNK         0.5000 
    103 O         -7.8450  -22.1812  -53.4799 O.2       18 UNK        -0.5000 
    104 N         -6.8369  -24.2122  -53.5405 N.am      19 UNK        -0.5000 
    105 CA        -7.3565  -24.6643  -54.8304 C.3       19 UNK         0.1400 
    106 CB        -7.0134  -26.1502  -55.0231 C.3       19 UNK        -0.1800 
    107 C         -6.7855  -23.7932  -55.9662 C.2       19 UNK         0.5000 
    108 O         -5.6004  -23.9017  -56.2848 O.2       19 UNK        -0.5000 
    109 N         -7.6256  -22.8890  -56.4860 N.am      20 UNK        -0.5000 
    110 CA        -7.3370  -21.7804  -57.4053 C.3       20 UNK         0.1400 
    111 CB        -6.6627  -22.2538  -58.7079 C.3       20 UNK        -0.1800 
    112 C         -6.5608  -20.6180  -56.7505 C.2       20 UNK         0.5000 
    113 O         -6.9345  -19.4626  -56.9572 O.2       20 UNK        -0.5000 
    114 N         -5.5243  -20.9247  -55.9629 N.am      21 UNK        -0.5000 
    115 CA        -4.6979  -19.9788  -55.2171 C.3       21 UNK         0.1400 
    116 CB        -3.7559  -19.2258  -56.1793 C.3       21 UNK        -0.1800 
    117 C         -3.8948  -20.7352  -54.1471 C.2       21 UNK         0.5000 
    118 O         -3.8788  -21.9677  -54.1462 O.2       21 UNK        -0.5000 
    119 N         -3.2184  -19.9837  -53.2693 N.am      22 UNK        -0.5000 
    120 CA        -2.2419  -20.5006  -52.2923 C.3       22 UNK         0.1400 
    121 C         -0.9305  -21.0749  -52.9084 C.2       22 UNK         0.5000 
    122 N         -0.6341  -20.8586  -54.1843 N.am      22 UNK        -0.7600 
    123 O         -0.1682  -21.7372  -52.2137 O.2       22 UNK        -0.5000 
    124 C124       -1.9469  -19.4904  -51.1411 C.3       23 UNK        -0.0398 
    125 S125       -1.8469  -17.7239  -51.6162 S.3       23 UNK        -0.2404 
    126 C126       -0.1883  -17.5473  -52.3499 C.3       23 UNK        -0.0205 
    127 H127       -0.9907  -10.9227  -44.3465 H         1 UNK         0.0600 
    128 H128        0.1932  -12.0621  -43.7199 H         1 UNK         0.0600 
    129 H129       -1.0984  -12.6293  -44.7944 H         1 UNK         0.0600 
    130 H130        1.8377  -12.9421  -45.1830 H         1 UNK         0.3000 
    131 H131        2.1009  -11.9414  -47.9074 H         1 UNK         0.0600 
    132 H132        4.0615  -13.5321  -46.1726 H         1 UNK         0.0800 
    133 H133        4.2773  -13.1761  -47.8639 H         1 UNK         0.0800 
    134 H134        4.0528  -15.0066  -49.4103 H         1 UNK         0.0800 
    135 H135        2.5627  -14.1908  -49.8212 H         1 UNK         0.0800 
    136 H136        0.8503  -15.4346  -50.9615 H         1 UNK         0.1150 
    137 H137        1.3114  -19.6568  -51.5152 H         1 UNK         0.1150 
    138 H138        3.9434  -17.5491  -48.8738 H         1 UNK         0.1150 
    139 H139        3.3758  -20.7141  -50.7148 H         1 UNK         0.0800 
    140 H140        4.4863  -19.8391  -49.6941 H         1 UNK         0.0800 
    141 H141        1.1245  -21.5745  -49.9873 H         1 UNK         0.0800 
    142 H142        0.4732  -20.3900  -48.8749 H         1 UNK         0.0800 
    143 H143        1.0709  -23.3137  -48.2244 H         1 UNK         0.0600 
    144 H144        0.5929  -21.1870  -46.4111 H         1 UNK         0.3000 
    145 H145       -0.8133  -23.1474  -43.7675 H         1 UNK         0.0600 
    146 H146        1.0506  -21.9917  -42.5864 H         1 UNK         0.0600 
    147 H147        1.6493  -23.3379  -43.5439 H         1 UNK         0.0600 
    148 H148        1.8636  -21.6918  -44.1216 H         1 UNK         0.0600 
    149 H149       -0.2269  -20.3365  -44.2510 H         1 UNK         0.3000 
    150 H150       -3.5185  -19.4870  -45.3352 H         1 UNK         0.0600 
    151 H151       -3.7374  -19.5477  -42.8675 H         1 UNK         0.0600 
    152 H152       -3.3377  -17.9228  -43.4044 H         1 UNK         0.0600 
    153 H153       -2.0977  -18.9424  -42.6755 H         1 UNK         0.0600 
    154 H154       -1.1193  -17.9877  -44.7656 H         1 UNK         0.3000 
    155 H155        0.2903  -18.2234  -48.0256 H         1 UNK         0.0600 
    156 H156       -1.2777  -15.8504  -46.8824 H         1 UNK         0.0600 
    157 H157       -1.6069  -16.6247  -48.4294 H         1 UNK         0.0600 
    158 H158       -0.0876  -15.7932  -48.1818 H         1 UNK         0.0600 
    159 H159        1.0079  -16.4550  -46.0197 H         1 UNK         0.3000 
    160 H160        2.5427  -18.5211  -43.6266 H         1 UNK         0.0600 
    161 H161        4.5906  -17.2511  -44.1849 H         1 UNK         0.0600 
    162 H162        4.2937  -18.4737  -45.4119 H         1 UNK         0.0600 
    163 H163        3.9209  -16.7893  -45.7480 H         1 UNK         0.0600 
    164 H164        2.5566  -15.6945  -43.9618 H         1 UNK         0.3000 
    165 H165        0.2303  -14.4003  -43.4988 H         1 UNK         0.0600 
    166 H166       -0.9685  -13.9669  -41.3663 H         1 UNK         0.0600 
    167 H167       -1.5962  -15.4002  -42.1615 H         1 UNK         0.0600 
    168 H168       -0.5244  -15.5679  -40.7746 H         1 UNK         0.0600 
    169 H169        1.5824  -14.2962  -40.9320 H         1 UNK         0.3000 
    170 H170        3.9707  -13.8569  -40.8454 H         1 UNK         0.0600 
    171 H171        4.8502  -12.0739  -43.1695 H         1 UNK         0.0600 
    172 H172        5.7708  -12.3537  -41.6939 H         1 UNK         0.0600 
    173 H173        5.4617  -13.6796  -42.8062 H         1 UNK         0.0600 
    174 H174        3.5317  -11.0244  -41.3479 H         1 UNK         0.3000 
    175 H175        0.8312  -10.5984  -39.1857 H         1 UNK         0.0600 
    176 H176        3.7032  -10.0767  -38.2458 H         1 UNK         0.0600 
    177 H177        2.2565   -9.2546  -37.6591 H         1 UNK         0.0600 
    178 H178        2.4808  -10.9679  -37.3470 H         1 UNK         0.0600 
    179 H179        2.8403   -8.7723  -40.1336 H         1 UNK         0.3000 
    180 H180        0.8496   -7.6208  -42.7348 H         1 UNK         0.0600 
    181 H181        3.4709   -7.1774  -41.1971 H         1 UNK         0.0600 
    182 H182        1.8885   -6.5809  -40.7028 H         1 UNK         0.0600 
    183 H183        2.6160   -6.0083  -42.1919 H         1 UNK         0.0600 
    184 H184        2.1745   -8.1953  -44.4065 H         1 UNK         0.3000 
    185 H185        4.1589   -8.5069  -45.5359 H         1 UNK         0.0600 
    186 H186        6.4037   -8.7525  -44.4401 H         1 UNK         0.0600 
    187 H187        6.1419  -10.4817  -44.2609 H         1 UNK         0.0600 
    188 H188        6.2683   -9.7693  -45.8655 H         1 UNK         0.0600 
    189 H189        3.2244  -11.1209  -44.6915 H         1 UNK         0.3000 
    190 H190       -1.8519  -21.2347  -47.7785 H         1 UNK         0.3000 
    191 H191       -3.4872  -22.3867  -49.7418 H         1 UNK         0.0600 
    192 H192       -4.2058  -21.1453  -47.0378 H         1 UNK         0.0600 
    193 H193       -5.3749  -21.5309  -48.2848 H         1 UNK         0.0600 
    194 H194       -4.1367  -20.3236  -48.5922 H         1 UNK         0.0600 
    195 H195       -3.0402  -23.3972  -46.3096 H         1 UNK         0.3000 
    196 H196       -4.8769  -25.5422  -46.3362 H         1 UNK         0.0600 
    197 H197       -3.6525  -26.3046  -44.3098 H         1 UNK         0.0600 
    198 H198       -3.9367  -24.5711  -44.2577 H         1 UNK         0.0600 
    199 H199       -2.3374  -25.1910  -44.6578 H         1 UNK         0.0600 
    200 H200       -1.3778  -25.4973  -47.1300 H         1 UNK         0.3000 
    201 H201       -1.1333  -28.2718  -47.7700 H         1 UNK         0.0600 
    202 H202        0.8137  -26.8130  -47.2707 H         1 UNK         0.0600 
    203 H203        0.5129  -25.8702  -48.7278 H         1 UNK         0.0600 
    204 H204        0.9905  -27.5580  -48.8530 H         1 UNK         0.0600 
    205 H205       -2.0271  -25.4319  -49.7214 H         1 UNK         0.3000 
    206 H206       -2.3254  -26.8991  -52.2144 H         1 UNK         0.0600 
    207 H207       -1.5222  -24.5341  -52.1263 H         1 UNK         0.0600 
    208 H208       -2.9803  -24.6758  -53.0908 H         1 UNK         0.0600 
    209 H209       -3.0706  -24.0297  -51.4582 H         1 UNK         0.0600 
    210 H210       -4.0272  -27.7378  -49.8752 H         1 UNK         0.3000 
    211 H211       -6.0297  -28.5870  -49.4661 H         1 UNK         0.0600 
    212 H212       -6.4326  -28.4593  -52.5018 H         1 UNK         0.0600 
    213 H213       -7.3071  -29.4944  -51.3814 H         1 UNK         0.0600 
    214 H214       -5.5864  -29.7379  -51.6322 H         1 UNK         0.0600 
    215 H215       -5.9870  -26.0318  -48.8225 H         1 UNK         0.3000 
    216 H216       -7.2057  -24.3532  -48.0804 H         1 UNK         0.0600 
    217 H217       -9.6529  -24.3781  -48.0084 H         1 UNK         0.0600 
    218 H218       -9.0508  -25.9738  -47.5900 H         1 UNK         0.0600 
    219 H219       -9.7362  -25.6761  -49.1874 H         1 UNK         0.0600 
    220 H220       -5.7635  -24.0741  -50.2437 H         1 UNK         0.3000 
    221 H221       -5.2046  -22.8288  -51.9833 H         1 UNK         0.0600 
    222 H222       -7.4086  -20.9673  -50.9521 H         1 UNK         0.0600 
    223 H223       -5.6987  -20.9314  -50.5238 H         1 UNK         0.0600 
    224 H224       -6.2011  -20.5175  -52.1454 H         1 UNK         0.0600 
    225 H225       -6.1773  -24.8403  -53.0836 H         1 UNK         0.3000 
    226 H226       -8.4440  -24.5682  -54.8134 H         1 UNK         0.0600 
    227 H227       -7.4490  -26.7593  -54.2305 H         1 UNK         0.0600 
    228 H228       -7.4013  -26.5205  -55.9725 H         1 UNK         0.0600 
    229 H229       -5.9358  -26.3199  -55.0180 H         1 UNK         0.0600 
    230 H230       -8.5549  -22.8573  -56.0888 H         1 UNK         0.3000 
    231 H231       -8.3140  -21.3804  -57.6814 H         1 UNK         0.0600 
    232 H232       -7.2264  -23.0619  -59.1740 H         1 UNK         0.0600 
    233 H233       -5.6444  -22.6052  -58.5409 H         1 UNK         0.0600 
    234 H234       -6.6057  -21.4381  -59.4295 H         1 UNK         0.0600 
    235 H235       -5.2828  -21.9027  -55.8218 H         1 UNK         0.3000 
    236 H236       -5.3500  -19.2670  -54.7070 H         1 UNK         0.0600 
    237 H237       -3.1243  -18.5151  -55.6453 H         1 UNK         0.0600 
    238 H238       -3.1001  -19.9135  -56.7146 H         1 UNK         0.0600 
    239 H239       -4.3141  -18.6550  -56.9211 H         1 UNK         0.0600 
    240 H240       -3.2799  -18.9765  -53.3222 H         1 UNK         0.3000 
    241 H241       -2.7120  -21.3674  -51.8239 H         1 UNK         0.0600 
    242 H242        0.2132  -21.2501  -54.5637 H         1 UNK         0.3800 
    243 H243       -1.2499  -20.3289  -54.7776 H         1 UNK         0.3800 
    244 H244       -2.7603  -19.5553  -50.4182 H         1 UNK         0.0800 
    245 H245       -1.0579  -19.7647  -50.5736 H         1 UNK         0.0800 
    246 H246       -0.1614  -16.6061  -52.9010 H         1 UNK         0.0800 
    247 H247       -0.0254  -18.3240  -53.0963 H         1 UNK         0.0800 
@<TRIPOS>BOND
     1    1    2 1    
     2    1  127 1    
     3    1  128 1    
     4    1  129 1    
     5    2    3 2    
     6    2    4 am   BACKBONE|DICT|INTERRES
     7    4    5 1    
     8    4  130 1    
     9    5    6 1    
    10    5   65 1    
    11    5  131 1    
    12    6    7 1    
    13    6  132 1    
    14    6  133 1    
    15    7    8 1    
    16    8    9 1    
    17    8  134 1    
    18    8  135 1    
    19    9   10 ar   
    20    9   14 ar   
    21   10   11 ar   
    22   10  136 1    
    23   11   12 ar   
    24   11  126 1    
    25   12   13 ar   
    26   12  137 1    
    27   13   14 ar   
    28   13   15 1    
    29   14  138 1    
    30   15   16 1    
    31   15  139 1    
    32   15  140 1    
    33   16   17 1    
    34   17   18 1    
    35   17  141 1    
    36   17  142 1    
    37   18   19 1    
    38   18   67 1    
    39   18  143 1    
    40   19   20 am   BACKBONE|DICT|INTERRES
    41   19  144 1    
    42   20   21 2    
    43   20   22 1    
    44   22   23 1    
    45   22   24 1    
    46   22  145 1    
    47   23  146 1    
    48   23  147 1    
    49   23  148 1    
    50   24   25 am   BACKBONE|DICT|INTERRES
    51   24  149 1    
    52   25   26 2    
    53   25   27 1    
    54   27   28 1    
    55   27   29 1    
    56   27  150 1    
    57   28  151 1    
    58   28  152 1    
    59   28  153 1    
    60   29   30 am   BACKBONE|DICT|INTERRES
    61   29  154 1    
    62   30   31 2    
    63   30   32 1    
    64   32   33 1    
    65   32   34 1    
    66   32  155 1    
    67   33  156 1    
    68   33  157 1    
    69   33  158 1    
    70   34   35 am   BACKBONE|DICT|INTERRES
    71   34  159 1    
    72   35   36 2    
    73   35   37 1    
    74   37   38 1    
    75   37   39 1    
    76   37  160 1    
    77   38  161 1    
    78   38  162 1    
    79   38  163 1    
    80   39   40 am   BACKBONE|DICT|INTERRES
    81   39  164 1    
    82   40   41 2    
    83   40   42 1    
    84   42   43 1    
    85   42   44 1    
    86   42  165 1    
    87   43  166 1    
    88   43  167 1    
    89   43  168 1    
    90   44   45 am   BACKBONE|DICT|INTERRES
    91   44  169 1    
    92   45   46 2    
    93   45   47 1    
    94   47   48 1    
    95   47   49 1    
    96   47  170 1    
    97   48  171 1    
    98   48  172 1    
    99   48  173 1    
   100   49   50 am   BACKBONE|DICT|INTERRES
   101   49  174 1    
   102   50   51 2    
   103   50   52 1    
   104   52   53 1    
   105   52   54 1    
   106   52  175 1    
   107   53  176 1    
   108   53  177 1    
   109   53  178 1    
   110   54   55 am   BACKBONE|DICT|INTERRES
   111   54  179 1    
   112   55   56 2    
   113   55   57 1    
   114   57   58 1    
   115   57   59 1    
   116   57  180 1    
   117   58  181 1    
   118   58  182 1    
   119   58  183 1    
   120   59   60 am   BACKBONE|DICT|INTERRES
   121   59  184 1    
   122   60   61 2    
   123   60   62 1    
   124   62   63 1    
   125   62   64 1    
   126   62  185 1    
   127   63  186 1    
   128   63  187 1    
   129   63  188 1    
   130   64   65 am   BACKBONE|DICT|INTERRES
   131   64  189 1    
   132   65   66 2    
   133   67   68 2    
   134   67   69 am   BACKBONE|DICT|INTERRES
   135   69   70 1    
   136   69  190 1    
   137   70   71 1    
   138   70   72 1    
   139   70  191 1    
   140   71  192 1    
   141   71  193 1    
   142   71  194 1    
   143   72   73 2    
   144   72   74 am   BACKBONE|DICT|INTERRES
   145   74   75 1    
   146   74  195 1    
   147   75   76 1    
   148   75   77 1    
   149   75  196 1    
   150   76  197 1    
   151   76  198 1    
   152   76  199 1    
   153   77   78 2    
   154   77   79 am   BACKBONE|DICT|INTERRES
   155   79   80 1    
   156   79  200 1    
   157   80   81 1    
   158   80   82 1    
   159   80  201 1    
   160   81  202 1    
   161   81  203 1    
   162   81  204 1    
   163   82   83 2    
   164   82   84 am   BACKBONE|DICT|INTERRES
   165   84   85 1    
   166   84  205 1    
   167   85   86 1    
   168   85   87 1    
   169   85  206 1    
   170   86  207 1    
   171   86  208 1    
   172   86  209 1    
   173   87   88 2    
   174   87   89 am   BACKBONE|DICT|INTERRES
   175   89   90 1    
   176   89  210 1    
   177   90   91 1    
   178   90   92 1    
   179   90  211 1    
   180   91  212 1    
   181   91  213 1    
   182   91  214 1    
   183   92   93 2    
   184   92   94 am   BACKBONE|DICT|INTERRES
   185   94   95 1    
   186   94  215 1    
   187   95   96 1    
   188   95   97 1    
   189   95  216 1    
   190   96  217 1    
   191   96  218 1    
   192   96  219 1    
   193   97   98 2    
   194   97   99 am   BACKBONE|DICT|INTERRES
   195   99  100 1    
   196   99  220 1    
   197  100  101 1    
   198  100  102 1    
   199  100  221 1    
   200  101  222 1    
   201  101  223 1    
   202  101  224 1    
   203  102  103 2    
   204  102  104 am   BACKBONE|DICT|INTERRES
   205  104  105 1    
   206  104  225 1    
   207  105  106 1    
   208  105  107 1    
   209  105  226 1    
   210  106  227 1    
   211  106  228 1    
   212  106  229 1    
   213  107  108 2    
   214  107  109 am   BACKBONE|DICT|INTERRES
   215  109  110 1    
   216  109  230 1    
   217  110  111 1    
   218  110  112 1    
   219  110  231 1    
   220  111  232 1    
   221  111  233 1    
   222  111  234 1    
   223  112  113 2    
   224  112  114 am   BACKBONE|DICT|INTERRES
   225  114  115 1    
   226  114  235 1    
   227  115  116 1    
   228  115  117 1    
   229  115  236 1    
   230  116  237 1    
   231  116  238 1    
   232  116  239 1    
   233  117  118 2    
   234  117  119 am   BACKBONE|DICT|INTERRES
   235  119  120 1    
   236  119  240 1    
   237  120  121 1    
   238  120  124 1    
   239  120  241 1    
   240  121  122 am   BACKBONE|DICT|INTERRES
   241  121  123 2    
   242  122  242 1    
   243  122  243 1    
   244  124  125 1    
   245  124  244 1    
   246  124  245 1    
   247  125  126 1    
   248  126  246 1    
   249  126  247 1    
@<TRIPOS>SUBSTRUCTURE
     1 UNK         1 GROUP             0       ****    0 ROOT    
