@<TRIPOS>MOLECULE
3R540
247   249    1
SMALL
USER_CHARGES


@<TRIPOS>ATOM
      1 CA          5.1122  -14.1887  -42.6109 C.3       0 UNK        -0.1800 
      2 C           4.4725  -15.4979  -43.0691 C.2       0 UNK         0.5000 
      3 O           4.8047  -16.5526  -42.5322 O.2       0 UNK        -0.5000 
      4 N           3.5467  -15.4874  -44.0357 N.am      1 UNK        -0.5000 
      5 CA          3.1104  -14.3470  -44.8470 C.3       1 UNK         0.1400 
      6 C6          1.7816  -14.6482  -45.5868 C.3       23 UNK        -0.0398 
      7 S7          1.7350  -16.2474  -46.4759 S.3       23 UNK        -0.2404 
      8 C8          2.1242  -15.7481  -48.1787 C.3       23 UNK        -0.0205 
      9 C9          1.7882  -16.8322  -49.1927 C.ar      23 UNK        -0.0193 
     10 C10         0.8306  -16.5914  -50.1820 C.ar      23 UNK        -0.1150 
     11 C11         0.5255  -17.5659  -51.1408 C.ar      23 UNK        -0.0193 
     12 C12         1.2100  -18.7840  -51.1074 C.ar      23 UNK        -0.1150 
     13 C13         2.1641  -19.0442  -50.1194 C.ar      23 UNK        -0.0193 
     14 C14         2.4505  -18.0629  -49.1654 C.ar      23 UNK        -0.1150 
     15 C15         2.8946  -20.3805  -50.0936 C.3       23 UNK        -0.0205 
     16 S16         1.7668  -21.7872  -49.8303 S.3       23 UNK        -0.2404 
     17 C17         1.0517  -21.3668  -48.2099 C.3       23 UNK        -0.0398 
     18 CA          0.4452  -22.5845  -47.4720 C.3       11 UNK         0.1400 
     19 N           0.3827  -22.3218  -46.0338 N.am      11 UNK        -0.5000 
     20 C           0.1786  -23.2294  -45.0709 C.2       10 UNK         0.5000 
     21 O          -0.0109  -24.4231  -45.3012 O.2       10 UNK        -0.5000 
     22 CA          0.1256  -22.6995  -43.6203 C.3       10 UNK         0.1400 
     23 CB          0.6643  -23.7156  -42.5923 C.3       10 UNK        -0.1800 
     24 N           0.7657  -21.3862  -43.4691 N.am      10 UNK        -0.5000 
     25 C           2.0651  -21.0854  -43.6269 C.2       9 UNK         0.5000 
     26 O           2.9477  -21.9256  -43.8021 O.2       9 UNK        -0.5000 
     27 CA          2.4409  -19.5905  -43.6551 C.3       9 UNK         0.1400 
     28 CB          2.9724  -19.2085  -45.0464 C.3       9 UNK        -0.1800 
     29 N           1.3147  -18.7136  -43.3202 N.am      9 UNK        -0.5000 
     30 C           0.9554  -18.3897  -42.0704 C.2       8 UNK         0.5000 
     31 O           1.5720  -18.7447  -41.0657 O.2       8 UNK        -0.5000 
     32 CA         -0.3310  -17.5583  -41.9155 C.3       8 UNK         0.1400 
     33 CB         -0.0138  -16.0585  -42.0019 C.3       8 UNK        -0.1800 
     34 N          -1.3555  -17.9051  -42.9059 N.am      8 UNK        -0.5000 
     35 C          -2.0545  -19.0515  -42.8958 C.2       7 UNK         0.5000 
     36 O          -1.8778  -19.9431  -42.0661 O.2       7 UNK        -0.5000 
     37 CA         -3.1059  -19.2685  -44.0037 C.3       7 UNK         0.1400 
     38 CB         -4.5023  -18.8510  -43.5214 C.3       7 UNK        -0.1800 
     39 N          -2.8036  -18.5638  -45.2469 N.am      7 UNK        -0.5000 
     40 C          -1.7513  -18.8208  -46.0314 C.2       6 UNK         0.5000 
     41 O          -0.9665  -19.7515  -45.8332 O.2       6 UNK        -0.5000 
     42 CA         -1.5370  -17.8906  -47.2387 C.3       6 UNK         0.1400 
     43 CB         -2.1522  -18.5325  -48.4830 C.3       6 UNK        -0.1800 
     44 N          -2.0547  -16.5217  -47.1135 N.am      6 UNK        -0.5000 
     45 C          -1.8542  -15.6595  -46.1082 C.2       5 UNK         0.5000 
     46 O          -1.2900  -15.9608  -45.0556 O.2       5 UNK        -0.5000 
     47 CA         -2.3761  -14.2223  -46.3145 C.3       5 UNK         0.1400 
     48 CB         -2.0380  -13.2939  -45.1337 C.3       5 UNK        -0.1800 
     49 N          -1.8746  -13.6054  -47.5456 N.am      5 UNK        -0.5000 
     50 C          -2.3710  -13.8024  -48.7704 C.2       4 UNK         0.5000 
     51 O          -3.2513  -14.6258  -49.0074 O.2       4 UNK        -0.5000 
     52 CA         -1.8313  -12.9293  -49.9215 C.3       4 UNK         0.1400 
     53 CB         -2.4432  -11.5167  -49.8634 C.3       4 UNK        -0.1800 
     54 N          -0.3694  -12.8614  -50.0648 N.am      4 UNK        -0.5000 
     55 C           0.5418  -12.3476  -49.2285 C.2       3 UNK         0.5000 
     56 O           0.2925  -11.9253  -48.0953 O.2       3 UNK        -0.5000 
     57 CA          1.9825  -12.2854  -49.7610 C.3       3 UNK         0.1400 
     58 CB          2.1412  -11.1196  -50.7565 C.3       3 UNK        -0.1800 
     59 N           2.8867  -12.1126  -48.6292 N.am      3 UNK        -0.5000 
     60 C           4.2178  -12.2602  -48.6379 C.2       2 UNK         0.5000 
     61 O           4.8680  -12.5781  -49.6337 O.2       2 UNK        -0.5000 
     62 CA          4.9393  -12.0339  -47.2955 C.3       2 UNK         0.1400 
     63 CB          5.1699  -10.5349  -47.0484 C.3       2 UNK        -0.1800 
     64 N           4.1719  -12.5978  -46.1837 N.am      2 UNK        -0.5000 
     65 C           4.1905  -13.8943  -45.8500 C.2       1 UNK         0.5000 
     66 O           4.9779  -14.7144  -46.3270 O.2       1 UNK        -0.5000 
     67 C          -0.9430  -22.9709  -48.0263 C.2       11 UNK         0.5000 
     68 O          -1.0437  -23.7992  -48.9342 O.2       11 UNK        -0.5000 
     69 N          -1.9954  -22.3899  -47.4338 N.am      12 UNK        -0.5000 
     70 CA         -3.3908  -22.7333  -47.6968 C.3       12 UNK         0.1400 
     71 CB         -4.2879  -21.6234  -47.1423 C.3       12 UNK        -0.1800 
     72 C          -3.7787  -24.0952  -47.0980 C.2       12 UNK         0.5000 
     73 O          -4.4854  -24.8608  -47.7511 O.2       12 UNK        -0.5000 
     74 N          -3.2808  -24.3894  -45.8876 N.am      13 UNK        -0.5000 
     75 CA         -3.5008  -25.6562  -45.1817 C.3       13 UNK         0.1400 
     76 CB         -3.0463  -25.5163  -43.7213 C.3       13 UNK        -0.1800 
     77 C          -2.7959  -26.8412  -45.8679 C.2       13 UNK         0.5000 
     78 O          -3.3522  -27.9382  -45.9184 O.2       13 UNK        -0.5000 
     79 N          -1.6094  -26.5790  -46.4325 N.am      14 UNK        -0.5000 
     80 CA         -0.8550  -27.4961  -47.2891 C.3       14 UNK         0.1400 
     81 CB          0.5812  -26.9642  -47.4229 C.3       14 UNK        -0.1800 
     82 C          -1.4814  -27.6905  -48.6872 C.2       14 UNK         0.5000 
     83 O          -1.0476  -28.5822  -49.4170 O.2       14 UNK        -0.5000 
     84 N          -2.4606  -26.8430  -49.0426 N.am      15 UNK        -0.5000 
     85 CA         -3.1693  -26.7624  -50.3247 C.3       15 UNK         0.1400 
     86 CB         -3.9527  -28.0592  -50.6138 C.3       15 UNK        -0.1800 
     87 C          -2.2706  -26.3302  -51.5025 C.2       15 UNK         0.5000 
     88 O          -2.6396  -26.5344  -52.6594 O.2       15 UNK        -0.5000 
     89 N          -1.1259  -25.7074  -51.1946 N.am      16 UNK        -0.5000 
     90 CA         -0.1768  -25.1724  -52.1676 C.3       16 UNK         0.1400 
     91 CB          1.2128  -25.0893  -51.5200 C.3       16 UNK        -0.1800 
     92 C          -0.6345  -23.8051  -52.7029 C.2       16 UNK         0.5000 
     93 O          -0.4945  -23.5426  -53.8977 O.2       16 UNK        -0.5000 
     94 N          -1.2173  -22.9807  -51.8207 N.am      17 UNK        -0.5000 
     95 CA         -1.8473  -21.7066  -52.1785 C.3       17 UNK         0.1400 
     96 CB         -1.8680  -20.7956  -50.9486 C.3       17 UNK        -0.1800 
     97 C          -3.2840  -21.8801  -52.7023 C.2       17 UNK         0.5000 
     98 O          -3.8305  -20.9402  -53.2773 O.2       17 UNK        -0.5000 
     99 N          -3.8821  -23.0533  -52.4501 N.am      18 UNK        -0.5000 
    100 CA        -5.2357  -23.5021  -52.8071 C.3       18 UNK         0.1400 
    101 CB        -5.4536  -23.4500  -54.3319 C.3       18 UNK        -0.1800 
    102 C         -6.3910  -22.8052  -52.0543 C.2       18 UNK         0.5000 
    103 O         -7.4948  -23.3514  -52.0320 O.2       18 UNK        -0.5000 
    104 N         -6.1384  -21.6489  -51.4330 N.am      19 UNK        -0.5000 
    105 CA        -7.0911  -20.8746  -50.6458 C.3       19 UNK         0.1400 
    106 CB        -7.9906  -20.0425  -51.5777 C.3       19 UNK        -0.1800 
    107 C         -6.3172  -19.9617  -49.6880 C.2       19 UNK         0.5000 
    108 O         -5.1585  -19.6365  -49.9564 O.2       19 UNK        -0.5000 
    109 N         -6.9855  -19.5294  -48.6101 N.am      20 UNK        -0.5000 
    110 CA        -6.4484  -18.6431  -47.5684 C.3       20 UNK         0.1400 
    111 CB        -7.4608  -18.5592  -46.4163 C.3       20 UNK        -0.1800 
    112 C         -6.0730  -17.2313  -48.0584 C.2       20 UNK         0.5000 
    113 O         -5.2579  -16.5732  -47.4130 O.2       20 UNK        -0.5000 
    114 N         -6.6708  -16.8096  -49.1794 N.am      21 UNK        -0.5000 
    115 CA        -6.4114  -15.5436  -49.8655 C.3       21 UNK         0.1400 
    116 CB        -7.7655  -14.8727  -50.1579 C.3       21 UNK        -0.1800 
    117 C         -5.5950  -15.7381  -51.1634 C.2       21 UNK         0.5000 
    118 O         -5.4793  -14.7860  -51.9366 O.2       21 UNK        -0.5000 
    119 N         -5.0684  -16.9537  -51.3833 N.am      22 UNK        -0.5000 
    120 CA        -4.3646  -17.4374  -52.5847 C.3       22 UNK         0.1400 
    121 C         -5.3324  -17.6729  -53.7774 C.2       22 UNK         0.5000 
    122 N         -5.3775  -18.8821  -54.3170 N.am      22 UNK        -0.7600 
    123 O         -6.0170  -16.7683  -54.2480 O.2       22 UNK        -0.5000 
    124 C124       -3.1463  -16.5735  -53.0172 C.3       23 UNK        -0.0398 
    125 S125       -1.9405  -16.3341  -51.6710 S.3       23 UNK        -0.2404 
    126 C126       -0.5169  -17.3242  -52.2323 C.3       23 UNK        -0.0205 
    127 H127        5.7704  -13.7883  -43.3815 H         1 UNK         0.0600 
    128 H128        4.3568  -13.4425  -42.3664 H         1 UNK         0.0600 
    129 H129        5.7119  -14.3524  -41.7153 H         1 UNK         0.0600 
    130 H130        3.1609  -16.3703  -44.3360 H         1 UNK         0.3000 
    131 H131        2.9169  -13.5125  -44.1708 H         1 UNK         0.0600 
    132 H132        1.5058  -13.8377  -46.2633 H         1 UNK         0.0800 
    133 H133        0.9801  -14.6731  -44.8512 H         1 UNK         0.0800 
    134 H134        3.1822  -15.4967  -48.2580 H         1 UNK         0.0800 
    135 H135        1.5666  -14.8430  -48.4059 H         1 UNK         0.0800 
    136 H136        0.3209  -15.6401  -50.2044 H         1 UNK         0.1150 
    137 H137        0.9949  -19.5424  -51.8471 H         1 UNK         0.1150 
    138 H138        3.1918  -18.2503  -48.4012 H         1 UNK         0.1150 
    139 H139        3.4133  -20.5185  -51.0431 H         1 UNK         0.0800 
    140 H140        3.6637  -20.3902  -49.3198 H         1 UNK         0.0800 
    141 H141        1.8602  -20.9461  -47.6103 H         1 UNK         0.0800 
    142 H142        0.3239  -20.5626  -48.3286 H         1 UNK         0.0800 
    143 H143        1.1058  -23.4426  -47.6136 H         1 UNK         0.0600 
    144 H144        0.4143  -21.3471  -45.7606 H         1 UNK         0.3000 
    145 H145       -0.9308  -22.5418  -43.3989 H         1 UNK         0.0600 
    146 H146        0.6294  -23.3093  -41.5815 H         1 UNK         0.0600 
    147 H147        0.0692  -24.6288  -42.5936 H         1 UNK         0.0600 
    148 H148        1.6939  -24.0041  -42.8039 H         1 UNK         0.0600 
    149 H149        0.1319  -20.6154  -43.3087 H         1 UNK         0.3000 
    150 H150        3.2472  -19.4436  -42.9333 H         1 UNK         0.0600 
    151 H151        3.7616  -19.8870  -45.3728 H         1 UNK         0.0600 
    152 H152        3.4043  -18.2092  -45.0386 H         1 UNK         0.0600 
    153 H153        2.1853  -19.2342  -45.8009 H         1 UNK         0.0600 
    154 H154        0.7442  -18.3872  -44.0880 H         1 UNK         0.3000 
    155 H155       -0.7398  -17.7584  -40.9227 H         1 UNK         0.0600 
    156 H156       -0.9146  -15.4543  -41.8941 H         1 UNK         0.0600 
    157 H157        0.4492  -15.8044  -42.9539 H         1 UNK         0.0600 
    158 H158        0.6782  -15.7602  -41.2134 H         1 UNK         0.0600 
    159 H159       -1.5084  -17.2311  -43.6529 H         1 UNK         0.3000 
    160 H160       -3.1274  -20.3381  -44.2206 H         1 UNK         0.0600 
    161 H161       -4.5574  -17.7788  -43.3291 H         1 UNK         0.0600 
    162 H162       -4.7677  -19.3657  -42.5970 H         1 UNK         0.0600 
    163 H163       -5.2636  -19.1007  -44.2604 H         1 UNK         0.0600 
    164 H164       -3.3870  -17.7737  -45.4831 H         1 UNK         0.3000 
    165 H165       -0.4609  -17.8249  -47.3958 H         1 UNK         0.0600 
    166 H166       -3.2390  -18.4554  -48.4831 H         1 UNK         0.0600 
    167 H167       -1.7824  -18.0602  -49.3898 H         1 UNK         0.0600 
    168 H168       -1.8970  -19.5888  -48.5395 H         1 UNK         0.0600 
    169 H169       -2.5723  -16.1659  -47.9120 H         1 UNK         0.3000 
    170 H170       -3.4644  -14.2914  -46.3756 H         1 UNK         0.0600 
    171 H171       -2.4185  -13.6961  -44.1938 H         1 UNK         0.0600 
    172 H172       -0.9619  -13.1583  -45.0234 H         1 UNK         0.0600 
    173 H173       -2.4860  -12.3092  -45.2677 H         1 UNK         0.0600 
    174 H174       -1.1163  -12.9341  -47.4550 H         1 UNK         0.3000 
    175 H175       -2.1889  -13.3902  -50.8437 H         1 UNK         0.0600 
    176 H176       -2.1569  -10.9275  -50.7345 H         1 UNK         0.0600 
    177 H177       -3.5328  -11.5654  -49.8485 H         1 UNK         0.0600 
    178 H178       -2.1294  -10.9720  -48.9724 H         1 UNK         0.0600 
    179 H179       -0.0344  -13.2014  -50.9554 H         1 UNK         0.3000 
    180 H180        2.2133  -13.2298  -50.2584 H         1 UNK         0.0600 
    181 H181        3.1460  -11.0852  -51.1771 H         1 UNK         0.0600 
    182 H182        1.4488  -11.2174  -51.5934 H         1 UNK         0.0600 
    183 H183        1.9459  -10.1582  -50.2797 H         1 UNK         0.0600 
    184 H184        2.4113  -11.8568  -47.7735 H         1 UNK         0.3000 
    185 H185        5.9158  -12.5206  -47.3484 H         1 UNK         0.0600 
    186 H186        5.7234  -10.3694  -46.1239 H         1 UNK         0.0600 
    187 H187        5.7515  -10.0922  -47.8582 H         1 UNK         0.0600 
    188 H188        4.2307   -9.9847  -46.9806 H         1 UNK         0.0600 
    189 H189        3.5236  -11.9743  -45.7243 H         1 UNK         0.3000 
    190 H190       -1.8150  -21.6997  -46.7167 H         1 UNK         0.3000 
    191 H191       -3.5426  -22.7887  -48.7766 H         1 UNK         0.0600 
    192 H192       -5.3370  -21.8173  -47.3683 H         1 UNK         0.0600 
    193 H193       -4.0234  -20.6689  -47.5926 H         1 UNK         0.0600 
    194 H194       -4.1963  -21.5234  -46.0608 H         1 UNK         0.0600 
    195 H195       -2.6849  -23.7166  -45.4327 H         1 UNK         0.3000 
    196 H196       -4.5735  -25.8617  -45.1844 H         1 UNK         0.0600 
    197 H197       -3.2524  -26.4295  -43.1616 H         1 UNK         0.0600 
    198 H198       -3.5701  -24.7028  -43.2193 H         1 UNK         0.0600 
    199 H199       -1.9765  -25.3244  -43.6482 H         1 UNK         0.0600 
    200 H200       -1.1779  -25.6773  -46.2525 H         1 UNK         0.3000 
    201 H201       -0.8194  -28.4735  -46.8039 H         1 UNK         0.0600 
    202 H202        1.0586  -26.8673  -46.4475 H         1 UNK         0.0600 
    203 H203        0.6034  -25.9859  -47.9045 H         1 UNK         0.0600 
    204 H204        1.1970  -27.6382  -48.0197 H         1 UNK         0.0600 
    205 H205       -2.7493  -26.1565  -48.3583 H         1 UNK         0.3000 
    206 H206       -3.9019  -25.9630  -50.2075 H         1 UNK         0.0600 
    207 H207       -4.5781  -28.3382  -49.7657 H         1 UNK         0.0600 
    208 H208       -4.6119  -27.9347  -51.4736 H         1 UNK         0.0600 
    209 H209       -3.2888  -28.8959  -50.8322 H         1 UNK         0.0600 
    210 H210       -0.9377  -25.5028  -50.2206 H         1 UNK         0.3000 
    211 H211       -0.1114  -25.8566  -53.0164 H         1 UNK         0.0600 
    212 H212        1.1886  -24.5256  -50.5881 H         1 UNK         0.0600 
    213 H213        1.9305  -24.6050  -52.1835 H         1 UNK         0.0600 
    214 H214        1.5970  -26.0838  -51.2928 H         1 UNK         0.0600 
    215 H215       -1.2447  -23.2567  -50.8442 H         1 UNK         0.3000 
    216 H216       -1.2598  -21.2171  -52.9580 H         1 UNK         0.0600 
    217 H217       -2.2638  -19.8106  -51.1971 H         1 UNK         0.0600 
    218 H218       -0.8687  -20.6501  -50.5448 H         1 UNK         0.0600 
    219 H219       -2.4961  -21.2048  -50.1586 H         1 UNK         0.0600 
    220 H220       -3.3236  -23.7367  -51.9622 H         1 UNK         0.3000 
    221 H221       -5.2771  -24.5515  -52.5111 H         1 UNK         0.0600 
    222 H222       -5.4821  -22.4264  -54.7061 H         1 UNK         0.0600 
    223 H223       -4.6625  -23.9808  -54.8616 H         1 UNK         0.0600 
    224 H224       -6.3990  -23.9199  -54.6057 H         1 UNK         0.0600 
    225 H225       -5.2118  -21.2441  -51.4895 H         1 UNK         0.3000 
    226 H226       -7.7038  -21.5561  -50.0520 H         1 UNK         0.0600 
    227 H227       -8.7140  -19.4567  -51.0096 H         1 UNK         0.0600 
    228 H228       -7.4068  -19.3480  -52.1826 H         1 UNK         0.0600 
    229 H229       -8.5565  -20.6800  -52.2571 H         1 UNK         0.0600 
    230 H230       -7.9384  -19.8367  -48.4763 H         1 UNK         0.3000 
    231 H231       -5.5352  -19.0875  -47.1751 H         1 UNK         0.0600 
    232 H232       -7.0936  -17.9138  -45.6171 H         1 UNK         0.0600 
    233 H233       -7.6432  -19.5413  -45.9795 H         1 UNK         0.0600 
    234 H234       -8.4171  -18.1548  -46.7500 H         1 UNK         0.0600 
    235 H235       -7.3324  -17.4282  -49.6241 H         1 UNK         0.3000 
    236 H236       -5.8403  -14.8750  -49.2197 H         1 UNK         0.0600 
    237 H237       -8.3689  -15.4679  -50.8443 H         1 UNK         0.0600 
    238 H238       -8.3399  -14.7298  -49.2425 H         1 UNK         0.0600 
    239 H239       -7.6288  -13.8887  -50.6082 H         1 UNK         0.0600 
    240 H240       -5.1928  -17.6596  -50.6682 H         1 UNK         0.3000 
    241 H241       -3.9694  -18.4102  -52.2910 H         1 UNK         0.0600 
    242 H242       -5.9863  -19.0480  -55.1019 H         1 UNK         0.3800 
    243 H243       -4.8054  -19.6468  -53.9563 H         1 UNK         0.3800 
    244 H244       -3.4686  -15.5908  -53.3633 H         1 UNK         0.0800 
    245 H245       -2.6424  -17.0350  -53.8678 H         1 UNK         0.0800 
    246 H246       -0.0391  -16.8195  -53.0727 H         1 UNK         0.0800 
    247 H247       -0.8868  -18.2796  -52.6072 H         1 UNK         0.0800 
@<TRIPOS>BOND
     1    1    2 1    
     2    1  127 1    
     3    1  128 1    
     4    1  129 1    
     5    2    3 2    
     6    2    4 am   BACKBONE|DICT|INTERRES
     7    4    5 1    
     8    4  130 1    
     9    5    6 1    
    10    5   65 1    
    11    5  131 1    
    12    6    7 1    
    13    6  132 1    
    14    6  133 1    
    15    7    8 1    
    16    8    9 1    
    17    8  134 1    
    18    8  135 1    
    19    9   10 ar   
    20    9   14 ar   
    21   10   11 ar   
    22   10  136 1    
    23   11   12 ar   
    24   11  126 1    
    25   12   13 ar   
    26   12  137 1    
    27   13   14 ar   
    28   13   15 1    
    29   14  138 1    
    30   15   16 1    
    31   15  139 1    
    32   15  140 1    
    33   16   17 1    
    34   17   18 1    
    35   17  141 1    
    36   17  142 1    
    37   18   19 1    
    38   18   67 1    
    39   18  143 1    
    40   19   20 am   BACKBONE|DICT|INTERRES
    41   19  144 1    
    42   20   21 2    
    43   20   22 1    
    44   22   23 1    
    45   22   24 1    
    46   22  145 1    
    47   23  146 1    
    48   23  147 1    
    49   23  148 1    
    50   24   25 am   BACKBONE|DICT|INTERRES
    51   24  149 1    
    52   25   26 2    
    53   25   27 1    
    54   27   28 1    
    55   27   29 1    
    56   27  150 1    
    57   28  151 1    
    58   28  152 1    
    59   28  153 1    
    60   29   30 am   BACKBONE|DICT|INTERRES
    61   29  154 1    
    62   30   31 2    
    63   30   32 1    
    64   32   33 1    
    65   32   34 1    
    66   32  155 1    
    67   33  156 1    
    68   33  157 1    
    69   33  158 1    
    70   34   35 am   BACKBONE|DICT|INTERRES
    71   34  159 1    
    72   35   36 2    
    73   35   37 1    
    74   37   38 1    
    75   37   39 1    
    76   37  160 1    
    77   38  161 1    
    78   38  162 1    
    79   38  163 1    
    80   39   40 am   BACKBONE|DICT|INTERRES
    81   39  164 1    
    82   40   41 2    
    83   40   42 1    
    84   42   43 1    
    85   42   44 1    
    86   42  165 1    
    87   43  166 1    
    88   43  167 1    
    89   43  168 1    
    90   44   45 am   BACKBONE|DICT|INTERRES
    91   44  169 1    
    92   45   46 2    
    93   45   47 1    
    94   47   48 1    
    95   47   49 1    
    96   47  170 1    
    97   48  171 1    
    98   48  172 1    
    99   48  173 1    
   100   49   50 am   BACKBONE|DICT|INTERRES
   101   49  174 1    
   102   50   51 2    
   103   50   52 1    
   104   52   53 1    
   105   52   54 1    
   106   52  175 1    
   107   53  176 1    
   108   53  177 1    
   109   53  178 1    
   110   54   55 am   BACKBONE|DICT|INTERRES
   111   54  179 1    
   112   55   56 2    
   113   55   57 1    
   114   57   58 1    
   115   57   59 1    
   116   57  180 1    
   117   58  181 1    
   118   58  182 1    
   119   58  183 1    
   120   59   60 am   BACKBONE|DICT|INTERRES
   121   59  184 1    
   122   60   61 2    
   123   60   62 1    
   124   62   63 1    
   125   62   64 1    
   126   62  185 1    
   127   63  186 1    
   128   63  187 1    
   129   63  188 1    
   130   64   65 am   BACKBONE|DICT|INTERRES
   131   64  189 1    
   132   65   66 2    
   133   67   68 2    
   134   67   69 am   BACKBONE|DICT|INTERRES
   135   69   70 1    
   136   69  190 1    
   137   70   71 1    
   138   70   72 1    
   139   70  191 1    
   140   71  192 1    
   141   71  193 1    
   142   71  194 1    
   143   72   73 2    
   144   72   74 am   BACKBONE|DICT|INTERRES
   145   74   75 1    
   146   74  195 1    
   147   75   76 1    
   148   75   77 1    
   149   75  196 1    
   150   76  197 1    
   151   76  198 1    
   152   76  199 1    
   153   77   78 2    
   154   77   79 am   BACKBONE|DICT|INTERRES
   155   79   80 1    
   156   79  200 1    
   157   80   81 1    
   158   80   82 1    
   159   80  201 1    
   160   81  202 1    
   161   81  203 1    
   162   81  204 1    
   163   82   83 2    
   164   82   84 am   BACKBONE|DICT|INTERRES
   165   84   85 1    
   166   84  205 1    
   167   85   86 1    
   168   85   87 1    
   169   85  206 1    
   170   86  207 1    
   171   86  208 1    
   172   86  209 1    
   173   87   88 2    
   174   87   89 am   BACKBONE|DICT|INTERRES
   175   89   90 1    
   176   89  210 1    
   177   90   91 1    
   178   90   92 1    
   179   90  211 1    
   180   91  212 1    
   181   91  213 1    
   182   91  214 1    
   183   92   93 2    
   184   92   94 am   BACKBONE|DICT|INTERRES
   185   94   95 1    
   186   94  215 1    
   187   95   96 1    
   188   95   97 1    
   189   95  216 1    
   190   96  217 1    
   191   96  218 1    
   192   96  219 1    
   193   97   98 2    
   194   97   99 am   BACKBONE|DICT|INTERRES
   195   99  100 1    
   196   99  220 1    
   197  100  101 1    
   198  100  102 1    
   199  100  221 1    
   200  101  222 1    
   201  101  223 1    
   202  101  224 1    
   203  102  103 2    
   204  102  104 am   BACKBONE|DICT|INTERRES
   205  104  105 1    
   206  104  225 1    
   207  105  106 1    
   208  105  107 1    
   209  105  226 1    
   210  106  227 1    
   211  106  228 1    
   212  106  229 1    
   213  107  108 2    
   214  107  109 am   BACKBONE|DICT|INTERRES
   215  109  110 1    
   216  109  230 1    
   217  110  111 1    
   218  110  112 1    
   219  110  231 1    
   220  111  232 1    
   221  111  233 1    
   222  111  234 1    
   223  112  113 2    
   224  112  114 am   BACKBONE|DICT|INTERRES
   225  114  115 1    
   226  114  235 1    
   227  115  116 1    
   228  115  117 1    
   229  115  236 1    
   230  116  237 1    
   231  116  238 1    
   232  116  239 1    
   233  117  118 2    
   234  117  119 am   BACKBONE|DICT|INTERRES
   235  119  120 1    
   236  119  240 1    
   237  120  121 1    
   238  120  124 1    
   239  120  241 1    
   240  121  122 am   BACKBONE|DICT|INTERRES
   241  121  123 2    
   242  122  242 1    
   243  122  243 1    
   244  124  125 1    
   245  124  244 1    
   246  124  245 1    
   247  125  126 1    
   248  126  246 1    
   249  126  247 1    
@<TRIPOS>SUBSTRUCTURE
     1 UNK         1 GROUP             0       ****    0 ROOT    
