@<TRIPOS>MOLECULE
3R540
247   249    1
SMALL
USER_CHARGES


@<TRIPOS>ATOM
      1 CA         -0.1893  -13.2565  -49.3780 C.3       0 UNK        -0.1800 
      2 C           1.2876  -12.9016  -49.2853 C.2       0 UNK         0.5000 
      3 O           1.6236  -11.7641  -48.9571 O.2       0 UNK        -0.5000 
      4 N           2.1676  -13.8654  -49.5846 N.am      1 UNK        -0.5000 
      5 CA          3.6275  -13.6892  -49.5897 C.3       1 UNK         0.1400 
      6 C6          4.3389  -14.7539  -50.4588 C.3       23 UNK        -0.0398 
      7 S7          3.7176  -14.7767  -52.1730 S.3       23 UNK        -0.2404 
      8 C8          3.7232  -16.5625  -52.5356 C.3       23 UNK        -0.0205 
      9 C9          2.7261  -17.3768  -51.7149 C.ar      23 UNK        -0.0193 
     10 C10         1.3910  -16.9753  -51.5907 C.ar      23 UNK        -0.1150 
     11 C11         0.4611  -17.7883  -50.9341 C.ar      23 UNK        -0.0193 
     12 C12         0.8777  -19.0050  -50.3866 C.ar      23 UNK        -0.1150 
     13 C13         2.2097  -19.4141  -50.4925 C.ar      23 UNK        -0.0193 
     14 C14         3.1289  -18.5910  -51.1491 C.ar      23 UNK        -0.1150 
     15 C15         2.6378  -20.7848  -49.9853 C.3       23 UNK        -0.0205 
     16 S16         3.3176  -20.7604  -48.2918 S.3       23 UNK        -0.2404 
     17 C17         1.8521  -20.4330  -47.2540 C.3       23 UNK        -0.0398 
     18 CA          1.1201  -21.7108  -46.7644 C.3       11 UNK         0.1400 
     19 N           0.3001  -21.4457  -45.5773 N.am      11 UNK        -0.5000 
     20 C          -0.3881  -22.3647  -44.8832 C.2       10 UNK         0.5000 
     21 O          -0.3394  -23.5733  -45.1113 O.2       10 UNK        -0.5000 
     22 CA         -1.3365  -21.8407  -43.7873 C.3       10 UNK         0.1400 
     23 CB         -0.5772  -21.5778  -42.4788 C.3       10 UNK        -0.1800 
     24 N          -2.0601  -20.6348  -44.1997 N.am      10 UNK        -0.5000 
     25 C          -2.9534  -20.5988  -45.1999 C.2       9 UNK         0.5000 
     26 O          -3.3056  -21.5931  -45.8301 O.2       9 UNK        -0.5000 
     27 CA         -3.5105  -19.2232  -45.6061 C.3       9 UNK         0.1400 
     28 CB         -4.6712  -18.8066  -44.6915 C.3       9 UNK        -0.1800 
     29 N          -2.4824  -18.1841  -45.6144 N.am      9 UNK        -0.5000 
     30 C          -1.4240  -18.1705  -46.4367 C.2       8 UNK         0.5000 
     31 O          -1.2470  -18.9954  -47.3331 O.2       8 UNK        -0.5000 
     32 CA         -0.3535  -17.0954  -46.1712 C.3       8 UNK         0.1400 
     33 CB         -0.7333  -15.7618  -46.8277 C.3       8 UNK        -0.1800 
     34 N          -0.1140  -16.8945  -44.7402 N.am      8 UNK        -0.5000 
     35 C           0.4262  -17.8180  -43.9320 C.2       7 UNK         0.5000 
     36 O           0.8381  -18.9068  -44.3289 O.2       7 UNK        -0.5000 
     37 CA          0.4592  -17.5024  -42.4259 C.3       7 UNK         0.1400 
     38 CB          1.7077  -16.6972  -42.0388 C.3       7 UNK        -0.1800 
     39 N          -0.7411  -16.7893  -41.9937 N.am      7 UNK        -0.5000 
     40 C          -1.9502  -17.3562  -41.8823 C.2       6 UNK         0.5000 
     41 O          -2.1641  -18.5499  -42.0903 O.2       6 UNK        -0.5000 
     42 CA         -3.1205  -16.4236  -41.5190 C.3       6 UNK         0.1400 
     43 CB         -3.2230  -16.2535  -39.9961 C.3       6 UNK        -0.1800 
     44 N          -3.0036  -15.1061  -42.1468 N.am      6 UNK        -0.5000 
     45 C          -3.0812  -14.8863  -43.4672 C.2       5 UNK         0.5000 
     46 O          -3.3097  -15.7689  -44.2923 O.2       5 UNK        -0.5000 
     47 CA         -2.7993  -13.4514  -43.9498 C.3       5 UNK         0.1400 
     48 CB         -4.0902  -12.6198  -43.9547 C.3       5 UNK        -0.1800 
     49 N          -1.7806  -12.7673  -43.1478 N.am      5 UNK        -0.5000 
     50 C          -0.5031  -13.1569  -43.0533 C.2       4 UNK         0.5000 
     51 O          -0.0406  -14.1417  -43.6363 O.2       4 UNK        -0.5000 
     52 CA          0.3846  -12.3495  -42.1001 C.3       4 UNK         0.1400 
     53 CB          0.2130  -12.8412  -40.6523 C.3       4 UNK        -0.1800 
     54 N           1.7772  -12.5023  -42.5025 N.am      4 UNK        -0.5000 
     55 C           2.7315  -11.5764  -42.3568 C.2       3 UNK         0.5000 
     56 O           2.5400  -10.4850  -41.8180 O.2       3 UNK        -0.5000 
     57 CA          4.1429  -11.9120  -42.8859 C.3       3 UNK         0.1400 
     58 CB          5.1040  -12.1714  -41.7145 C.3       3 UNK        -0.1800 
     59 N           4.2012  -13.0591  -43.7977 N.am      3 UNK        -0.5000 
     60 C           3.6936  -13.0888  -45.0363 C.2       2 UNK         0.5000 
     61 O           3.0732  -12.1506  -45.5414 O.2       2 UNK        -0.5000 
     62 CA          3.9014  -14.4060  -45.8100 C.3       2 UNK         0.1400 
     63 CB          3.0916  -15.5455  -45.1766 C.3       2 UNK        -0.1800 
     64 N           3.5107  -14.2952  -47.2122 N.am      2 UNK        -0.5000 
     65 C           4.2283  -13.6925  -48.1682 C.2       1 UNK         0.5000 
     66 O           5.3316  -13.1792  -47.9737 O.2       1 UNK        -0.5000 
     67 C           0.2796  -22.3514  -47.8886 C.2       11 UNK         0.5000 
     68 O           0.6719  -23.3835  -48.4339 O.2       11 UNK        -0.5000 
     69 N          -0.8803  -21.7486  -48.1854 N.am      12 UNK        -0.5000 
     70 CA         -1.8382  -22.2468  -49.1695 C.3       12 UNK         0.1400 
     71 CB         -2.9581  -21.2207  -49.3647 C.3       12 UNK        -0.1800 
     72 C          -2.4197  -23.6188  -48.7894 C.2       12 UNK         0.5000 
     73 O          -2.4924  -24.4961  -49.6462 O.2       12 UNK        -0.5000 
     74 N          -2.7773  -23.8029  -47.5108 N.am      13 UNK        -0.5000 
     75 CA         -3.2841  -25.0622  -46.9637 C.3       13 UNK         0.1400 
     76 CB         -3.7437  -24.8553  -45.5134 C.3       13 UNK        -0.1800 
     77 C          -2.2611  -26.2085  -47.0552 C.2       13 UNK         0.5000 
     78 O          -2.6402  -27.3265  -47.4035 O.2       13 UNK        -0.5000 
     79 N          -0.9786  -25.9056  -46.8059 N.am      14 UNK        -0.5000 
     80 CA          0.1433  -26.8316  -46.9869 C.3       14 UNK         0.1400 
     81 CB          1.4155  -26.2203  -46.3809 C.3       14 UNK        -0.1800 
     82 C           0.3695  -27.2251  -48.4617 C.2       14 UNK         0.5000 
     83 O           0.7827  -28.3529  -48.7322 O.2       14 UNK        -0.5000 
     84 N           0.0553  -26.3079  -49.3861 N.am      15 UNK        -0.5000 
     85 CA          0.0510  -26.5283  -50.8343 C.3       15 UNK         0.1400 
     86 CB          0.3106  -25.1846  -51.5372 C.3       15 UNK        -0.1800 
     87 C          -1.2526  -27.1824  -51.3496 C.2       15 UNK         0.5000 
     88 O          -1.3505  -27.4500  -52.5479 O.2       15 UNK        -0.5000 
     89 N          -2.2208  -27.4268  -50.4519 N.am      16 UNK        -0.5000 
     90 CA         -3.5580  -27.9812  -50.6901 C.3       16 UNK         0.1400 
     91 CB         -3.4711  -29.4355  -51.1992 C.3       16 UNK        -0.1800 
     92 C          -4.4493  -27.0768  -51.5699 C.2       16 UNK         0.5000 
     93 O          -5.2374  -27.5798  -52.3737 O.2       16 UNK        -0.5000 
     94 N          -4.3152  -25.7582  -51.3944 N.am      17 UNK        -0.5000 
     95 CA         -5.0657  -24.7175  -52.0902 C.3       17 UNK         0.1400 
     96 CB         -4.0610  -23.8462  -52.8601 C.3       17 UNK        -0.1800 
     97 C          -5.8507  -23.8554  -51.0870 C.2       17 UNK         0.5000 
     98 O          -5.6070  -23.9161  -49.8795 O.2       17 UNK        -0.5000 
     99 N          -6.7691  -23.0377  -51.6149 N.am      18 UNK        -0.5000 
    100 CA        -7.4392  -21.9681  -50.8750 C.3       18 UNK         0.1400 
    101 CB        -8.6898  -21.5335  -51.6548 C.3       18 UNK        -0.1800 
    102 C         -6.4912  -20.7707  -50.6846 C.2       18 UNK         0.5000 
    103 O         -5.6131  -20.5515  -51.5224 O.2       18 UNK        -0.5000 
    104 N         -6.7122  -19.9823  -49.6248 N.am      19 UNK        -0.5000 
    105 CA        -5.8881  -18.8256  -49.2474 C.3       19 UNK         0.1400 
    106 CB        -6.4199  -18.2400  -47.9309 C.3       19 UNK        -0.1800 
    107 C         -5.7850  -17.7261  -50.3241 C.2       19 UNK         0.5000 
    108 O         -4.7631  -17.0451  -50.3950 O.2       19 UNK        -0.5000 
    109 N         -6.8334  -17.5865  -51.1458 N.am      20 UNK        -0.5000 
    110 CA        -6.8782  -16.6654  -52.2821 C.3       20 UNK         0.1400 
    111 CB        -8.3427  -16.2755  -52.5381 C.3       20 UNK        -0.1800 
    112 C         -6.2518  -17.2545  -53.5627 C.2       20 UNK         0.5000 
    113 O         -5.9045  -16.4899  -54.4637 O.2       20 UNK        -0.5000 
    114 N         -6.1439  -18.5880  -53.6413 N.am      21 UNK        -0.5000 
    115 CA        -5.6096  -19.3125  -54.7949 C.3       21 UNK         0.1400 
    116 CB        -6.3550  -20.6486  -54.9420 C.3       21 UNK        -0.1800 
    117 C         -4.0963  -19.5540  -54.6735 C.2       21 UNK         0.5000 
    118 O         -3.4047  -19.5577  -55.6922 O.2       21 UNK        -0.5000 
    119 N         -3.6163  -19.7693  -53.4419 N.am      22 UNK        -0.5000 
    120 CA        -2.2148  -19.9923  -53.0370 C.3       22 UNK         0.1400 
    121 C         -1.5649  -21.3187  -53.5284 C.2       22 UNK         0.5000 
    122 N         -1.9648  -21.8804  -54.6603 N.am      22 UNK        -0.7600 
    123 O         -0.6899  -21.8538  -52.8552 O.2       22 UNK        -0.5000 
    124 C124       -1.2824  -18.7950  -53.3561 C.3       23 UNK        -0.0398 
    125 S125       -1.7763  -17.2420  -52.5276 S.3       23 UNK        -0.2404 
    126 C126       -1.0098  -17.3952  -50.8762 C.3       23 UNK        -0.0205 
    127 H127       -0.3379  -14.2740  -49.7373 H         1 UNK         0.0600 
    128 H128       -0.6947  -12.5792  -50.0664 H         1 UNK         0.0600 
    129 H129       -0.6613  -13.1636  -48.4001 H         1 UNK         0.0600 
    130 H130        1.8375  -14.7718  -49.8832 H         1 UNK         0.3000 
    131 H131        3.8477  -12.7107  -50.0225 H         1 UNK         0.0600 
    132 H132        5.4126  -14.5608  -50.4988 H         1 UNK         0.0800 
    133 H133        4.2243  -15.7441  -50.0142 H         1 UNK         0.0800 
    134 H134        4.7377  -16.9398  -52.3974 H         1 UNK         0.0800 
    135 H135        3.4880  -16.7006  -53.5916 H         1 UNK         0.0800 
    136 H136        1.0620  -16.0528  -52.0484 H         1 UNK         0.1150 
    137 H137        0.1553  -19.6513  -49.9082 H         1 UNK         0.1150 
    138 H138        4.1528  -18.9209  -51.2573 H         1 UNK         0.1150 
    139 H139        1.8066  -21.4855  -50.0547 H         1 UNK         0.0800 
    140 H140        3.4046  -21.1862  -50.6495 H         1 UNK         0.0800 
    141 H141        1.1782  -19.7454  -47.7606 H         1 UNK         0.0800 
    142 H142        2.2241  -19.8811  -46.3902 H         1 UNK         0.0800 
    143 H143        1.8733  -22.4410  -46.4607 H         1 UNK         0.0600 
    144 H144        0.2543  -20.4792  -45.2676 H         1 UNK         0.3000 
    145 H145       -2.0774  -22.6181  -43.5913 H         1 UNK         0.0600 
    146 H146       -1.2532  -21.2480  -41.6897 H         1 UNK         0.0600 
    147 H147       -0.0846  -22.4851  -42.1273 H         1 UNK         0.0600 
    148 H148        0.1917  -20.8161  -42.6011 H         1 UNK         0.0600 
    149 H149       -1.8721  -19.7854  -43.6781 H         1 UNK         0.3000 
    150 H150       -3.8964  -19.3124  -46.6232 H         1 UNK         0.0600 
    151 H151       -5.4661  -19.5532  -44.7065 H         1 UNK         0.0600 
    152 H152       -5.1068  -17.8605  -45.0132 H         1 UNK         0.0600 
    153 H153       -4.3499  -18.6911  -43.6569 H         1 UNK         0.0600 
    154 H154       -2.5994  -17.4213  -44.9535 H         1 UNK         0.3000 
    155 H155        0.5799  -17.4382  -46.6228 H         1 UNK         0.0600 
    156 H156       -1.6689  -15.3679  -46.4318 H         1 UNK         0.0600 
    157 H157       -0.8604  -15.8853  -47.9032 H         1 UNK         0.0600 
    158 H158        0.0397  -15.0093  -46.6716 H         1 UNK         0.0600 
    159 H159       -0.3777  -15.9970  -44.3473 H         1 UNK         0.3000 
    160 H160        0.5022  -18.4541  -41.8920 H         1 UNK         0.0600 
    161 H161        1.7171  -15.7109  -42.4999 H         1 UNK         0.0600 
    162 H162        2.6159  -17.2168  -42.3466 H         1 UNK         0.0600 
    163 H163        1.7650  -16.5585  -40.9591 H         1 UNK         0.0600 
    164 H164       -0.6555  -15.7933  -41.8594 H         1 UNK         0.3000 
    165 H165       -4.0417  -16.8898  -41.8745 H         1 UNK         0.0600 
    166 H166       -4.0927  -15.6551  -39.7240 H         1 UNK         0.0600 
    167 H167       -3.3279  -17.2204  -39.5022 H         1 UNK         0.0600 
    168 H168       -2.3380  -15.7678  -39.5830 H         1 UNK         0.0600 
    169 H169       -2.8194  -14.3230  -41.5377 H         1 UNK         0.3000 
    170 H170       -2.4305  -13.5144  -44.9755 H         1 UNK         0.0600 
    171 H171       -4.8597  -13.0980  -44.5625 H         1 UNK         0.0600 
    172 H172       -4.4952  -12.4963  -42.9495 H         1 UNK         0.0600 
    173 H173       -3.9186  -11.6276  -44.3725 H         1 UNK         0.0600 
    174 H174       -2.0861  -11.9541  -42.6324 H         1 UNK         0.3000 
    175 H175        0.0917  -11.2996  -42.1696 H         1 UNK         0.0600 
    176 H176        0.5000  -13.8883  -40.5465 H         1 UNK         0.0600 
    177 H177        0.8248  -12.2577  -39.9640 H         1 UNK         0.0600 
    178 H178       -0.8223  -12.7470  -40.3225 H         1 UNK         0.0600 
    179 H179        1.9792  -13.3490  -43.0164 H         1 UNK         0.3000 
    180 H180        4.4982  -11.0338  -43.4291 H         1 UNK         0.0600 
    181 H181        4.8090  -13.0506  -41.1402 H         1 UNK         0.0600 
    182 H182        5.1247  -11.3236  -41.0284 H         1 UNK         0.0600 
    183 H183        6.1244  -12.3252  -42.0664 H         1 UNK         0.0600 
    184 H184        4.6879  -13.8733  -43.4513 H         1 UNK         0.3000 
    185 H185        4.9613  -14.6658  -45.7659 H         1 UNK         0.0600 
    186 H186        3.1526  -16.4602  -45.7671 H         1 UNK         0.0600 
    187 H187        3.4670  -15.7826  -44.1818 H         1 UNK         0.0600 
    188 H188        2.0408  -15.2746  -45.0817 H         1 UNK         0.0600 
    189 H189        2.5949  -14.6396  -47.4557 H         1 UNK         0.3000 
    190 H190       -1.1205  -20.8818  -47.7118 H         1 UNK         0.3000 
    191 H191       -1.3088  -22.3560  -50.1183 H         1 UNK         0.0600 
    192 H192       -3.5807  -21.1286  -48.4751 H         1 UNK         0.0600 
    193 H193       -3.6037  -21.5243  -50.1876 H         1 UNK         0.0600 
    194 H194       -2.5621  -20.2338  -49.6003 H         1 UNK         0.0600 
    195 H195       -2.7506  -23.0090  -46.8751 H         1 UNK         0.3000 
    196 H196       -4.1550  -25.3480  -47.5575 H         1 UNK         0.0600 
    197 H197       -4.1554  -25.7764  -45.0993 H         1 UNK         0.0600 
    198 H198       -4.5221  -24.0946  -45.4515 H         1 UNK         0.0600 
    199 H199       -2.9200  -24.5457  -44.8706 H         1 UNK         0.0600 
    200 H200       -0.7511  -24.9721  -46.4759 H         1 UNK         0.3000 
    201 H201       -0.0877  -27.7454  -46.4356 H         1 UNK         0.0600 
    202 H202        1.2820  -26.0038  -45.3209 H         1 UNK         0.0600 
    203 H203        1.6941  -25.2914  -46.8783 H         1 UNK         0.0600 
    204 H204        2.2589  -26.9061  -46.4698 H         1 UNK         0.0600 
    205 H205       -0.2502  -25.3938  -49.0736 H         1 UNK         0.3000 
    206 H206        0.8712  -27.2021  -51.0895 H         1 UNK         0.0600 
    207 H207        1.2325  -24.7235  -51.1822 H         1 UNK         0.0600 
    208 H208        0.4087  -25.3178  -52.6151 H         1 UNK         0.0600 
    209 H209       -0.5003  -24.4755  -51.3717 H         1 UNK         0.0600 
    210 H210       -2.0442  -27.1497  -49.4946 H         1 UNK         0.3000 
    211 H211       -4.0442  -28.0108  -49.7142 H         1 UNK         0.0600 
    212 H212       -3.0574  -29.4900  -52.2064 H         1 UNK         0.0600 
    213 H213       -4.4579  -29.8991  -51.2270 H         1 UNK         0.0600 
    214 H214       -2.8467  -30.0447  -50.5457 H         1 UNK         0.0600 
    215 H215       -3.6672  -25.4136  -50.6868 H         1 UNK         0.3000 
    216 H216       -5.7760  -25.1534  -52.7953 H         1 UNK         0.0600 
    217 H217       -4.5607  -23.0545  -53.4190 H         1 UNK         0.0600 
    218 H218       -3.4925  -24.4394  -53.5764 H         1 UNK         0.0600 
    219 H219       -3.3487  -23.3703  -52.1847 H         1 UNK         0.0600 
    220 H220       -6.8948  -23.0302  -52.6158 H         1 UNK         0.3000 
    221 H221       -7.7431  -22.3434  -49.8955 H         1 UNK         0.0600 
    222 H222       -8.4367  -21.1339  -52.6376 H         1 UNK         0.0600 
    223 H223       -9.3733  -22.3703  -51.8000 H         1 UNK         0.0600 
    224 H224       -9.2381  -20.7588  -51.1173 H         1 UNK         0.0600 
    225 H225       -7.4690  -20.2123  -48.9968 H         1 UNK         0.3000 
    226 H226       -4.8754  -19.1879  -49.0686 H         1 UNK         0.0600 
    227 H227       -6.4343  -18.9912  -47.1414 H         1 UNK         0.0600 
    228 H228       -5.7900  -17.4186  -47.5861 H         1 UNK         0.0600 
    229 H229       -7.4333  -17.8528  -48.0435 H         1 UNK         0.0600 
    230 H230       -7.6399  -18.1762  -51.0029 H         1 UNK         0.3000 
    231 H231       -6.3252  -15.7571  -52.0324 H         1 UNK         0.0600 
    232 H232       -8.7843  -15.8036  -51.6602 H         1 UNK         0.0600 
    233 H233       -8.9515  -17.1429  -52.7963 H         1 UNK         0.0600 
    234 H234       -8.4199  -15.5637  -53.3611 H         1 UNK         0.0600 
    235 H235       -6.3625  -19.1445  -52.8252 H         1 UNK         0.3000 
    236 H236       -5.7827  -18.7330  -55.7043 H         1 UNK         0.0600 
    237 H237       -5.9979  -21.2005  -55.8124 H         1 UNK         0.0600 
    238 H238       -6.2161  -21.2875  -54.0704 H         1 UNK         0.0600 
    239 H239       -7.4252  -20.4897  -55.0747 H         1 UNK         0.0600 
    240 H240       -4.2925  -19.8440  -52.6874 H         1 UNK         0.3000 
    241 H241       -2.2537  -20.0843  -51.9524 H         1 UNK         0.0600 
    242 H242       -1.5430  -22.7402  -54.9712 H         1 UNK         0.3800 
    243 H243       -2.6184  -21.3839  -55.2522 H         1 UNK         0.3800 
    244 H244       -1.2677  -18.6060  -54.4300 H         1 UNK         0.0800 
    245 H245       -0.2488  -19.0291  -53.1012 H         1 UNK         0.0800 
    246 H246       -1.5816  -18.1170  -50.2914 H         1 UNK         0.0800 
    247 H247       -1.1075  -16.4433  -50.3557 H         1 UNK         0.0800 
@<TRIPOS>BOND
     1    1    2 1    
     2    1  127 1    
     3    1  128 1    
     4    1  129 1    
     5    2    3 2    
     6    2    4 am   BACKBONE|DICT|INTERRES
     7    4    5 1    
     8    4  130 1    
     9    5    6 1    
    10    5   65 1    
    11    5  131 1    
    12    6    7 1    
    13    6  132 1    
    14    6  133 1    
    15    7    8 1    
    16    8    9 1    
    17    8  134 1    
    18    8  135 1    
    19    9   10 ar   
    20    9   14 ar   
    21   10   11 ar   
    22   10  136 1    
    23   11   12 ar   
    24   11  126 1    
    25   12   13 ar   
    26   12  137 1    
    27   13   14 ar   
    28   13   15 1    
    29   14  138 1    
    30   15   16 1    
    31   15  139 1    
    32   15  140 1    
    33   16   17 1    
    34   17   18 1    
    35   17  141 1    
    36   17  142 1    
    37   18   19 1    
    38   18   67 1    
    39   18  143 1    
    40   19   20 am   BACKBONE|DICT|INTERRES
    41   19  144 1    
    42   20   21 2    
    43   20   22 1    
    44   22   23 1    
    45   22   24 1    
    46   22  145 1    
    47   23  146 1    
    48   23  147 1    
    49   23  148 1    
    50   24   25 am   BACKBONE|DICT|INTERRES
    51   24  149 1    
    52   25   26 2    
    53   25   27 1    
    54   27   28 1    
    55   27   29 1    
    56   27  150 1    
    57   28  151 1    
    58   28  152 1    
    59   28  153 1    
    60   29   30 am   BACKBONE|DICT|INTERRES
    61   29  154 1    
    62   30   31 2    
    63   30   32 1    
    64   32   33 1    
    65   32   34 1    
    66   32  155 1    
    67   33  156 1    
    68   33  157 1    
    69   33  158 1    
    70   34   35 am   BACKBONE|DICT|INTERRES
    71   34  159 1    
    72   35   36 2    
    73   35   37 1    
    74   37   38 1    
    75   37   39 1    
    76   37  160 1    
    77   38  161 1    
    78   38  162 1    
    79   38  163 1    
    80   39   40 am   BACKBONE|DICT|INTERRES
    81   39  164 1    
    82   40   41 2    
    83   40   42 1    
    84   42   43 1    
    85   42   44 1    
    86   42  165 1    
    87   43  166 1    
    88   43  167 1    
    89   43  168 1    
    90   44   45 am   BACKBONE|DICT|INTERRES
    91   44  169 1    
    92   45   46 2    
    93   45   47 1    
    94   47   48 1    
    95   47   49 1    
    96   47  170 1    
    97   48  171 1    
    98   48  172 1    
    99   48  173 1    
   100   49   50 am   BACKBONE|DICT|INTERRES
   101   49  174 1    
   102   50   51 2    
   103   50   52 1    
   104   52   53 1    
   105   52   54 1    
   106   52  175 1    
   107   53  176 1    
   108   53  177 1    
   109   53  178 1    
   110   54   55 am   BACKBONE|DICT|INTERRES
   111   54  179 1    
   112   55   56 2    
   113   55   57 1    
   114   57   58 1    
   115   57   59 1    
   116   57  180 1    
   117   58  181 1    
   118   58  182 1    
   119   58  183 1    
   120   59   60 am   BACKBONE|DICT|INTERRES
   121   59  184 1    
   122   60   61 2    
   123   60   62 1    
   124   62   63 1    
   125   62   64 1    
   126   62  185 1    
   127   63  186 1    
   128   63  187 1    
   129   63  188 1    
   130   64   65 am   BACKBONE|DICT|INTERRES
   131   64  189 1    
   132   65   66 2    
   133   67   68 2    
   134   67   69 am   BACKBONE|DICT|INTERRES
   135   69   70 1    
   136   69  190 1    
   137   70   71 1    
   138   70   72 1    
   139   70  191 1    
   140   71  192 1    
   141   71  193 1    
   142   71  194 1    
   143   72   73 2    
   144   72   74 am   BACKBONE|DICT|INTERRES
   145   74   75 1    
   146   74  195 1    
   147   75   76 1    
   148   75   77 1    
   149   75  196 1    
   150   76  197 1    
   151   76  198 1    
   152   76  199 1    
   153   77   78 2    
   154   77   79 am   BACKBONE|DICT|INTERRES
   155   79   80 1    
   156   79  200 1    
   157   80   81 1    
   158   80   82 1    
   159   80  201 1    
   160   81  202 1    
   161   81  203 1    
   162   81  204 1    
   163   82   83 2    
   164   82   84 am   BACKBONE|DICT|INTERRES
   165   84   85 1    
   166   84  205 1    
   167   85   86 1    
   168   85   87 1    
   169   85  206 1    
   170   86  207 1    
   171   86  208 1    
   172   86  209 1    
   173   87   88 2    
   174   87   89 am   BACKBONE|DICT|INTERRES
   175   89   90 1    
   176   89  210 1    
   177   90   91 1    
   178   90   92 1    
   179   90  211 1    
   180   91  212 1    
   181   91  213 1    
   182   91  214 1    
   183   92   93 2    
   184   92   94 am   BACKBONE|DICT|INTERRES
   185   94   95 1    
   186   94  215 1    
   187   95   96 1    
   188   95   97 1    
   189   95  216 1    
   190   96  217 1    
   191   96  218 1    
   192   96  219 1    
   193   97   98 2    
   194   97   99 am   BACKBONE|DICT|INTERRES
   195   99  100 1    
   196   99  220 1    
   197  100  101 1    
   198  100  102 1    
   199  100  221 1    
   200  101  222 1    
   201  101  223 1    
   202  101  224 1    
   203  102  103 2    
   204  102  104 am   BACKBONE|DICT|INTERRES
   205  104  105 1    
   206  104  225 1    
   207  105  106 1    
   208  105  107 1    
   209  105  226 1    
   210  106  227 1    
   211  106  228 1    
   212  106  229 1    
   213  107  108 2    
   214  107  109 am   BACKBONE|DICT|INTERRES
   215  109  110 1    
   216  109  230 1    
   217  110  111 1    
   218  110  112 1    
   219  110  231 1    
   220  111  232 1    
   221  111  233 1    
   222  111  234 1    
   223  112  113 2    
   224  112  114 am   BACKBONE|DICT|INTERRES
   225  114  115 1    
   226  114  235 1    
   227  115  116 1    
   228  115  117 1    
   229  115  236 1    
   230  116  237 1    
   231  116  238 1    
   232  116  239 1    
   233  117  118 2    
   234  117  119 am   BACKBONE|DICT|INTERRES
   235  119  120 1    
   236  119  240 1    
   237  120  121 1    
   238  120  124 1    
   239  120  241 1    
   240  121  122 am   BACKBONE|DICT|INTERRES
   241  121  123 2    
   242  122  242 1    
   243  122  243 1    
   244  124  125 1    
   245  124  244 1    
   246  124  245 1    
   247  125  126 1    
   248  126  246 1    
   249  126  247 1    
@<TRIPOS>SUBSTRUCTURE
     1 UNK         1 GROUP             0       ****    0 ROOT    
