@<TRIPOS>MOLECULE
3R540
247   249    1
SMALL
USER_CHARGES


@<TRIPOS>ATOM
      1 CA         -0.3726  -14.1733  -51.5121 C.3       0 UNK        -0.1800 
      2 C           0.1774  -14.7828  -50.2314 C.2       0 UNK         0.5000 
      3 O           0.5913  -15.9419  -50.2313 O.2       0 UNK        -0.5000 
      4 N           0.2065  -14.0036  -49.1411 N.am      1 UNK        -0.5000 
      5 CA          0.5807  -14.4540  -47.7912 C.3       1 UNK         0.1400 
      6 C6          0.1744  -13.4566  -46.6777 C.3       23 UNK        -0.0398 
      7 S7         -1.5342  -12.8133  -46.8013 S.3       23 UNK        -0.2404 
      8 C8         -2.5673  -14.2722  -46.4322 C.3       23 UNK        -0.0205 
      9 C9         -2.8107  -15.1326  -47.6657 C.ar      23 UNK        -0.0193 
     10 C10        -3.5029  -14.6086  -48.7627 C.ar      23 UNK        -0.1150 
     11 C11        -3.6800  -15.3703  -49.9209 C.ar      23 UNK        -0.0193 
     12 C12        -3.1674  -16.6686  -49.9699 C.ar      23 UNK        -0.1150 
     13 C13        -2.4858  -17.2117  -48.8788 C.ar      23 UNK        -0.0193 
     14 C14        -2.3280  -16.4439  -47.7216 C.ar      23 UNK        -0.1150 
     15 C15        -1.8821  -18.6047  -48.9837 C.3       23 UNK        -0.0205 
     16 S16        -3.0664  -19.9028  -48.5163 S.3       23 UNK        -0.2404 
     17 C17        -2.8416  -19.9900  -46.7082 C.3       23 UNK        -0.0398 
     18 CA         -1.9164  -21.1483  -46.2526 C.3       11 UNK         0.1400 
     19 N          -1.4472  -20.9533  -44.8747 N.am      11 UNK        -0.5000 
     20 C          -0.5703  -21.7497  -44.2399 C.2       10 UNK         0.5000 
     21 O           0.0143  -22.6802  -44.7914 O.2       10 UNK        -0.5000 
     22 CA         -0.3353  -21.5247  -42.7316 C.3       10 UNK         0.1400 
     23 CB          1.0572  -20.9392  -42.4662 C.3       10 UNK        -0.1800 
     24 N          -1.3426  -20.6795  -42.0919 N.am      10 UNK        -0.5000 
     25 C          -2.6306  -21.0155  -41.9277 C.2       9 UNK         0.5000 
     26 O          -3.0956  -22.1061  -42.2610 O.2       9 UNK        -0.5000 
     27 CA         -3.5660  -19.9317  -41.3546 C.3       9 UNK         0.1400 
     28 CB         -3.7280  -20.1132  -39.8382 C.3       9 UNK        -0.1800 
     29 N          -3.1245  -18.5591  -41.6254 N.am      9 UNK        -0.5000 
     30 C          -2.9191  -18.0281  -42.8404 C.2       8 UNK         0.5000 
     31 O          -3.0882  -18.6481  -43.8889 O.2       8 UNK        -0.5000 
     32 CA         -2.3928  -16.5817  -42.8970 C.3       8 UNK         0.1400 
     33 CB         -3.5463  -15.6032  -43.1620 C.3       8 UNK        -0.1800 
     34 N          -1.6826  -16.1710  -41.6824 N.am      8 UNK        -0.5000 
     35 C          -0.5062  -16.6696  -41.2823 C.2       7 UNK         0.5000 
     36 O           0.1149  -17.5453  -41.8930 O.2       7 UNK        -0.5000 
     37 CA          0.0378  -16.1329  -39.9519 C.3       7 UNK         0.1400 
     38 CB         -0.4649  -16.9949  -38.7829 C.3       7 UNK        -0.1800 
     39 N           1.4925  -16.1904  -39.9951 N.am      7 UNK        -0.5000 
     40 C           2.3248  -15.1652  -39.7811 C.2       6 UNK         0.5000 
     41 O           1.9608  -14.0582  -39.3817 O.2       6 UNK        -0.5000 
     42 CA          3.8213  -15.4095  -40.0721 C.3       6 UNK         0.1400 
     43 CB          4.5962  -15.6187  -38.7618 C.3       6 UNK        -0.1800 
     44 N           4.0732  -16.5518  -40.9576 N.am      6 UNK        -0.5000 
     45 C           3.7296  -16.6162  -42.2514 C.2       5 UNK         0.5000 
     46 O           3.1927  -15.6859  -42.8564 O.2       5 UNK        -0.5000 
     47 CA          4.0099  -17.9391  -42.9860 C.3       5 UNK         0.1400 
     48 CB          4.1522  -19.1583  -42.0475 C.3       5 UNK        -0.1800 
     49 N           2.9388  -18.1696  -43.9497 N.am      5 UNK        -0.5000 
     50 C           3.0434  -18.8947  -45.0678 C.2       4 UNK         0.5000 
     51 O           4.0774  -19.4786  -45.3979 O.2       4 UNK        -0.5000 
     52 CA          1.7963  -19.0004  -45.9688 C.3       4 UNK         0.1400 
     53 CB          0.5778  -18.1999  -45.4646 C.3       4 UNK        -0.1800 
     54 N           2.1439  -18.5437  -47.3118 N.am      4 UNK        -0.5000 
     55 C           2.5124  -19.3384  -48.3274 C.2       3 UNK         0.5000 
     56 O           2.4796  -20.5677  -48.2752 O.2       3 UNK        -0.5000 
     57 CA          2.9952  -18.6639  -49.6298 C.3       3 UNK         0.1400 
     58 CB          2.0091  -18.9299  -50.7771 C.3       3 UNK        -0.1800 
     59 N           3.1813  -17.2185  -49.4937 N.am      3 UNK        -0.5000 
     60 C           4.2829  -16.6339  -48.9971 C.2       2 UNK         0.5000 
     61 O           5.2938  -17.2556  -48.6699 O.2       2 UNK        -0.5000 
     62 CA          4.2486  -15.1007  -48.8068 C.3       2 UNK         0.1400 
     63 CB          4.9269  -14.3961  -49.9913 C.3       2 UNK        -0.1800 
     64 N           2.8948  -14.5648  -48.6482 N.am      2 UNK        -0.5000 
     65 C           2.0569  -14.8833  -47.6520 C.2       1 UNK         0.5000 
     66 O           2.3965  -15.5587  -46.6815 O.2       1 UNK        -0.5000 
     67 C          -2.6043  -22.5210  -46.4289 C.2       11 UNK         0.5000 
     68 O          -2.3719  -23.1933  -47.4312 O.2       11 UNK        -0.5000 
     69 N          -3.3930  -22.9388  -45.4264 N.am      12 UNK        -0.5000 
     70 CA         -4.0676  -24.2370  -45.4041 C.3       12 UNK         0.1400 
     71 CB         -5.1323  -24.2398  -44.2971 C.3       12 UNK        -0.1800 
     72 C          -3.0871  -25.4099  -45.2205 C.2       12 UNK         0.5000 
     73 O          -3.2812  -26.4620  -45.8292 O.2       12 UNK        -0.5000 
     74 N          -2.0438  -25.2014  -44.4047 N.am      13 UNK        -0.5000 
     75 CA         -0.9858  -26.1793  -44.1437 C.3       13 UNK         0.1400 
     76 CB         -0.1857  -25.7492  -42.9042 C.3       13 UNK        -0.1800 
     77 C          -0.0569  -26.3732  -45.3560 C.2       13 UNK         0.5000 
     78 O           0.3012  -27.5069  -45.6764 O.2       13 UNK        -0.5000 
     79 N           0.2960  -25.2643  -46.0190 N.am      14 UNK        -0.5000 
     80 CA          1.1250  -25.2332  -47.2250 C.3       14 UNK         0.1400 
     81 CB          1.6812  -23.8103  -47.3934 C.3       14 UNK        -0.1800 
     82 C           0.3742  -25.6601  -48.5021 C.2       14 UNK         0.5000 
     83 O           1.0186  -25.8948  -49.5257 O.2       14 UNK        -0.5000 
     84 N          -0.9644  -25.7029  -48.4390 N.am      15 UNK        -0.5000 
     85 CA         -1.9438  -25.8819  -49.5183 C.3       15 UNK         0.1400 
     86 CB         -1.7347  -27.1963  -50.2950 C.3       15 UNK        -0.1800 
     87 C          -2.0156  -24.6593  -50.4525 C.2       15 UNK         0.5000 
     88 O          -3.1017  -24.1088  -50.6338 O.2       15 UNK        -0.5000 
     89 N          -0.8529  -24.2477  -50.9840 N.am      16 UNK        -0.5000 
     90 CA         -0.5571  -22.9686  -51.6392 C.3       16 UNK         0.1400 
     91 CB         -0.4340  -21.8732  -50.5609 C.3       16 UNK        -0.1800 
     92 C          -1.5365  -22.5772  -52.7653 C.2       16 UNK         0.5000 
     93 O          -1.9038  -21.4077  -52.8729 O.2       16 UNK        -0.5000 
     94 N          -1.9484  -23.5617  -53.5777 N.am      17 UNK        -0.5000 
     95 CA         -3.0526  -23.4854  -54.5441 C.3       17 UNK         0.1400 
     96 CB         -3.1342  -24.8126  -55.3131 C.3       17 UNK        -0.1800 
     97 C          -3.0097  -22.2980  -55.5276 C.2       17 UNK         0.5000 
     98 O          -4.0615  -21.7534  -55.8648 O.2       17 UNK        -0.5000 
     99 N          -1.8005  -21.9057  -55.9501 N.am      18 UNK        -0.5000 
    100 CA        -1.5631  -20.7684  -56.8414 C.3       18 UNK         0.1400 
    101 CB        -0.1189  -20.8338  -57.3611 C.3       18 UNK        -0.1800 
    102 C         -1.8361  -19.4019  -56.1809 C.2       18 UNK         0.5000 
    103 O         -2.2225  -18.4633  -56.8782 O.2       18 UNK        -0.5000 
    104 N         -1.6333  -19.3132  -54.8602 N.am      19 UNK        -0.5000 
    105 CA        -1.8916  -18.1197  -54.0573 C.3       19 UNK         0.1400 
    106 CB        -0.8505  -18.0271  -52.9312 C.3       19 UNK        -0.1800 
    107 C         -3.3146  -18.1483  -53.4818 C.2       19 UNK         0.5000 
    108 O         -4.0120  -17.1369  -53.5400 O.2       19 UNK        -0.5000 
    109 N         -3.7324  -19.3159  -52.9681 N.am      20 UNK        -0.5000 
    110 CA        -5.0253  -19.5836  -52.3245 C.3       20 UNK         0.1400 
    111 CB        -5.0231  -21.0212  -51.7850 C.3       20 UNK        -0.1800 
    112 C         -6.2558  -19.3473  -53.2240 C.2       20 UNK         0.5000 
    113 O         -7.3719  -19.2345  -52.7132 O.2       20 UNK        -0.5000 
    114 N         -6.0255  -19.2114  -54.5373 N.am      21 UNK        -0.5000 
    115 CA        -6.9681  -18.7436  -55.5546 C.3       21 UNK         0.1400 
    116 CB        -6.2481  -18.7354  -56.9121 C.3       21 UNK        -0.1800 
    117 C         -7.5958  -17.3599  -55.2640 C.2       21 UNK         0.5000 
    118 O         -8.6220  -17.0363  -55.8640 O.2       21 UNK        -0.5000 
    119 N         -7.0068  -16.5846  -54.3394 N.am      22 UNK        -0.5000 
    120 CA        -7.6151  -15.3897  -53.7320 C.3       22 UNK         0.1400 
    121 C         -8.9468  -15.6436  -52.9573 C.2       22 UNK         0.5000 
    122 N         -9.2462  -16.8648  -52.5257 N.am      22 UNK        -0.7600 
    123 O         -9.7245  -14.7148  -52.7550 O.2       22 UNK        -0.5000 
    124 C124       -6.5974  -14.6030  -52.8623 C.3       23 UNK        -0.0398 
    125 S125       -6.0444  -15.4861  -51.3562 S.3       23 UNK        -0.2404 
    126 C126       -4.3828  -14.7819  -51.1351 C.3       23 UNK        -0.0205 
    127 H127        0.3797  -14.2124  -52.2998 H         1 UNK         0.0600 
    128 H128       -0.6688  -13.1335  -51.3712 H         1 UNK         0.0600 
    129 H129       -1.2461  -14.7330  -51.8453 H         1 UNK         0.0600 
    130 H130       -0.1506  -13.0603  -49.1965 H         1 UNK         0.3000 
    131 H131        0.0281  -15.3728  -47.6098 H         1 UNK         0.0600 
    132 H132        0.8426  -12.5938  -46.6901 H         1 UNK         0.0800 
    133 H133        0.2965  -13.9157  -45.6947 H         1 UNK         0.0800 
    134 H134       -3.5302  -13.9327  -46.0485 H         1 UNK         0.0800 
    135 H135       -2.1034  -14.8511  -45.6333 H         1 UNK         0.0800 
    136 H136       -3.8792  -13.5962  -48.7213 H         1 UNK         0.1150 
    137 H137       -3.2929  -17.2562  -50.8648 H         1 UNK         0.1150 
    138 H138       -1.7956  -16.8492  -46.8756 H         1 UNK         0.1150 
    139 H139       -0.9744  -18.6826  -48.3844 H         1 UNK         0.0800 
    140 H140       -1.5705  -18.7843  -50.0129 H         1 UNK         0.0800 
    141 H141       -3.8238  -20.0676  -46.2385 H         1 UNK         0.0800 
    142 H142       -2.4401  -19.0361  -46.3735 H         1 UNK         0.0800 
    143 H143       -1.0270  -21.1435  -46.8871 H         1 UNK         0.0600 
    144 H144       -1.9051  -20.2123  -44.3540 H         1 UNK         0.3000 
    145 H145       -0.3778  -22.5078  -42.2586 H         1 UNK         0.0600 
    146 H146        1.2882  -20.9480  -41.4010 H         1 UNK         0.0600 
    147 H147        1.8348  -21.5138  -42.9716 H         1 UNK         0.0600 
    148 H148        1.1296  -19.9100  -42.8106 H         1 UNK         0.0600 
    149 H149       -1.0453  -19.7530  -41.8166 H         1 UNK         0.3000 
    150 H150       -4.5425  -20.0637  -41.8248 H         1 UNK         0.0600 
    151 H151       -2.7853  -19.9582  -39.3117 H         1 UNK         0.0600 
    152 H152       -4.0764  -21.1191  -39.5996 H         1 UNK         0.0600 
    153 H153       -4.4590  -19.4136  -39.4324 H         1 UNK         0.0600 
    154 H154       -2.9584  -17.9739  -40.8207 H         1 UNK         0.3000 
    155 H155       -1.6932  -16.5235  -43.7336 H         1 UNK         0.0600 
    156 H156       -4.2748  -15.6099  -42.3502 H         1 UNK         0.0600 
    157 H157       -4.0760  -15.8631  -44.0797 H         1 UNK         0.0600 
    158 H158       -3.1809  -14.5825  -43.2765 H         1 UNK         0.0600 
    159 H159       -2.1311  -15.4614  -41.1205 H         1 UNK         0.3000 
    160 H160       -0.3074  -15.1054  -39.8197 H         1 UNK         0.0600 
    161 H161       -0.1682  -18.0389  -38.8941 H         1 UNK         0.0600 
    162 H162       -1.5530  -16.9671  -38.7130 H         1 UNK         0.0600 
    163 H163       -0.0697  -16.6353  -37.8327 H         1 UNK         0.0600 
    164 H164        1.8697  -17.0395  -40.3920 H         1 UNK         0.3000 
    165 H165        4.2084  -14.5123  -40.5596 H         1 UNK         0.0600 
    166 H166        5.6662  -15.7157  -38.9465 H         1 UNK         0.0600 
    167 H167        4.2623  -16.5139  -38.2356 H         1 UNK         0.0600 
    168 H168        4.4605  -14.7720  -38.0874 H         1 UNK         0.0600 
    169 H169        4.5097  -17.3579  -40.5340 H         1 UNK         0.3000 
    170 H170        4.9479  -17.8008  -43.5274 H         1 UNK         0.0600 
    171 H171        5.0271  -19.0655  -41.4034 H         1 UNK         0.0600 
    172 H172        3.2763  -19.2792  -41.4093 H         1 UNK         0.0600 
    173 H173        4.2777  -20.0819  -42.6127 H         1 UNK         0.0600 
    174 H174        2.0849  -17.6579  -43.7649 H         1 UNK         0.3000 
    175 H175        1.5097  -20.0539  -45.9922 H         1 UNK         0.0600 
    176 H176        0.7819  -17.1328  -45.3815 H         1 UNK         0.0600 
    177 H177       -0.2592  -18.3233  -46.1456 H         1 UNK         0.0600 
    178 H178        0.2414  -18.5500  -44.4894 H         1 UNK         0.0600 
    179 H179        2.2700  -17.5441  -47.4116 H         1 UNK         0.3000 
    180 H180        3.9505  -19.1193  -49.8988 H         1 UNK         0.0600 
    181 H181        0.9999  -18.6047  -50.5230 H         1 UNK         0.0600 
    182 H182        1.9671  -19.9941  -51.0090 H         1 UNK         0.0600 
    183 H183        2.3090  -18.4127  -51.6886 H         1 UNK         0.0600 
    184 H184        2.3803  -16.6446  -49.7435 H         1 UNK         0.3000 
    185 H185        4.8101  -14.8690  -47.8994 H         1 UNK         0.0600 
    186 H186        4.9761  -13.3184  -49.8346 H         1 UNK         0.0600 
    187 H187        5.9499  -14.7511  -50.1233 H         1 UNK         0.0600 
    188 H188        4.3934  -14.5770  -50.9254 H         1 UNK         0.0600 
    189 H189        2.5286  -14.0217  -49.4164 H         1 UNK         0.3000 
    190 H190       -3.4966  -22.3592  -44.6040 H         1 UNK         0.3000 
    191 H191       -4.5743  -24.3737  -46.3621 H         1 UNK         0.0600 
    192 H192       -5.6783  -25.1840  -44.2843 H         1 UNK         0.0600 
    193 H193       -5.8622  -23.4446  -44.4493 H         1 UNK         0.0600 
    194 H194       -4.6892  -24.1042  -43.3098 H         1 UNK         0.0600 
    195 H195       -1.9548  -24.3005  -43.9591 H         1 UNK         0.3000 
    196 H196       -1.4566  -27.1403  -43.9252 H         1 UNK         0.0600 
    197 H197        0.3301  -24.8019  -43.0624 H         1 UNK         0.0600 
    198 H198       -0.8332  -25.6386  -42.0342 H         1 UNK         0.0600 
    199 H199        0.5707  -26.4939  -42.6537 H         1 UNK         0.0600 
    200 H200        0.0104  -24.3606  -45.6492 H         1 UNK         0.3000 
    201 H201        1.9650  -25.9178  -47.0913 H         1 UNK         0.0600 
    202 H202        0.8809  -23.0798  -47.5217 H         1 UNK         0.0600 
    203 H203        2.3316  -23.7390  -48.2660 H         1 UNK         0.0600 
    204 H204        2.2687  -23.5088  -46.5260 H         1 UNK         0.0600 
    205 H205       -1.3728  -25.4155  -47.5598 H         1 UNK         0.3000 
    206 H206       -2.9109  -25.9521  -49.0175 H         1 UNK         0.0600 
    207 H207       -1.7118  -28.0517  -49.6198 H         1 UNK         0.0600 
    208 H208       -2.5504  -27.3597  -51.0000 H         1 UNK         0.0600 
    209 H209       -0.8082  -27.1969  -50.8690 H         1 UNK         0.0600 
    210 H210       -0.0405  -24.8109  -50.7490 H         1 UNK         0.3000 
    211 H211        0.4187  -23.0777  -52.1138 H         1 UNK         0.0600 
    212 H212       -0.1962  -20.9043  -50.9974 H         1 UNK         0.0600 
    213 H213        0.3542  -22.1077  -49.8454 H         1 UNK         0.0600 
    214 H214       -1.3645  -21.7611  -50.0052 H         1 UNK         0.0600 
    215 H215       -1.5780  -24.4848  -53.4057 H         1 UNK         0.3000 
    216 H216       -3.9700  -23.3828  -53.9627 H         1 UNK         0.0600 
    217 H217       -2.2195  -25.0086  -55.8739 H         1 UNK         0.0600 
    218 H218       -3.9607  -24.8031  -56.0252 H         1 UNK         0.0600 
    219 H219       -3.3009  -25.6515  -54.6371 H         1 UNK         0.0600 
    220 H220       -0.9894  -22.4049  -55.6157 H         1 UNK         0.3000 
    221 H221       -2.2365  -20.8605  -57.6963 H         1 UNK         0.0600 
    222 H222        0.0650  -21.7633  -57.9002 H         1 UNK         0.0600 
    223 H223        0.6050  -20.7669  -56.5480 H         1 UNK         0.0600 
    224 H224        0.0855  -20.0137  -58.0508 H         1 UNK         0.0600 
    225 H225       -1.3995  -20.1552  -54.3459 H         1 UNK         0.3000 
    226 H226       -1.7962  -17.2244  -54.6754 H         1 UNK         0.0600 
    227 H227       -0.8519  -18.9195  -52.3062 H         1 UNK         0.0600 
    228 H228        0.1549  -17.9052  -53.3339 H         1 UNK         0.0600 
    229 H229       -1.0458  -17.1727  -52.2826 H         1 UNK         0.0600 
    230 H230       -3.0741  -20.0939  -52.9611 H         1 UNK         0.3000 
    231 H231       -5.1124  -18.9006  -51.4772 H         1 UNK         0.0600 
    232 H232       -4.9537  -21.7493  -52.5924 H         1 UNK         0.0600 
    233 H233       -5.9363  -21.2330  -51.2277 H         1 UNK         0.0600 
    234 H234       -4.1845  -21.1919  -51.1094 H         1 UNK         0.0600 
    235 H235       -5.0751  -19.3506  -54.8490 H         1 UNK         0.3000 
    236 H236       -7.7851  -19.4660  -55.5994 H         1 UNK         0.0600 
    237 H237       -5.8762  -19.7281  -57.1678 H         1 UNK         0.0600 
    238 H238       -6.9210  -18.4250  -57.7125 H         1 UNK         0.0600 
    239 H239       -5.3990  -18.0504  -56.9106 H         1 UNK         0.0600 
    240 H240       -6.1387  -16.8989  -53.9206 H         1 UNK         0.3000 
    241 H241       -7.8842  -14.7370  -54.5645 H         1 UNK         0.0600 
    242 H242      -10.1100  -17.0177  -52.0304 H         1 UNK         0.3800 
    243 H243       -8.5982  -17.6353  -52.6540 H         1 UNK         0.3800 
    244 H244       -7.0229  -13.6451  -52.5585 H         1 UNK         0.0800 
    245 H245       -5.7248  -14.3579  -53.4694 H         1 UNK         0.0800 
    246 H246       -4.4624  -13.6977  -51.0431 H         1 UNK         0.0800 
    247 H247       -3.7830  -14.9722  -52.0257 H         1 UNK         0.0800 
@<TRIPOS>BOND
     1    1    2 1    
     2    1  127 1    
     3    1  128 1    
     4    1  129 1    
     5    2    3 2    
     6    2    4 am   BACKBONE|DICT|INTERRES
     7    4    5 1    
     8    4  130 1    
     9    5    6 1    
    10    5   65 1    
    11    5  131 1    
    12    6    7 1    
    13    6  132 1    
    14    6  133 1    
    15    7    8 1    
    16    8    9 1    
    17    8  134 1    
    18    8  135 1    
    19    9   10 ar   
    20    9   14 ar   
    21   10   11 ar   
    22   10  136 1    
    23   11   12 ar   
    24   11  126 1    
    25   12   13 ar   
    26   12  137 1    
    27   13   14 ar   
    28   13   15 1    
    29   14  138 1    
    30   15   16 1    
    31   15  139 1    
    32   15  140 1    
    33   16   17 1    
    34   17   18 1    
    35   17  141 1    
    36   17  142 1    
    37   18   19 1    
    38   18   67 1    
    39   18  143 1    
    40   19   20 am   BACKBONE|DICT|INTERRES
    41   19  144 1    
    42   20   21 2    
    43   20   22 1    
    44   22   23 1    
    45   22   24 1    
    46   22  145 1    
    47   23  146 1    
    48   23  147 1    
    49   23  148 1    
    50   24   25 am   BACKBONE|DICT|INTERRES
    51   24  149 1    
    52   25   26 2    
    53   25   27 1    
    54   27   28 1    
    55   27   29 1    
    56   27  150 1    
    57   28  151 1    
    58   28  152 1    
    59   28  153 1    
    60   29   30 am   BACKBONE|DICT|INTERRES
    61   29  154 1    
    62   30   31 2    
    63   30   32 1    
    64   32   33 1    
    65   32   34 1    
    66   32  155 1    
    67   33  156 1    
    68   33  157 1    
    69   33  158 1    
    70   34   35 am   BACKBONE|DICT|INTERRES
    71   34  159 1    
    72   35   36 2    
    73   35   37 1    
    74   37   38 1    
    75   37   39 1    
    76   37  160 1    
    77   38  161 1    
    78   38  162 1    
    79   38  163 1    
    80   39   40 am   BACKBONE|DICT|INTERRES
    81   39  164 1    
    82   40   41 2    
    83   40   42 1    
    84   42   43 1    
    85   42   44 1    
    86   42  165 1    
    87   43  166 1    
    88   43  167 1    
    89   43  168 1    
    90   44   45 am   BACKBONE|DICT|INTERRES
    91   44  169 1    
    92   45   46 2    
    93   45   47 1    
    94   47   48 1    
    95   47   49 1    
    96   47  170 1    
    97   48  171 1    
    98   48  172 1    
    99   48  173 1    
   100   49   50 am   BACKBONE|DICT|INTERRES
   101   49  174 1    
   102   50   51 2    
   103   50   52 1    
   104   52   53 1    
   105   52   54 1    
   106   52  175 1    
   107   53  176 1    
   108   53  177 1    
   109   53  178 1    
   110   54   55 am   BACKBONE|DICT|INTERRES
   111   54  179 1    
   112   55   56 2    
   113   55   57 1    
   114   57   58 1    
   115   57   59 1    
   116   57  180 1    
   117   58  181 1    
   118   58  182 1    
   119   58  183 1    
   120   59   60 am   BACKBONE|DICT|INTERRES
   121   59  184 1    
   122   60   61 2    
   123   60   62 1    
   124   62   63 1    
   125   62   64 1    
   126   62  185 1    
   127   63  186 1    
   128   63  187 1    
   129   63  188 1    
   130   64   65 am   BACKBONE|DICT|INTERRES
   131   64  189 1    
   132   65   66 2    
   133   67   68 2    
   134   67   69 am   BACKBONE|DICT|INTERRES
   135   69   70 1    
   136   69  190 1    
   137   70   71 1    
   138   70   72 1    
   139   70  191 1    
   140   71  192 1    
   141   71  193 1    
   142   71  194 1    
   143   72   73 2    
   144   72   74 am   BACKBONE|DICT|INTERRES
   145   74   75 1    
   146   74  195 1    
   147   75   76 1    
   148   75   77 1    
   149   75  196 1    
   150   76  197 1    
   151   76  198 1    
   152   76  199 1    
   153   77   78 2    
   154   77   79 am   BACKBONE|DICT|INTERRES
   155   79   80 1    
   156   79  200 1    
   157   80   81 1    
   158   80   82 1    
   159   80  201 1    
   160   81  202 1    
   161   81  203 1    
   162   81  204 1    
   163   82   83 2    
   164   82   84 am   BACKBONE|DICT|INTERRES
   165   84   85 1    
   166   84  205 1    
   167   85   86 1    
   168   85   87 1    
   169   85  206 1    
   170   86  207 1    
   171   86  208 1    
   172   86  209 1    
   173   87   88 2    
   174   87   89 am   BACKBONE|DICT|INTERRES
   175   89   90 1    
   176   89  210 1    
   177   90   91 1    
   178   90   92 1    
   179   90  211 1    
   180   91  212 1    
   181   91  213 1    
   182   91  214 1    
   183   92   93 2    
   184   92   94 am   BACKBONE|DICT|INTERRES
   185   94   95 1    
   186   94  215 1    
   187   95   96 1    
   188   95   97 1    
   189   95  216 1    
   190   96  217 1    
   191   96  218 1    
   192   96  219 1    
   193   97   98 2    
   194   97   99 am   BACKBONE|DICT|INTERRES
   195   99  100 1    
   196   99  220 1    
   197  100  101 1    
   198  100  102 1    
   199  100  221 1    
   200  101  222 1    
   201  101  223 1    
   202  101  224 1    
   203  102  103 2    
   204  102  104 am   BACKBONE|DICT|INTERRES
   205  104  105 1    
   206  104  225 1    
   207  105  106 1    
   208  105  107 1    
   209  105  226 1    
   210  106  227 1    
   211  106  228 1    
   212  106  229 1    
   213  107  108 2    
   214  107  109 am   BACKBONE|DICT|INTERRES
   215  109  110 1    
   216  109  230 1    
   217  110  111 1    
   218  110  112 1    
   219  110  231 1    
   220  111  232 1    
   221  111  233 1    
   222  111  234 1    
   223  112  113 2    
   224  112  114 am   BACKBONE|DICT|INTERRES
   225  114  115 1    
   226  114  235 1    
   227  115  116 1    
   228  115  117 1    
   229  115  236 1    
   230  116  237 1    
   231  116  238 1    
   232  116  239 1    
   233  117  118 2    
   234  117  119 am   BACKBONE|DICT|INTERRES
   235  119  120 1    
   236  119  240 1    
   237  120  121 1    
   238  120  124 1    
   239  120  241 1    
   240  121  122 am   BACKBONE|DICT|INTERRES
   241  121  123 2    
   242  122  242 1    
   243  122  243 1    
   244  124  125 1    
   245  124  244 1    
   246  124  245 1    
   247  125  126 1    
   248  126  246 1    
   249  126  247 1    
@<TRIPOS>SUBSTRUCTURE
     1 UNK         1 GROUP             0       ****    0 ROOT    
