@<TRIPOS>MOLECULE
3R540
247   249    1
SMALL
USER_CHARGES


@<TRIPOS>ATOM
      1 CA          9.0386  -11.7352  -49.7777 C.3       0 UNK        -0.1800 
      2 C           7.7392  -12.3374  -49.2611 C.2       0 UNK         0.5000 
      3 O           7.2567  -11.9354  -48.2019 O.2       0 UNK        -0.5000 
      4 N           7.1780  -13.3033  -49.9989 N.am      1 UNK        -0.5000 
      5 CA          5.8959  -13.9478  -49.6997 C.3       1 UNK         0.1400 
      6 C6          5.7411  -15.2705  -50.4916 C.3       23 UNK        -0.0398 
      7 S7          4.5281  -16.4139  -49.7452 S.3       23 UNK        -0.2404 
      8 C8          3.7911  -17.1434  -51.2412 C.3       23 UNK        -0.0205 
      9 C9          2.8405  -18.2863  -50.9126 C.ar      23 UNK        -0.0193 
     10 C10         1.4602  -18.1402  -51.0956 C.ar      23 UNK        -0.1150 
     11 C11         0.5923  -19.2053  -50.8313 C.ar      23 UNK        -0.0193 
     12 C12         1.1179  -20.4187  -50.3753 C.ar      23 UNK        -0.1150 
     13 C13         2.4915  -20.5756  -50.1786 C.ar      23 UNK        -0.0193 
     14 C14         3.3487  -19.5073  -50.4561 C.ar      23 UNK        -0.1150 
     15 C15         3.0437  -21.9121  -49.7009 C.3       23 UNK        -0.0205 
     16 S16         3.7218  -21.8562  -48.0078 S.3       23 UNK        -0.2404 
     17 C17         2.3148  -21.2820  -46.9974 C.3       23 UNK        -0.0398 
     18 CA          1.4928  -22.4293  -46.3531 C.3       11 UNK         0.1400 
     19 N           1.0344  -22.0629  -45.0083 N.am      11 UNK        -0.5000 
     20 C           0.5025  -22.8985  -44.1048 C.2       10 UNK         0.5000 
     21 O           0.3776  -24.1094  -44.2938 O.2       10 UNK        -0.5000 
     22 CA         -0.0173  -22.2557  -42.8007 C.3       10 UNK         0.1400 
     23 CB         -0.1233  -23.2558  -41.6308 C.3       10 UNK        -0.1800 
     24 N           0.7344  -21.0564  -42.4156 N.am      10 UNK        -0.5000 
     25 C           2.0264  -20.9813  -42.0599 C.2       9 UNK         0.5000 
     26 O           2.7612  -21.9622  -41.9385 O.2       9 UNK        -0.5000 
     27 CA          2.6182  -19.5754  -41.8269 C.3       9 UNK         0.1400 
     28 CB          3.6491  -19.2487  -42.9197 C.3       9 UNK        -0.1800 
     29 N           1.6159  -18.5079  -41.7956 N.am      9 UNK        -0.5000 
     30 C           0.7747  -18.2652  -40.7820 C.2       8 UNK         0.5000 
     31 O           0.7805  -18.8945  -39.7236 O.2       8 UNK        -0.5000 
     32 CA         -0.2727  -17.1561  -41.0030 C.3       8 UNK         0.1400 
     33 CB          0.3100  -15.7802  -40.6470 C.3       8 UNK        -0.1800 
     34 N          -0.8032  -17.1228  -42.3693 N.am      8 UNK        -0.5000 
     35 C          -1.5179  -18.1067  -42.9363 C.2       7 UNK         0.5000 
     36 O          -1.8131  -19.1558  -42.3639 O.2       7 UNK        -0.5000 
     37 CA         -1.9255  -17.9102  -44.4078 C.3       7 UNK         0.1400 
     38 CB         -3.1004  -16.9286  -44.5271 C.3       7 UNK        -0.1800 
     39 N          -0.8089  -17.4507  -45.2322 N.am      7 UNK        -0.5000 
     40 C           0.3041  -18.1621  -45.4594 C.2       6 UNK         0.5000 
     41 O           0.4786  -19.3104  -45.0509 O.2       6 UNK        -0.5000 
     42 CA          1.4294  -17.4636  -46.2391 C.3       6 UNK         0.1400 
     43 CB          1.1549  -17.5109  -47.7442 C.3       6 UNK        -0.1800 
     44 N           1.6226  -16.0739  -45.8364 N.am      6 UNK        -0.5000 
     45 C           1.9869  -15.6658  -44.6148 C.2       5 UNK         0.5000 
     46 O           2.2457  -16.4274  -43.6850 O.2       5 UNK        -0.5000 
     47 CA          2.0061  -14.1469  -44.3814 C.3       5 UNK         0.1400 
     48 CB          3.2793  -13.5127  -44.9631 C.3       5 UNK        -0.1800 
     49 N           0.8249  -13.4982  -44.9509 N.am      5 UNK        -0.5000 
     50 C          -0.4241  -13.6656  -44.4936 C.2       4 UNK         0.5000 
     51 O          -0.7095  -14.3638  -43.5205 O.2       4 UNK        -0.5000 
     52 CA         -1.5443  -12.9601  -45.2788 C.3       4 UNK         0.1400 
     53 CB         -1.6804  -11.4968  -44.8326 C.3       4 UNK        -0.1800 
     54 N          -1.3329  -13.0095  -46.7266 N.am      4 UNK        -0.5000 
     55 C          -1.4134  -14.1282  -47.4596 C.2       3 UNK         0.5000 
     56 O          -1.6872  -15.2342  -46.9952 O.2       3 UNK        -0.5000 
     57 CA         -1.0897  -13.9958  -48.9593 C.3       3 UNK         0.1400 
     58 CB         -2.3155  -13.4968  -49.7385 C.3       3 UNK        -0.1800 
     59 N           0.0606  -13.1338  -49.2469 N.am      3 UNK        -0.5000 
     60 C           1.2988  -13.3501  -48.7864 C.2       2 UNK         0.5000 
     61 O           1.5867  -14.2475  -47.9908 O.2       2 UNK        -0.5000 
     62 CA          2.3991  -12.4007  -49.2711 C.3       2 UNK         0.1400 
     63 CB          2.4468  -11.1263  -48.4122 C.3       2 UNK        -0.1800 
     64 N           3.6632  -13.1155  -49.1599 N.am      2 UNK        -0.5000 
     65 C           4.7201  -12.9807  -49.9622 C.2       1 UNK         0.5000 
     66 O           4.7822  -12.1643  -50.8858 O.2       1 UNK        -0.5000 
     67 C           0.3076  -22.8382  -47.2541 C.2       11 UNK         0.5000 
     68 O           0.4736  -23.6592  -48.1550 O.2       11 UNK        -0.5000 
     69 N          -0.8804  -22.2893  -46.9564 N.am      12 UNK        -0.5000 
     70 CA         -2.1528  -22.5399  -47.6325 C.3       12 UNK         0.1400 
     71 CB         -3.2495  -21.7274  -46.9320 C.3       12 UNK        -0.1800 
     72 C          -2.5506  -24.0228  -47.7088 C.2       12 UNK         0.5000 
     73 O          -3.1495  -24.4315  -48.7024 O.2       12 UNK        -0.5000 
     74 N          -2.1646  -24.8114  -46.6959 N.am      13 UNK        -0.5000 
     75 CA         -2.3715  -26.2601  -46.6340 C.3       13 UNK         0.1400 
     76 CB         -1.9778  -26.7557  -45.2343 C.3       13 UNK        -0.1800 
     77 C          -1.6080  -27.0465  -47.7210 C.2       13 UNK         0.5000 
     78 O          -2.0126  -28.1616  -48.0512 O.2       13 UNK        -0.5000 
     79 N          -0.5382  -26.4525  -48.2663 N.am      14 UNK        -0.5000 
     80 CA          0.2489  -26.9783  -49.3809 C.3       14 UNK         0.1400 
     81 CB          1.7406  -26.7958  -49.0497 C.3       14 UNK        -0.1800 
     82 C          -0.1123  -26.2907  -50.7151 C.2       14 UNK         0.5000 
     83 O           0.5661  -26.5332  -51.7149 O.2       14 UNK        -0.5000 
     84 N          -1.1505  -25.4444  -50.7181 N.am      15 UNK        -0.5000 
     85 CA         -1.6063  -24.6633  -51.8619 C.3       15 UNK         0.1400 
     86 CB         -1.1032  -23.2118  -51.7155 C.3       15 UNK        -0.1800 
     87 C          -3.1340  -24.8023  -52.0062 C.2       15 UNK         0.5000 
     88 O          -3.6496  -25.9203  -51.9485 O.2       15 UNK        -0.5000 
     89 N          -3.8289  -23.6809  -52.2313 N.am      16 UNK        -0.5000 
     90 CA         -5.2522  -23.6178  -52.5705 C.3       16 UNK         0.1400 
     91 CB         -5.4862  -22.3354  -53.3822 C.3       16 UNK        -0.1800 
     92 C          -6.2135  -23.7016  -51.3648 C.2       16 UNK         0.5000 
     93 O          -7.4274  -23.7423  -51.5762 O.2       16 UNK        -0.5000 
     94 N          -5.6778  -23.7417  -50.1354 N.am      17 UNK        -0.5000 
     95 CA         -6.3962  -23.8400  -48.8618 C.3       17 UNK         0.1400 
     96 CB         -7.0146  -25.2463  -48.6985 C.3       17 UNK        -0.1800 
     97 C          -7.3950  -22.6814  -48.6625 C.2       17 UNK         0.5000 
     98 O          -6.9654  -21.5545  -48.4175 O.2       17 UNK        -0.5000 
     99 N          -8.6987  -22.9696  -48.7529 N.am      18 UNK        -0.5000 
    100 CA        -9.7758  -21.9914  -48.5992 C.3       18 UNK         0.1400 
    101 CB       -11.0615  -22.7376  -48.2081 C.3       18 UNK        -0.1800 
    102 C        -10.0154  -21.1321  -49.8574 C.2       18 UNK         0.5000 
    103 O        -10.6519  -20.0827  -49.7483 O.2       18 UNK        -0.5000 
    104 N         -9.5419  -21.5902  -51.0231 N.am      19 UNK        -0.5000 
    105 CA        -9.7015  -20.9094  -52.3068 C.3       19 UNK         0.1400 
    106 CB        -9.8733  -21.9758  -53.4023 C.3       19 UNK        -0.1800 
    107 C         -8.4971  -20.0037  -52.6190 C.2       19 UNK         0.5000 
    108 O         -7.4382  -20.1495  -52.0061 O.2       19 UNK        -0.5000 
    109 N         -8.6852  -19.1196  -53.6108 N.am      20 UNK        -0.5000 
    110 CA        -7.6833  -18.2414  -54.2279 C.3       20 UNK         0.1400 
    111 CB        -6.7279  -19.0810  -55.1069 C.3       20 UNK        -0.1800 
    112 C         -6.9553  -17.3265  -53.2155 C.2       20 UNK         0.5000 
    113 O         -7.5813  -16.8447  -52.2679 O.2       20 UNK        -0.5000 
    114 N         -5.6592  -17.0789  -53.4450 N.am      21 UNK        -0.5000 
    115 CA        -4.7621  -16.4137  -52.5033 C.3       21 UNK         0.1400 
    116 CB        -3.5145  -15.9256  -53.2562 C.3       21 UNK        -0.1800 
    117 C         -4.3624  -17.3797  -51.3747 C.2       21 UNK         0.5000 
    118 O         -4.2565  -18.5827  -51.6181 O.2       21 UNK        -0.5000 
    119 N         -4.1475  -16.8214  -50.1781 N.am      22 UNK        -0.5000 
    120 CA        -3.7664  -17.4621  -48.9022 C.3       22 UNK         0.1400 
    121 C         -4.7475  -18.5257  -48.3190 C.2       22 UNK         0.5000 
    122 N         -5.5236  -19.2298  -49.1282 N.am      22 UNK        -0.7600 
    123 O         -4.8198  -18.6876  -47.1047 O.2       22 UNK        -0.5000 
    124 C124       -2.2777  -17.9174  -48.8506 C.3       23 UNK        -0.0398 
    125 S125       -1.8988  -19.5276  -49.6244 S.3       23 UNK        -0.2404 
    126 C126       -0.9048  -19.0701  -51.0811 C.3       23 UNK        -0.0205 
    127 H127        9.3534  -12.1930  -50.7158 H         1 UNK         0.0600 
    128 H128        9.8347  -11.8766  -49.0467 H         1 UNK         0.0600 
    129 H129        8.9149  -10.6655  -49.9464 H         1 UNK         0.0600 
    130 H130        7.6069  -13.5640  -50.8752 H         1 UNK         0.3000 
    131 H131        5.9057  -14.1899  -48.6341 H         1 UNK         0.0600 
    132 H132        5.4880  -15.0728  -51.5350 H         1 UNK         0.0800 
    133 H133        6.6926  -15.8039  -50.5128 H         1 UNK         0.0800 
    134 H134        4.5847  -17.5180  -51.8894 H         1 UNK         0.0800 
    135 H135        3.2745  -16.3630  -51.8021 H         1 UNK         0.0800 
    136 H136        1.0635  -17.2016  -51.4559 H         1 UNK         0.1150 
    137 H137        0.4514  -21.2447  -50.1722 H         1 UNK         0.1150 
    138 H138        4.4140  -19.6259  -50.3159 H         1 UNK         0.1150 
    139 H139        2.2808  -22.6889  -49.7586 H         1 UNK         0.0800 
    140 H140        3.8370  -22.2263  -50.3803 H         1 UNK         0.0800 
    141 H141        1.6848  -20.5981  -47.5649 H         1 UNK         0.0800 
    142 H142        2.7606  -20.6652  -46.2156 H         1 UNK         0.0800 
    143 H143        2.1341  -23.3059  -46.2387 H         1 UNK         0.0600 
    144 H144        1.0196  -21.0663  -44.8026 H         1 UNK         0.3000 
    145 H145       -1.0278  -21.9104  -43.0235 H         1 UNK         0.0600 
    146 H146       -0.4896  -22.7677  -40.7276 H         1 UNK         0.0600 
    147 H147       -0.8193  -24.0611  -41.8684 H         1 UNK         0.0600 
    148 H148        0.8375  -23.7157  -41.3990 H         1 UNK         0.0600 
    149 H149        0.2214  -20.1870  -42.4919 H         1 UNK         0.3000 
    150 H150        3.1339  -19.5941  -40.8648 H         1 UNK         0.0600 
    151 H151        4.4368  -20.0022  -42.9584 H         1 UNK         0.0600 
    152 H152        4.1300  -18.2883  -42.7336 H         1 UNK         0.0600 
    153 H153        3.1863  -19.2060  -43.9063 H         1 UNK         0.0600 
    154 H154        1.5976  -17.8858  -42.5995 H         1 UNK         0.3000 
    155 H155       -1.1084  -17.3544  -40.3289 H         1 UNK         0.0600 
    156 H156        0.6939  -15.7696  -39.6262 H         1 UNK         0.0600 
    157 H157       -0.4492  -15.0010  -40.7172 H         1 UNK         0.0600 
    158 H158        1.1309  -15.5067  -41.3104 H         1 UNK         0.0600 
    159 H159       -0.6243  -16.2773  -42.9026 H         1 UNK         0.3000 
    160 H160       -2.2527  -18.8764  -44.7982 H         1 UNK         0.0600 
    161 H161       -2.8360  -15.9325  -44.1727 H         1 UNK         0.0600 
    162 H162       -3.9552  -17.2709  -43.9427 H         1 UNK         0.0600 
    163 H163       -3.4318  -16.8366  -45.5611 H         1 UNK         0.0600 
    164 H164       -0.9005  -16.5312  -45.6514 H         1 UNK         0.3000 
    165 H165        2.3558  -18.0061  -46.0416 H         1 UNK         0.0600 
    166 H166        2.0363  -17.2090  -48.3074 H         1 UNK         0.0600 
    167 H167        0.8831  -18.5136  -48.0702 H         1 UNK         0.0600 
    168 H168        0.3424  -16.8431  -48.0250 H         1 UNK         0.0600 
    169 H169        1.4688  -15.3725  -46.5579 H         1 UNK         0.3000 
    170 H170        2.0024  -13.9738  -43.3031 H         1 UNK         0.0600 
    171 H171        4.1712  -13.9611  -44.5240 H         1 UNK         0.0600 
    172 H172        3.3453  -13.6460  -46.0428 H         1 UNK         0.0600 
    173 H173        3.3176  -12.4434  -44.7550 H         1 UNK         0.0600 
    174 H174        0.9640  -12.9538  -45.7884 H         1 UNK         0.3000 
    175 H175       -2.4817  -13.4733  -45.0531 H         1 UNK         0.0600 
    176 H176       -1.8550  -11.4318  -43.7578 H         1 UNK         0.0600 
    177 H177       -0.7814  -10.9206  -45.0548 H         1 UNK         0.0600 
    178 H178       -2.5217  -11.0109  -45.3271 H         1 UNK         0.0600 
    179 H179       -1.0962  -12.1436  -47.1879 H         1 UNK         0.3000 
    180 H180       -0.8403  -14.9922  -49.3264 H         1 UNK         0.0600 
    181 H181       -3.1922  -14.1080  -49.5237 H         1 UNK         0.0600 
    182 H182       -2.5651  -12.4671  -49.4800 H         1 UNK         0.0600 
    183 H183       -2.1439  -13.5409  -50.8141 H         1 UNK         0.0600 
    184 H184       -0.0997  -12.3660  -49.8832 H         1 UNK         0.3000 
    185 H185        2.2048  -12.1425  -50.3142 H         1 UNK         0.0600 
    186 H186        1.5070  -10.5763  -48.4720 H         1 UNK         0.0600 
    187 H187        2.6296  -11.3555  -47.3615 H         1 UNK         0.0600 
    188 H188        3.2374  -10.4554  -48.7488 H         1 UNK         0.0600 
    189 H189        3.6400  -13.8687  -48.4828 H         1 UNK         0.3000 
    190 H190       -0.9050  -21.6219  -46.1997 H         1 UNK         0.3000 
    191 H191       -2.0527  -22.1828  -48.6560 H         1 UNK         0.0600 
    192 H192       -3.4324  -22.0820  -45.9170 H         1 UNK         0.0600 
    193 H193       -4.1909  -21.7864  -47.4796 H         1 UNK         0.0600 
    194 H194       -2.9789  -20.6735  -46.8729 H         1 UNK         0.0600 
    195 H195       -1.6381  -24.4008  -45.9375 H         1 UNK         0.3000 
    196 H196       -3.4365  -26.4520  -46.7801 H         1 UNK         0.0600 
    197 H197       -2.1515  -27.8279  -45.1351 H         1 UNK         0.0600 
    198 H198       -2.5628  -26.2593  -44.4599 H         1 UNK         0.0600 
    199 H199       -0.9225  -26.5730  -45.0266 H         1 UNK         0.0600 
    200 H200       -0.2900  -25.5134  -47.9703 H         1 UNK         0.3000 
    201 H201        0.0598  -28.0460  -49.5077 H         1 UNK         0.0600 
    202 H202        1.9962  -27.2757  -48.1049 H         1 UNK         0.0600 
    203 H203        2.0108  -25.7419  -48.9741 H         1 UNK         0.0600 
    204 H204        2.3720  -27.2415  -49.8192 H         1 UNK         0.0600 
    205 H205       -1.7060  -25.3413  -49.8764 H         1 UNK         0.3000 
    206 H206       -1.1863  -25.0712  -52.7832 H         1 UNK         0.0600 
    207 H207       -0.0196  -23.1888  -51.5972 H         1 UNK         0.0600 
    208 H208       -1.3366  -22.6149  -52.5978 H         1 UNK         0.0600 
    209 H209       -1.5385  -22.7166  -50.8481 H         1 UNK         0.0600 
    210 H210       -3.3337  -22.8010  -52.2373 H         1 UNK         0.3000 
    211 H211       -5.4914  -24.4651  -53.2166 H         1 UNK         0.0600 
    212 H212       -6.5285  -22.2459  -53.6891 H         1 UNK         0.0600 
    213 H213       -4.8829  -22.3255  -54.2900 H         1 UNK         0.0600 
    214 H214       -5.2343  -21.4460  -52.8030 H         1 UNK         0.0600 
    215 H215       -4.6686  -23.7350  -50.0534 H         1 UNK         0.3000 
    216 H216       -5.6514  -23.7254  -48.0744 H         1 UNK         0.0600 
    217 H217       -7.5220  -25.3440  -47.7379 H         1 UNK         0.0600 
    218 H218       -6.2390  -26.0120  -48.7294 H         1 UNK         0.0600 
    219 H219       -7.7353  -25.4792  -49.4828 H         1 UNK         0.0600 
    220 H220       -8.9701  -23.9143  -48.9837 H         1 UNK         0.3000 
    221 H221       -9.5190  -21.3116  -47.7839 H         1 UNK         0.0600 
    222 H222      -11.3707  -23.4397  -48.9835 H         1 UNK         0.0600 
    223 H223      -10.9275  -23.2965  -47.2818 H         1 UNK         0.0600 
    224 H224      -11.8855  -22.0409  -48.0488 H         1 UNK         0.0600 
    225 H225       -8.9406  -22.4075  -51.0261 H         1 UNK         0.3000 
    226 H226      -10.6013  -20.2907  -52.2891 H         1 UNK         0.0600 
    227 H227      -10.7265  -22.6211  -53.1927 H         1 UNK         0.0600 
    228 H228      -10.0465  -21.5182  -54.3769 H         1 UNK         0.0600 
    229 H229       -8.9904  -22.6091  -53.4913 H         1 UNK         0.0600 
    230 H230       -9.6080  -19.0583  -54.0169 H         1 UNK         0.3000 
    231 H231       -8.2362  -17.5733  -54.8896 H         1 UNK         0.0600 
    232 H232       -7.2848  -19.7457  -55.7674 H         1 UNK         0.0600 
    233 H233       -6.0623  -19.6982  -54.5028 H         1 UNK         0.0600 
    234 H234       -6.1108  -18.4476  -55.7451 H         1 UNK         0.0600 
    235 H235       -5.2164  -17.5473  -54.2214 H         1 UNK         0.3000 
    236 H236       -5.2737  -15.5488  -52.0752 H         1 UNK         0.0600 
    237 H237       -3.7807  -15.2304  -54.0526 H         1 UNK         0.0600 
    238 H238       -2.8316  -15.4039  -52.5844 H         1 UNK         0.0600 
    239 H239       -2.9638  -16.7545  -53.7031 H         1 UNK         0.0600 
    240 H240       -4.3146  -15.8295  -50.1026 H         1 UNK         0.3000 
    241 H241       -3.8359  -16.6341  -48.1951 H         1 UNK         0.0600 
    242 H242       -5.3896  -19.1509  -50.1306 H         1 UNK         0.3800 
    243 H243       -6.1280  -19.9589  -48.7576 H         1 UNK         0.3800 
    244 H244       -1.6412  -17.1503  -49.2871 H         1 UNK         0.0800 
    245 H245       -1.9686  -17.9910  -47.8074 H         1 UNK         0.0800 
    246 H246       -1.1765  -19.7368  -51.9002 H         1 UNK         0.0800 
    247 H247       -1.1666  -18.0642  -51.4119 H         1 UNK         0.0800 
@<TRIPOS>BOND
     1    1    2 1    
     2    1  127 1    
     3    1  128 1    
     4    1  129 1    
     5    2    3 2    
     6    2    4 am   BACKBONE|DICT|INTERRES
     7    4    5 1    
     8    4  130 1    
     9    5    6 1    
    10    5   65 1    
    11    5  131 1    
    12    6    7 1    
    13    6  132 1    
    14    6  133 1    
    15    7    8 1    
    16    8    9 1    
    17    8  134 1    
    18    8  135 1    
    19    9   10 ar   
    20    9   14 ar   
    21   10   11 ar   
    22   10  136 1    
    23   11   12 ar   
    24   11  126 1    
    25   12   13 ar   
    26   12  137 1    
    27   13   14 ar   
    28   13   15 1    
    29   14  138 1    
    30   15   16 1    
    31   15  139 1    
    32   15  140 1    
    33   16   17 1    
    34   17   18 1    
    35   17  141 1    
    36   17  142 1    
    37   18   19 1    
    38   18   67 1    
    39   18  143 1    
    40   19   20 am   BACKBONE|DICT|INTERRES
    41   19  144 1    
    42   20   21 2    
    43   20   22 1    
    44   22   23 1    
    45   22   24 1    
    46   22  145 1    
    47   23  146 1    
    48   23  147 1    
    49   23  148 1    
    50   24   25 am   BACKBONE|DICT|INTERRES
    51   24  149 1    
    52   25   26 2    
    53   25   27 1    
    54   27   28 1    
    55   27   29 1    
    56   27  150 1    
    57   28  151 1    
    58   28  152 1    
    59   28  153 1    
    60   29   30 am   BACKBONE|DICT|INTERRES
    61   29  154 1    
    62   30   31 2    
    63   30   32 1    
    64   32   33 1    
    65   32   34 1    
    66   32  155 1    
    67   33  156 1    
    68   33  157 1    
    69   33  158 1    
    70   34   35 am   BACKBONE|DICT|INTERRES
    71   34  159 1    
    72   35   36 2    
    73   35   37 1    
    74   37   38 1    
    75   37   39 1    
    76   37  160 1    
    77   38  161 1    
    78   38  162 1    
    79   38  163 1    
    80   39   40 am   BACKBONE|DICT|INTERRES
    81   39  164 1    
    82   40   41 2    
    83   40   42 1    
    84   42   43 1    
    85   42   44 1    
    86   42  165 1    
    87   43  166 1    
    88   43  167 1    
    89   43  168 1    
    90   44   45 am   BACKBONE|DICT|INTERRES
    91   44  169 1    
    92   45   46 2    
    93   45   47 1    
    94   47   48 1    
    95   47   49 1    
    96   47  170 1    
    97   48  171 1    
    98   48  172 1    
    99   48  173 1    
   100   49   50 am   BACKBONE|DICT|INTERRES
   101   49  174 1    
   102   50   51 2    
   103   50   52 1    
   104   52   53 1    
   105   52   54 1    
   106   52  175 1    
   107   53  176 1    
   108   53  177 1    
   109   53  178 1    
   110   54   55 am   BACKBONE|DICT|INTERRES
   111   54  179 1    
   112   55   56 2    
   113   55   57 1    
   114   57   58 1    
   115   57   59 1    
   116   57  180 1    
   117   58  181 1    
   118   58  182 1    
   119   58  183 1    
   120   59   60 am   BACKBONE|DICT|INTERRES
   121   59  184 1    
   122   60   61 2    
   123   60   62 1    
   124   62   63 1    
   125   62   64 1    
   126   62  185 1    
   127   63  186 1    
   128   63  187 1    
   129   63  188 1    
   130   64   65 am   BACKBONE|DICT|INTERRES
   131   64  189 1    
   132   65   66 2    
   133   67   68 2    
   134   67   69 am   BACKBONE|DICT|INTERRES
   135   69   70 1    
   136   69  190 1    
   137   70   71 1    
   138   70   72 1    
   139   70  191 1    
   140   71  192 1    
   141   71  193 1    
   142   71  194 1    
   143   72   73 2    
   144   72   74 am   BACKBONE|DICT|INTERRES
   145   74   75 1    
   146   74  195 1    
   147   75   76 1    
   148   75   77 1    
   149   75  196 1    
   150   76  197 1    
   151   76  198 1    
   152   76  199 1    
   153   77   78 2    
   154   77   79 am   BACKBONE|DICT|INTERRES
   155   79   80 1    
   156   79  200 1    
   157   80   81 1    
   158   80   82 1    
   159   80  201 1    
   160   81  202 1    
   161   81  203 1    
   162   81  204 1    
   163   82   83 2    
   164   82   84 am   BACKBONE|DICT|INTERRES
   165   84   85 1    
   166   84  205 1    
   167   85   86 1    
   168   85   87 1    
   169   85  206 1    
   170   86  207 1    
   171   86  208 1    
   172   86  209 1    
   173   87   88 2    
   174   87   89 am   BACKBONE|DICT|INTERRES
   175   89   90 1    
   176   89  210 1    
   177   90   91 1    
   178   90   92 1    
   179   90  211 1    
   180   91  212 1    
   181   91  213 1    
   182   91  214 1    
   183   92   93 2    
   184   92   94 am   BACKBONE|DICT|INTERRES
   185   94   95 1    
   186   94  215 1    
   187   95   96 1    
   188   95   97 1    
   189   95  216 1    
   190   96  217 1    
   191   96  218 1    
   192   96  219 1    
   193   97   98 2    
   194   97   99 am   BACKBONE|DICT|INTERRES
   195   99  100 1    
   196   99  220 1    
   197  100  101 1    
   198  100  102 1    
   199  100  221 1    
   200  101  222 1    
   201  101  223 1    
   202  101  224 1    
   203  102  103 2    
   204  102  104 am   BACKBONE|DICT|INTERRES
   205  104  105 1    
   206  104  225 1    
   207  105  106 1    
   208  105  107 1    
   209  105  226 1    
   210  106  227 1    
   211  106  228 1    
   212  106  229 1    
   213  107  108 2    
   214  107  109 am   BACKBONE|DICT|INTERRES
   215  109  110 1    
   216  109  230 1    
   217  110  111 1    
   218  110  112 1    
   219  110  231 1    
   220  111  232 1    
   221  111  233 1    
   222  111  234 1    
   223  112  113 2    
   224  112  114 am   BACKBONE|DICT|INTERRES
   225  114  115 1    
   226  114  235 1    
   227  115  116 1    
   228  115  117 1    
   229  115  236 1    
   230  116  237 1    
   231  116  238 1    
   232  116  239 1    
   233  117  118 2    
   234  117  119 am   BACKBONE|DICT|INTERRES
   235  119  120 1    
   236  119  240 1    
   237  120  121 1    
   238  120  124 1    
   239  120  241 1    
   240  121  122 am   BACKBONE|DICT|INTERRES
   241  121  123 2    
   242  122  242 1    
   243  122  243 1    
   244  124  125 1    
   245  124  244 1    
   246  124  245 1    
   247  125  126 1    
   248  126  246 1    
   249  126  247 1    
@<TRIPOS>SUBSTRUCTURE
     1 UNK         1 GROUP             0       ****    0 ROOT    
