@<TRIPOS>MOLECULE
3R540
247   249    1
SMALL
USER_CHARGES


@<TRIPOS>ATOM
      1 CA          6.3330  -15.0994  -45.1328 C.3       0 UNK        -0.1800 
      2 C           5.2848  -14.0199  -44.9118 C.2       0 UNK         0.5000 
      3 O           5.1548  -13.5104  -43.7991 O.2       0 UNK        -0.5000 
      4 N           4.5470  -13.6548  -45.9691 N.am      1 UNK        -0.5000 
      5 CA          3.4310  -12.6962  -45.9363 C.3       1 UNK         0.1400 
      6 C6          2.6482  -12.6626  -47.2678 C.3       23 UNK        -0.0398 
      7 S7          1.8513  -14.2631  -47.6284 S.3       23 UNK        -0.2404 
      8 C8          2.7025  -14.7586  -49.1553 C.3       23 UNK        -0.0205 
      9 C9          2.0318  -15.9558  -49.8127 C.ar      23 UNK        -0.0193 
     10 C10         0.8019  -15.7953  -50.4562 C.ar      23 UNK        -0.1150 
     11 C11         0.2040  -16.8652  -51.1265 C.ar      23 UNK        -0.0193 
     12 C12         0.8547  -18.1012  -51.1616 C.ar      23 UNK        -0.1150 
     13 C13         2.0730  -18.2878  -50.4983 C.ar      23 UNK        -0.0193 
     14 C14         2.6540  -17.2083  -49.8231 C.ar      23 UNK        -0.1150 
     15 C15         2.7893  -19.6371  -50.5318 C.3       23 UNK        -0.0205 
     16 S16         1.6882  -21.0712  -50.2729 S.3       23 UNK        -0.2404 
     17 C17         0.8933  -20.6065  -48.7008 C.3       23 UNK        -0.0398 
     18 CA          0.3433  -21.8020  -47.8903 C.3       11 UNK         0.1400 
     19 N           0.0188  -21.3988  -46.5200 N.am      11 UNK        -0.5000 
     20 C          -0.3363  -22.2257  -45.5278 C.2       10 UNK         0.5000 
     21 O          -0.3763  -23.4493  -45.6410 O.2       10 UNK        -0.5000 
     22 CA         -0.7696  -21.5737  -44.2011 C.3       10 UNK         0.1400 
     23 CB          0.4512  -21.1706  -43.3619 C.3       10 UNK        -0.1800 
     24 N          -1.6340  -20.4106  -44.4073 N.am      10 UNK        -0.5000 
     25 C          -2.8471  -20.4605  -44.9764 C.2       9 UNK         0.5000 
     26 O          -3.3947  -21.5047  -45.3268 O.2       9 UNK        -0.5000 
     27 CA         -3.5395  -19.1156  -45.2560 C.3       9 UNK         0.1400 
     28 CB         -4.2610  -18.5890  -44.0063 C.3       9 UNK        -0.1800 
     29 N          -2.6009  -18.1093  -45.7522 N.am      9 UNK        -0.5000 
     30 C          -1.9831  -18.1752  -46.9406 C.2       8 UNK         0.5000 
     31 O          -2.1698  -19.0761  -47.7568 O.2       8 UNK        -0.5000 
     32 CA         -0.9486  -17.0769  -47.2381 C.3       8 UNK         0.1400 
     33 CB         -1.6534  -15.8026  -47.7277 C.3       8 UNK        -0.1800 
     34 N          -0.1212  -16.7787  -46.0657 N.am      8 UNK        -0.5000 
     35 C           0.7726  -17.6369  -45.5477 C.2       7 UNK         0.5000 
     36 O           1.0094  -18.7404  -46.0346 O.2       7 UNK        -0.5000 
     37 CA          1.4833  -17.2406  -44.2376 C.3       7 UNK         0.1400 
     38 CB          2.7949  -16.5064  -44.5377 C.3       7 UNK        -0.1800 
     39 N           0.6601  -16.4191  -43.3521 N.am      7 UNK        -0.5000 
     40 C          -0.5265  -16.7921  -42.8490 C.2       6 UNK         0.5000 
     41 O          -0.9937  -17.9221  -42.9922 O.2       6 UNK        -0.5000 
     42 CA         -1.3607  -15.7228  -42.1119 C.3       6 UNK         0.1400 
     43 CB         -1.2751  -15.9323  -40.5930 C.3       6 UNK        -0.1800 
     44 N          -0.9756  -14.3433  -42.4216 N.am      6 UNK        -0.5000 
     45 C          -0.9605  -13.7792  -43.6387 C.2       5 UNK         0.5000 
     46 O          -1.3704  -14.3420  -44.6541 O.2       5 UNK        -0.5000 
     47 CA         -0.3210  -12.3797  -43.7517 C.3       5 UNK         0.1400 
     48 CB         -1.4072  -11.3015  -43.8773 C.3       5 UNK        -0.1800 
     49 N           0.5782  -12.0263  -42.6441 N.am      5 UNK        -0.5000 
     50 C           1.6971  -12.6841  -42.3101 C.2       4 UNK         0.5000 
     51 O           2.0719  -13.7203  -42.8605 O.2       4 UNK        -0.5000 
     52 CA          2.5018  -12.1246  -41.1337 C.3       4 UNK         0.1400 
     53 CB          2.4294  -13.0724  -39.9223 C.3       4 UNK        -0.1800 
     54 N           3.8867  -11.9347  -41.5515 N.am      4 UNK        -0.5000 
     55 C           4.7480  -11.0934  -40.9648 C.2       3 UNK         0.5000 
     56 O           4.4713  -10.4078  -39.9794 O.2       3 UNK        -0.5000 
     57 CA          6.1431  -10.9711  -41.5974 C.3       3 UNK         0.1400 
     58 CB          7.0172  -12.1878  -41.2522 C.3       3 UNK        -0.1800 
     59 N           6.0444  -10.8249  -43.0484 N.am      3 UNK        -0.5000 
     60 C           5.9100   -9.6507  -43.6826 C.2       2 UNK         0.5000 
     61 O           5.9218   -8.5608  -43.1089 O.2       2 UNK        -0.5000 
     62 CA          5.7351   -9.6869  -45.2150 C.3       2 UNK         0.1400 
     63 CB          7.0891   -9.4928  -45.9147 C.3       2 UNK        -0.1800 
     64 N           5.1273  -10.9277  -45.6948 N.am      2 UNK        -0.5000 
     65 C           3.8458  -11.2723  -45.5065 C.2       1 UNK         0.5000 
     66 O           3.0098  -10.5301  -44.9903 O.2       1 UNK        -0.5000 
     67 C          -0.8600  -22.4745  -48.5867 C.2       11 UNK         0.5000 
     68 O          -0.7036  -23.5489  -49.1667 O.2       11 UNK        -0.5000 
     69 N          -2.0486  -21.8655  -48.4705 N.am      12 UNK        -0.5000 
     70 CA         -3.3090  -22.4024  -48.9839 C.3       12 UNK         0.1400 
     71 CB         -4.4138  -21.3480  -48.8214 C.3       12 UNK        -0.1800 
     72 C          -3.7052  -23.7390  -48.3259 C.2       12 UNK         0.5000 
     73 O          -4.1522  -24.6478  -49.0259 O.2       12 UNK        -0.5000 
     74 N          -3.4946  -23.8538  -47.0071 N.am      13 UNK        -0.5000 
     75 CA         -3.6909  -25.0853  -46.2420 C.3       13 UNK         0.1400 
     76 CB         -3.6062  -24.7848  -44.7383 C.3       13 UNK        -0.1800 
     77 C          -2.6988  -26.1937  -46.6399 C.2       13 UNK         0.5000 
     78 O          -3.1123  -27.3421  -46.7961 O.2       13 UNK        -0.5000 
     79 N          -1.4227  -25.8331  -46.8405 N.am      14 UNK        -0.5000 
     80 CA         -0.3632  -26.7309  -47.3117 C.3       14 UNK         0.1400 
     81 CB          0.9982  -26.0285  -47.1992 C.3       14 UNK        -0.1800 
     82 C          -0.5978  -27.2416  -48.7466 C.2       14 UNK         0.5000 
     83 O          -0.2636  -28.3887  -49.0447 O.2       14 UNK        -0.5000 
     84 N          -1.2076  -26.4010  -49.5942 N.am      15 UNK        -0.5000 
     85 CA         -1.6644  -26.7450  -50.9431 C.3       15 UNK         0.1400 
     86 CB         -1.9550  -25.4503  -51.7199 C.3       15 UNK        -0.1800 
     87 C          -2.8959  -27.6768  -50.9601 C.2       15 UNK         0.5000 
     88 O          -3.2283  -28.2066  -52.0212 O.2       15 UNK        -0.5000 
     89 N          -3.5558  -27.8504  -49.8044 N.am      16 UNK        -0.5000 
     90 CA         -4.7083  -28.7071  -49.4954 C.3       16 UNK         0.1400 
     91 CB         -4.3995  -30.1894  -49.7776 C.3       16 UNK        -0.1800 
     92 C          -6.0304  -28.2758  -50.1555 C.2       16 UNK         0.5000 
     93 O          -7.0649  -28.2729  -49.4872 O.2       16 UNK        -0.5000 
     94 N          -5.9818  -27.9153  -51.4422 N.am      17 UNK        -0.5000 
     95 CA         -7.1203  -27.4383  -52.2262 C.3       17 UNK         0.1400 
     96 CB         -6.7498  -27.4845  -53.7165 C.3       17 UNK        -0.1800 
     97 C          -7.5733  -26.0202  -51.8317 C.2       17 UNK         0.5000 
     98 O          -8.7534  -25.7029  -51.9896 O.2       17 UNK        -0.5000 
     99 N          -6.6288  -25.2042  -51.3361 N.am      18 UNK        -0.5000 
    100 CA        -6.7745  -23.7870  -50.9916 C.3       18 UNK         0.1400 
    101 CB        -7.6346  -23.6291  -49.7180 C.3       18 UNK        -0.1800 
    102 C         -7.2548  -22.9430  -52.1935 C.2       18 UNK         0.5000 
    103 O         -6.8793  -23.2572  -53.3256 O.2       18 UNK        -0.5000 
    104 N         -8.0493  -21.8928  -51.9301 N.am      19 UNK        -0.5000 
    105 CA        -8.7396  -21.0180  -52.8872 C.3       19 UNK         0.1400 
    106 CB        -9.9850  -21.7422  -53.4436 C.3       19 UNK        -0.1800 
    107 C         -7.8114  -20.4687  -53.9908 C.2       19 UNK         0.5000 
    108 O         -7.0923  -19.4968  -53.7522 O.2       19 UNK        -0.5000 
    109 N         -7.8104  -21.1376  -55.1536 N.am      20 UNK        -0.5000 
    110 CA        -6.9654  -20.8806  -56.3214 C.3       20 UNK         0.1400 
    111 CB        -7.3235  -21.8897  -57.4227 C.3       20 UNK        -0.1800 
    112 C         -5.4490  -20.9070  -56.0404 C.2       20 UNK         0.5000 
    113 O         -4.6987  -20.2834  -56.7925 O.2       20 UNK        -0.5000 
    114 N         -5.0273  -21.5544  -54.9418 N.am      21 UNK        -0.5000 
    115 CA        -3.6629  -21.5247  -54.3987 C.3       21 UNK         0.1400 
    116 CB        -3.6144  -22.3664  -53.1130 C.3       21 UNK        -0.1800 
    117 C         -3.1227  -20.1024  -54.1247 C.2       21 UNK         0.5000 
    118 O         -1.9129  -19.8925  -54.2181 O.2       21 UNK        -0.5000 
    119 N         -4.0274  -19.1565  -53.8399 N.am      22 UNK        -0.5000 
    120 CA        -3.7628  -17.7131  -53.7538 C.3       22 UNK         0.1400 
    121 C         -4.6660  -16.9023  -54.7309 C.2       22 UNK         0.5000 
    122 N         -5.1022  -17.4704  -55.8494 N.am      22 UNK        -0.7600 
    123 O         -4.9618  -15.7335  -54.4971 O.2       22 UNK        -0.5000 
    124 C124       -3.8185  -17.1922  -52.2902 C.3       23 UNK        -0.0398 
    125 S125       -2.4286  -17.7842  -51.2663 S.3       23 UNK        -0.2404 
    126 C126       -1.1139  -16.6677  -51.8589 C.3       23 UNK        -0.0205 
    127 H127        6.1310  -15.9521  -44.4847 H         1 UNK         0.0600 
    128 H128        6.3423  -15.4508  -46.1647 H         1 UNK         0.0600 
    129 H129        7.3241  -14.7143  -44.8932 H         1 UNK         0.0600 
    130 H130        4.7023  -14.1093  -46.8567 H         1 UNK         0.3000 
    131 H131        2.7402  -13.0482  -45.1723 H         1 UNK         0.0600 
    132 H132        3.3006  -12.3668  -48.0910 H         1 UNK         0.0800 
    133 H133        1.8534  -11.9153  -47.2268 H         1 UNK         0.0800 
    134 H134        2.7008  -13.9256  -49.8599 H         1 UNK         0.0800 
    135 H135        3.7481  -14.9750  -48.9323 H         1 UNK         0.0800 
    136 H136        0.3200  -14.8277  -50.4454 H         1 UNK         0.1150 
    137 H137        0.4025  -18.9217  -51.7015 H         1 UNK         0.1150 
    138 H138        3.6046  -17.3360  -49.3245 H         1 UNK         0.1150 
    139 H139        3.2838  -19.7449  -51.4977 H         1 UNK         0.0800 
    140 H140        3.5767  -19.6691  -49.7770 H         1 UNK         0.0800 
    141 H141        0.1106  -19.8737  -48.9016 H         1 UNK         0.0800 
    142 H142        1.6472  -20.0889  -48.1076 H         1 UNK         0.0800 
    143 H143        1.1360  -22.5493  -47.8158 H         1 UNK         0.0600 
    144 H144        0.0879  -20.4049  -46.3211 H         1 UNK         0.3000 
    145 H145       -1.3397  -22.3137  -43.6358 H         1 UNK         0.0600 
    146 H146        0.1501  -20.7189  -42.4164 H         1 UNK         0.0600 
    147 H147        1.0653  -22.0410  -43.1277 H         1 UNK         0.0600 
    148 H148        1.0843  -20.4569  -43.8880 H         1 UNK         0.0600 
    149 H149       -1.2820  -19.5108  -44.0936 H         1 UNK         0.3000 
    150 H150       -4.2903  -19.2834  -46.0310 H         1 UNK         0.0600 
    151 H151       -5.0037  -19.3074  -43.6573 H         1 UNK         0.0600 
    152 H152       -4.7853  -17.6567  -44.2169 H         1 UNK         0.0600 
    153 H153       -3.5719  -18.4076  -43.1818 H         1 UNK         0.0600 
    154 H154       -2.3547  -17.3619  -45.1202 H         1 UNK         0.3000 
    155 H155       -0.2946  -17.4329  -48.0373 H         1 UNK         0.0600 
    156 H156       -2.3332  -15.4002  -46.9762 H         1 UNK         0.0600 
    157 H157       -2.2390  -16.0056  -48.6252 H         1 UNK         0.0600 
    158 H158       -0.9375  -15.0230  -47.9819 H         1 UNK         0.0600 
    159 H159       -0.2941  -15.8956  -45.5988 H         1 UNK         0.3000 
    160 H160        1.7257  -18.1595  -43.7015 H         1 UNK         0.0600 
    161 H161        3.3552  -16.3067  -43.6241 H         1 UNK         0.0600 
    162 H162        2.6061  -15.5519  -45.0270 H         1 UNK         0.0600 
    163 H163        3.4366  -17.0941  -45.1954 H         1 UNK         0.0600 
    164 H164        0.9941  -15.4771  -43.1764 H         1 UNK         0.3000 
    165 H165       -2.3994  -15.8537  -42.4215 H         1 UNK         0.0600 
    166 H166       -1.9298  -15.2418  -40.0611 H         1 UNK         0.0600 
    167 H167       -1.5811  -16.9432  -40.3197 H         1 UNK         0.0600 
    168 H168       -0.2590  -15.7854  -40.2243 H         1 UNK         0.0600 
    169 H169       -0.6119  -13.7996  -41.6536 H         1 UNK         0.3000 
    170 H170        0.2718  -12.3743  -44.6688 H         1 UNK         0.0600 
    171 H171       -2.0777  -11.5167  -44.7106 H         1 UNK         0.0600 
    172 H172       -2.0156  -11.2364  -42.9744 H         1 UNK         0.0600 
    173 H173       -0.9695  -10.3200  -44.0610 H         1 UNK         0.0600 
    174 H174        0.3353  -11.1918  -42.1296 H         1 UNK         0.3000 
    175 H175        2.0798  -11.1575  -40.8517 H         1 UNK         0.0600 
    176 H176        2.8766  -14.0420  -40.1456 H         1 UNK         0.0600 
    177 H177        2.9490  -12.6560  -39.0594 H         1 UNK         0.0600 
    178 H178        1.3953  -13.2479  -39.6236 H         1 UNK         0.0600 
    179 H179        4.1826  -12.4829  -42.3559 H         1 UNK         0.3000 
    180 H180        6.6289  -10.0888  -41.1750 H         1 UNK         0.0600 
    181 H181        6.5846  -13.1204  -41.6144 H         1 UNK         0.0600 
    182 H182        7.1386  -12.2831  -40.1725 H         1 UNK         0.0600 
    183 H183        8.0134  -12.0913  -41.6840 H         1 UNK         0.0600 
    184 H184        5.9509  -11.6859  -43.5756 H         1 UNK         0.3000 
    185 H185        5.0844   -8.8553  -45.4936 H         1 UNK         0.0600 
    186 H186        7.5605   -8.5604  -45.6010 H         1 UNK         0.0600 
    187 H187        7.7812  -10.3039  -45.6849 H         1 UNK         0.0600 
    188 H188        6.9711   -9.4473  -46.9975 H         1 UNK         0.0600 
    189 H189        5.7446  -11.6002  -46.1261 H         1 UNK         0.3000 
    190 H190       -2.0935  -20.9539  -48.0215 H         1 UNK         0.3000 
    191 H191       -3.1749  -22.5899  -50.0508 H         1 UNK         0.0600 
    192 H192       -4.5712  -21.0891  -47.7745 H         1 UNK         0.0600 
    193 H193       -5.3642  -21.7035  -49.2152 H         1 UNK         0.0600 
    194 H194       -4.1634  -20.4319  -49.3575 H         1 UNK         0.0600 
    195 H195       -3.1881  -23.0371  -46.4860 H         1 UNK         0.3000 
    196 H196       -4.6975  -25.4513  -46.4550 H         1 UNK         0.0600 
    197 H197       -3.7765  -25.6871  -44.1498 H         1 UNK         0.0600 
    198 H198       -4.3588  -24.0548  -44.4401 H         1 UNK         0.0600 
    199 H199       -2.6296  -24.3901  -44.4588 H         1 UNK         0.0600 
    200 H200       -1.1453  -24.8776  -46.6307 H         1 UNK         0.3000 
    201 H201       -0.3494  -27.6011  -46.6522 H         1 UNK         0.0600 
    202 H202        1.2066  -25.7358  -46.1701 H         1 UNK         0.0600 
    203 H203        1.0417  -25.1318  -47.8173 H         1 UNK         0.0600 
    204 H204        1.8058  -26.6877  -47.5196 H         1 UNK         0.0600 
    205 H205       -1.3647  -25.4442  -49.2924 H         1 UNK         0.3000 
    206 H206       -0.8542  -27.2709  -51.4520 H         1 UNK         0.0600 
    207 H207       -1.0769  -24.8052  -51.7551 H         1 UNK         0.0600 
    208 H208       -2.2402  -25.6659  -52.7503 H         1 UNK         0.0600 
    209 H209       -2.7676  -24.8820  -51.2686 H         1 UNK         0.0600 
    210 H210       -3.2110  -27.3315  -49.0064 H         1 UNK         0.3000 
    211 H211       -4.8593  -28.6104  -48.4194 H         1 UNK         0.0600 
    212 H212       -4.2547  -30.3829  -50.8408 H         1 UNK         0.0600 
    213 H213       -5.2177  -30.8269  -49.4405 H         1 UNK         0.0600 
    214 H214       -3.4998  -30.5100  -49.2522 H         1 UNK         0.0600 
    215 H215       -5.0805  -27.9739  -51.9094 H         1 UNK         0.3000 
    216 H216       -7.9609  -28.1153  -52.0600 H         1 UNK         0.0600 
    217 H217       -7.5847  -27.1565  -54.3371 H         1 UNK         0.0600 
    218 H218       -6.4909  -28.4967  -54.0280 H         1 UNK         0.0600 
    219 H219       -5.9009  -26.8366  -53.9394 H         1 UNK         0.0600 
    220 H220       -5.6958  -25.5778  -51.2400 H         1 UNK         0.3000 
    221 H221       -5.7698  -23.4313  -50.7682 H         1 UNK         0.0600 
    222 H222       -8.6740  -23.9096  -49.8925 H         1 UNK         0.0600 
    223 H223       -7.2526  -24.2589  -48.9140 H         1 UNK         0.0600 
    224 H224       -7.6242  -22.6043  -49.3467 H         1 UNK         0.0600 
    225 H225       -8.2588  -21.7046  -50.9602 H         1 UNK         0.3000 
    226 H226       -9.0883  -20.1508  -52.3245 H         1 UNK         0.0600 
    227 H227      -10.6935  -21.9611  -52.6446 H         1 UNK         0.0600 
    228 H228      -10.5081  -21.1246  -54.1751 H         1 UNK         0.0600 
    229 H229       -9.7334  -22.6892  -53.9227 H         1 UNK         0.0600 
    230 H230       -8.3981  -21.9564  -55.2117 H         1 UNK         0.3000 
    231 H231       -7.2079  -19.8788  -56.6811 H         1 UNK         0.0600 
    232 H232       -8.3743  -21.8130  -57.7031 H         1 UNK         0.0600 
    233 H233       -7.1339  -22.9153  -57.1032 H         1 UNK         0.0600 
    234 H234       -6.7350  -21.7120  -58.3239 H         1 UNK         0.0600 
    235 H235       -5.7174  -22.0667  -54.3998 H         1 UNK         0.3000 
    236 H236       -3.0079  -21.9878  -55.1391 H         1 UNK         0.0600 
    237 H237       -2.6007  -22.4107  -52.7123 H         1 UNK         0.0600 
    238 H238       -4.2548  -21.9457  -52.3372 H         1 UNK         0.0600 
    239 H239       -3.9364  -23.3917  -53.2969 H         1 UNK         0.0600 
    240 H240       -5.0092  -19.4120  -53.8067 H         1 UNK         0.3000 
    241 H241       -2.7611  -17.5148  -54.1349 H         1 UNK         0.0600 
    242 H242       -5.6769  -16.9328  -56.4786 H         1 UNK         0.3800 
    243 H243       -4.8298  -18.4137  -56.1011 H         1 UNK         0.3800 
    244 H244       -3.8069  -16.1018  -52.2540 H         1 UNK         0.0800 
    245 H245       -4.7542  -17.4966  -51.8190 H         1 UNK         0.0800 
    246 H246       -0.9404  -16.8378  -52.9215 H         1 UNK         0.0800 
    247 H247       -1.4540  -15.6357  -51.7599 H         1 UNK         0.0800 
@<TRIPOS>BOND
     1    1    2 1    
     2    1  127 1    
     3    1  128 1    
     4    1  129 1    
     5    2    3 2    
     6    2    4 am   BACKBONE|DICT|INTERRES
     7    4    5 1    
     8    4  130 1    
     9    5    6 1    
    10    5   65 1    
    11    5  131 1    
    12    6    7 1    
    13    6  132 1    
    14    6  133 1    
    15    7    8 1    
    16    8    9 1    
    17    8  134 1    
    18    8  135 1    
    19    9   10 ar   
    20    9   14 ar   
    21   10   11 ar   
    22   10  136 1    
    23   11   12 ar   
    24   11  126 1    
    25   12   13 ar   
    26   12  137 1    
    27   13   14 ar   
    28   13   15 1    
    29   14  138 1    
    30   15   16 1    
    31   15  139 1    
    32   15  140 1    
    33   16   17 1    
    34   17   18 1    
    35   17  141 1    
    36   17  142 1    
    37   18   19 1    
    38   18   67 1    
    39   18  143 1    
    40   19   20 am   BACKBONE|DICT|INTERRES
    41   19  144 1    
    42   20   21 2    
    43   20   22 1    
    44   22   23 1    
    45   22   24 1    
    46   22  145 1    
    47   23  146 1    
    48   23  147 1    
    49   23  148 1    
    50   24   25 am   BACKBONE|DICT|INTERRES
    51   24  149 1    
    52   25   26 2    
    53   25   27 1    
    54   27   28 1    
    55   27   29 1    
    56   27  150 1    
    57   28  151 1    
    58   28  152 1    
    59   28  153 1    
    60   29   30 am   BACKBONE|DICT|INTERRES
    61   29  154 1    
    62   30   31 2    
    63   30   32 1    
    64   32   33 1    
    65   32   34 1    
    66   32  155 1    
    67   33  156 1    
    68   33  157 1    
    69   33  158 1    
    70   34   35 am   BACKBONE|DICT|INTERRES
    71   34  159 1    
    72   35   36 2    
    73   35   37 1    
    74   37   38 1    
    75   37   39 1    
    76   37  160 1    
    77   38  161 1    
    78   38  162 1    
    79   38  163 1    
    80   39   40 am   BACKBONE|DICT|INTERRES
    81   39  164 1    
    82   40   41 2    
    83   40   42 1    
    84   42   43 1    
    85   42   44 1    
    86   42  165 1    
    87   43  166 1    
    88   43  167 1    
    89   43  168 1    
    90   44   45 am   BACKBONE|DICT|INTERRES
    91   44  169 1    
    92   45   46 2    
    93   45   47 1    
    94   47   48 1    
    95   47   49 1    
    96   47  170 1    
    97   48  171 1    
    98   48  172 1    
    99   48  173 1    
   100   49   50 am   BACKBONE|DICT|INTERRES
   101   49  174 1    
   102   50   51 2    
   103   50   52 1    
   104   52   53 1    
   105   52   54 1    
   106   52  175 1    
   107   53  176 1    
   108   53  177 1    
   109   53  178 1    
   110   54   55 am   BACKBONE|DICT|INTERRES
   111   54  179 1    
   112   55   56 2    
   113   55   57 1    
   114   57   58 1    
   115   57   59 1    
   116   57  180 1    
   117   58  181 1    
   118   58  182 1    
   119   58  183 1    
   120   59   60 am   BACKBONE|DICT|INTERRES
   121   59  184 1    
   122   60   61 2    
   123   60   62 1    
   124   62   63 1    
   125   62   64 1    
   126   62  185 1    
   127   63  186 1    
   128   63  187 1    
   129   63  188 1    
   130   64   65 am   BACKBONE|DICT|INTERRES
   131   64  189 1    
   132   65   66 2    
   133   67   68 2    
   134   67   69 am   BACKBONE|DICT|INTERRES
   135   69   70 1    
   136   69  190 1    
   137   70   71 1    
   138   70   72 1    
   139   70  191 1    
   140   71  192 1    
   141   71  193 1    
   142   71  194 1    
   143   72   73 2    
   144   72   74 am   BACKBONE|DICT|INTERRES
   145   74   75 1    
   146   74  195 1    
   147   75   76 1    
   148   75   77 1    
   149   75  196 1    
   150   76  197 1    
   151   76  198 1    
   152   76  199 1    
   153   77   78 2    
   154   77   79 am   BACKBONE|DICT|INTERRES
   155   79   80 1    
   156   79  200 1    
   157   80   81 1    
   158   80   82 1    
   159   80  201 1    
   160   81  202 1    
   161   81  203 1    
   162   81  204 1    
   163   82   83 2    
   164   82   84 am   BACKBONE|DICT|INTERRES
   165   84   85 1    
   166   84  205 1    
   167   85   86 1    
   168   85   87 1    
   169   85  206 1    
   170   86  207 1    
   171   86  208 1    
   172   86  209 1    
   173   87   88 2    
   174   87   89 am   BACKBONE|DICT|INTERRES
   175   89   90 1    
   176   89  210 1    
   177   90   91 1    
   178   90   92 1    
   179   90  211 1    
   180   91  212 1    
   181   91  213 1    
   182   91  214 1    
   183   92   93 2    
   184   92   94 am   BACKBONE|DICT|INTERRES
   185   94   95 1    
   186   94  215 1    
   187   95   96 1    
   188   95   97 1    
   189   95  216 1    
   190   96  217 1    
   191   96  218 1    
   192   96  219 1    
   193   97   98 2    
   194   97   99 am   BACKBONE|DICT|INTERRES
   195   99  100 1    
   196   99  220 1    
   197  100  101 1    
   198  100  102 1    
   199  100  221 1    
   200  101  222 1    
   201  101  223 1    
   202  101  224 1    
   203  102  103 2    
   204  102  104 am   BACKBONE|DICT|INTERRES
   205  104  105 1    
   206  104  225 1    
   207  105  106 1    
   208  105  107 1    
   209  105  226 1    
   210  106  227 1    
   211  106  228 1    
   212  106  229 1    
   213  107  108 2    
   214  107  109 am   BACKBONE|DICT|INTERRES
   215  109  110 1    
   216  109  230 1    
   217  110  111 1    
   218  110  112 1    
   219  110  231 1    
   220  111  232 1    
   221  111  233 1    
   222  111  234 1    
   223  112  113 2    
   224  112  114 am   BACKBONE|DICT|INTERRES
   225  114  115 1    
   226  114  235 1    
   227  115  116 1    
   228  115  117 1    
   229  115  236 1    
   230  116  237 1    
   231  116  238 1    
   232  116  239 1    
   233  117  118 2    
   234  117  119 am   BACKBONE|DICT|INTERRES
   235  119  120 1    
   236  119  240 1    
   237  120  121 1    
   238  120  124 1    
   239  120  241 1    
   240  121  122 am   BACKBONE|DICT|INTERRES
   241  121  123 2    
   242  122  242 1    
   243  122  243 1    
   244  124  125 1    
   245  124  244 1    
   246  124  245 1    
   247  125  126 1    
   248  126  246 1    
   249  126  247 1    
@<TRIPOS>SUBSTRUCTURE
     1 UNK         1 GROUP             0       ****    0 ROOT    
