@<TRIPOS>MOLECULE
3R540
247   249    1
SMALL
USER_CHARGES


@<TRIPOS>ATOM
      1 CA          4.6002   -8.6686  -50.1554 C.3       0 UNK        -0.1800 
      2 C           4.4109   -9.6933  -49.0464 C.2       0 UNK         0.5000 
      3 O           4.4826   -9.3427  -47.8679 O.2       0 UNK        -0.5000 
      4 N           4.1507  -10.9565  -49.4143 N.am      1 UNK        -0.5000 
      5 CA          3.9673  -12.0815  -48.4846 C.3       1 UNK         0.1400 
      6 C6          4.0657  -13.4566  -49.1999 C.3       23 UNK        -0.0398 
      7 S7          4.9397  -14.7122  -48.1982 S.3       23 UNK        -0.2404 
      8 C8          3.5868  -15.7059  -47.4885 C.3       23 UNK        -0.0205 
      9 C9          2.9941  -16.6841  -48.4879 C.ar      23 UNK        -0.0193 
     10 C10         1.8703  -16.3338  -49.2410 C.ar      23 UNK        -0.1150 
     11 C11         1.3033  -17.2456  -50.1348 C.ar      23 UNK        -0.0193 
     12 C12         1.8669  -18.5166  -50.2727 C.ar      23 UNK        -0.1150 
     13 C13         2.9813  -18.8832  -49.5127 C.ar      23 UNK        -0.0193 
     14 C14         3.5451  -17.9604  -48.6278 C.ar      23 UNK        -0.1150 
     15 C15         3.5690  -20.2800  -49.6337 C.3       23 UNK        -0.0205 
     16 S16         3.0265  -21.3553  -48.2689 S.3       23 UNK        -0.2404 
     17 C17         1.2412  -21.4845  -48.6153 C.3       23 UNK        -0.0398 
     18 CA          0.5654  -22.5803  -47.7614 C.3       11 UNK         0.1400 
     19 N           0.5021  -22.2313  -46.3373 N.am      11 UNK        -0.5000 
     20 C           0.1373  -23.0803  -45.3664 C.2       10 UNK         0.5000 
     21 O          -0.1339  -24.2635  -45.5652 O.2       10 UNK        -0.5000 
     22 CA         -0.0058  -22.5086  -43.9441 C.3       10 UNK         0.1400 
     23 CB          1.3601  -22.3972  -43.2512 C.3       10 UNK        -0.1800 
     24 N          -0.6928  -21.2161  -43.9238 N.am      10 UNK        -0.5000 
     25 C          -1.9679  -21.0377  -44.2997 C.2       9 UNK         0.5000 
     26 O          -2.7069  -21.9551  -44.6528 O.2       9 UNK        -0.5000 
     27 CA         -2.5019  -19.5947  -44.3302 C.3       9 UNK         0.1400 
     28 CB         -2.9624  -19.1547  -42.9330 C.3       9 UNK        -0.1800 
     29 N          -1.5290  -18.6383  -44.8562 N.am      9 UNK        -0.5000 
     30 C          -1.0244  -18.6654  -46.0986 C.2       8 UNK         0.5000 
     31 O          -1.3634  -19.4809  -46.9564 O.2       8 UNK        -0.5000 
     32 CA          0.0977  -17.6559  -46.4060 C.3       8 UNK         0.1400 
     33 CB         -0.4720  -16.2506  -46.6551 C.3       8 UNK        -0.1800 
     34 N           1.0985  -17.6012  -45.3378 N.am      8 UNK        -0.5000 
     35 C           1.8497  -18.6453  -44.9580 C.2       7 UNK         0.5000 
     36 O           1.8222  -19.7436  -45.5102 O.2       7 UNK        -0.5000 
     37 CA          2.7214  -18.4562  -43.7061 C.3       7 UNK         0.1400 
     38 CB          4.0682  -17.8034  -44.0493 C.3       7 UNK        -0.1800 
     39 N           2.0294  -17.6714  -42.6840 N.am      7 UNK        -0.5000 
     40 C           1.0258  -18.1434  -41.9309 C.2       6 UNK         0.5000 
     41 O           0.6174  -19.3028  -41.9912 O.2       6 UNK        -0.5000 
     42 CA          0.3398  -17.1475  -40.9761 C.3       6 UNK         0.1400 
     43 CB          1.1042  -17.0592  -39.6469 C.3       6 UNK        -0.1800 
     44 N           0.2095  -15.8072  -41.5497 N.am      6 UNK        -0.5000 
     45 C          -0.5641  -15.5066  -42.6022 C.2       5 UNK         0.5000 
     46 O          -1.2900  -16.3229  -43.1670 O.2       5 UNK        -0.5000 
     47 CA         -0.4791  -14.0679  -43.1477 C.3       5 UNK         0.1400 
     48 CB         -1.5367  -13.1752  -42.4831 C.3       5 UNK        -0.1800 
     49 N           0.8388  -13.4447  -42.9992 N.am      5 UNK        -0.5000 
     50 C           1.9851  -13.9250  -43.5001 C.2       4 UNK         0.5000 
     51 O           2.0666  -14.9997  -44.0988 O.2       4 UNK        -0.5000 
     52 CA          3.2258  -13.0381  -43.2997 C.3       4 UNK         0.1400 
     53 CB          4.5028  -13.6607  -43.8934 C.3       4 UNK        -0.1800 
     54 N           2.9839  -11.7498  -43.9415 N.am      4 UNK        -0.5000 
     55 C           2.6926  -10.5984  -43.3225 C.2       3 UNK         0.5000 
     56 O           2.6436  -10.4803  -42.0979 O.2       3 UNK        -0.5000 
     57 CA          2.3842   -9.3741  -44.2120 C.3       3 UNK         0.1400 
     58 CB          3.6269   -8.4806  -44.3418 C.3       3 UNK        -0.1800 
     59 N           1.9214   -9.7336  -45.5538 N.am      3 UNK        -0.5000 
     60 C           0.7339  -10.2923  -45.8321 C.2       2 UNK         0.5000 
     61 O          -0.1532  -10.4565  -44.9941 O.2       2 UNK        -0.5000 
     62 CA          0.5094  -10.7855  -47.2794 C.3       2 UNK         0.1400 
     63 CB         -0.3058   -9.7565  -48.0768 C.3       2 UNK        -0.1800 
     64 N           1.7429  -11.0878  -48.0165 N.am      2 UNK        -0.5000 
     65 C           2.6801  -11.9694  -47.6353 C.2       1 UNK         0.5000 
     66 O           2.5742  -12.6465  -46.6171 O.2       1 UNK        -0.5000 
     67 C          -0.8237  -22.9371  -48.3286 C.2       11 UNK         0.5000 
     68 O          -0.9413  -23.9250  -49.0536 O.2       11 UNK        -0.5000 
     69 N          -1.8563  -22.1650  -47.9622 N.am      12 UNK        -0.5000 
     70 CA         -3.2487  -22.4264  -48.3294 C.3       12 UNK         0.1400 
     71 CB         -4.1222  -21.2361  -47.9098 C.3       12 UNK        -0.1800 
     72 C          -3.7853  -23.7480  -47.7455 C.2       12 UNK         0.5000 
     73 O          -4.4694  -24.4880  -48.4531 O.2       12 UNK        -0.5000 
     74 N          -3.4318  -24.0399  -46.4860 N.am      13 UNK        -0.5000 
     75 CA         -3.7428  -25.2950  -45.8026 C.3       13 UNK         0.1400 
     76 CB         -3.4270  -25.1644  -44.3052 C.3       13 UNK        -0.1800 
     77 C          -3.0079  -26.5012  -46.4142 C.2       13 UNK         0.5000 
     78 O          -3.6193  -27.5569  -46.5741 O.2       13 UNK        -0.5000 
     79 N          -1.7306  -26.3213  -46.7814 N.am      14 UNK        -0.5000 
     80 CA         -0.9096  -27.3251  -47.4653 C.3       14 UNK         0.1400 
     81 CB          0.5527  -26.8573  -47.5089 C.3       14 UNK        -0.1800 
     82 C          -1.4207  -27.6511  -48.8814 C.2       14 UNK         0.5000 
     83 O          -1.3757  -28.8115  -49.2913 O.2       14 UNK        -0.5000 
     84 N          -1.9347  -26.6324  -49.5851 N.am      15 UNK        -0.5000 
     85 CA         -2.6144  -26.7628  -50.8762 C.3       15 UNK         0.1400 
     86 CB         -2.7410  -25.3718  -51.5166 C.3       15 UNK        -0.1800 
     87 C          -4.0006  -27.4329  -50.7732 C.2       15 UNK         0.5000 
     88 O          -4.5267  -27.8820  -51.7921 O.2       15 UNK        -0.5000 
     89 N          -4.5722  -27.4696  -49.5601 N.am      16 UNK        -0.5000 
     90 CA         -5.8497  -28.0540  -49.1316 C.3       16 UNK         0.1400 
     91 CB         -5.8997  -29.5667  -49.4156 C.3       16 UNK        -0.1800 
     92 C          -7.0983  -27.3394  -49.6798 C.2       16 UNK         0.5000 
     93 O          -8.0424  -27.1055  -48.9244 O.2       16 UNK        -0.5000 
     94 N          -7.0832  -26.9945  -50.9712 N.am      17 UNK        -0.5000 
     95 CA         -8.1458  -26.2695  -51.6654 C.3       17 UNK         0.1400 
     96 CB         -7.9627  -26.4634  -53.1788 C.3       17 UNK        -0.1800 
     97 C          -8.1848  -24.7682  -51.3212 C.2       17 UNK         0.5000 
     98 O          -9.2223  -24.1381  -51.5321 O.2       17 UNK        -0.5000 
     99 N          -7.0622  -24.2262  -50.8195 N.am      18 UNK        -0.5000 
    100 CA        -6.8111  -22.8065  -50.5535 C.3       18 UNK         0.1400 
    101 CB        -7.6507  -22.3225  -49.3497 C.3       18 UNK        -0.1800 
    102 C         -6.9811  -21.9648  -51.8375 C.2       18 UNK         0.5000 
    103 O         -6.4480  -22.3639  -52.8754 O.2       18 UNK        -0.5000 
    104 N         -7.7133  -20.8427  -51.7532 N.am      19 UNK        -0.5000 
    105 CA        -8.1530  -19.9739  -52.8518 C.3       19 UNK         0.1400 
    106 CB        -9.3267  -20.6428  -53.6010 C.3       19 UNK        -0.1800 
    107 C         -6.9969  -19.5456  -53.7786 C.2       19 UNK         0.5000 
    108 O         -6.2051  -18.6808  -53.3990 O.2       19 UNK        -0.5000 
    109 N         -6.8879  -20.1937  -54.9472 N.am      20 UNK        -0.5000 
    110 CA        -5.8513  -20.0113  -55.9680 C.3       20 UNK         0.1400 
    111 CB        -6.1726  -20.9279  -57.1589 C.3       20 UNK        -0.1800 
    112 C         -4.4025  -20.2406  -55.4847 C.2       20 UNK         0.5000 
    113 O         -3.4724  -19.8311  -56.1804 O.2       20 UNK        -0.5000 
    114 N         -4.2285  -20.8536  -54.3033 N.am      21 UNK        -0.5000 
    115 CA        -2.9574  -20.9609  -53.5829 C.3       21 UNK         0.1400 
    116 CB        -3.1768  -21.7586  -52.2880 C.3       21 UNK        -0.1800 
    117 C         -2.3130  -19.5945  -53.2645 C.2       21 UNK         0.5000 
    118 O         -1.0851  -19.4986  -53.2853 O.2       21 UNK        -0.5000 
    119 N         -3.1429  -18.5711  -53.0106 N.am      22 UNK        -0.5000 
    120 CA        -2.7174  -17.1738  -52.8184 C.3       22 UNK         0.1400 
    121 C         -3.5355  -16.1482  -53.6525 C.2       22 UNK         0.5000 
    122 N         -4.7256  -16.4614  -54.1482 N.am      22 UNK        -0.7600 
    123 O         -3.0666  -15.0352  -53.8744 O.2       22 UNK        -0.5000 
    124 C124       -2.6798  -16.7541  -51.3236 C.3       23 UNK        -0.0398 
    125 S125       -1.4319  -17.6382  -50.3286 S.3       23 UNK        -0.2404 
    126 C126        0.0874  -16.8558  -50.9563 C.3       23 UNK        -0.0205 
    127 H127        5.5907   -8.2193  -50.0848 H         1 UNK         0.0600 
    128 H128        4.4998   -9.1172  -51.1440 H         1 UNK         0.0600 
    129 H129        3.8578   -7.8758  -50.0641 H         1 UNK         0.0600 
    130 H130        4.0914  -11.1804  -50.3978 H         1 UNK         0.3000 
    131 H131        4.7961  -12.0121  -47.7761 H         1 UNK         0.0600 
    132 H132        4.6491  -13.3582  -50.1162 H         1 UNK         0.0800 
    133 H133        3.0907  -13.8200  -49.5231 H         1 UNK         0.0800 
    134 H134        2.8056  -15.0689  -47.0779 H         1 UNK         0.0800 
    135 H135        3.9852  -16.2606  -46.6400 H         1 UNK         0.0800 
    136 H136        1.4256  -15.3565  -49.1204 H         1 UNK         0.1150 
    137 H137        1.4229  -19.2242  -50.9592 H         1 UNK         0.1150 
    138 H138        4.4029  -18.2436  -48.0341 H         1 UNK         0.1150 
    139 H139        3.2977  -20.7332  -50.5885 H         1 UNK         0.0800 
    140 H140        4.6581  -20.2185  -49.6239 H         1 UNK         0.0800 
    141 H141        1.1249  -21.6977  -49.6798 H         1 UNK         0.0800 
    142 H142        0.7705  -20.5157  -48.4383 H         1 UNK         0.0800 
    143 H143        1.1720  -23.4848  -47.8428 H         1 UNK         0.0600 
    144 H144        0.7692  -21.2824  -46.0884 H         1 UNK         0.3000 
    145 H145       -0.6129  -23.2100  -43.3681 H         1 UNK         0.0600 
    146 H146        1.2552  -22.0401  -42.2267 H         1 UNK         0.0600 
    147 H147        1.8528  -23.3692  -43.2079 H         1 UNK         0.0600 
    148 H148        2.0287  -21.7170  -43.7770 H         1 UNK         0.0600 
    149 H149       -0.1591  -20.4187  -43.5975 H         1 UNK         0.3000 
    150 H150       -3.3699  -19.5772  -44.9919 H         1 UNK         0.0600 
    151 H151       -3.7021  -19.8471  -42.5293 H         1 UNK         0.0600 
    152 H152       -3.4238  -18.1675  -42.9632 H         1 UNK         0.0600 
    153 H153       -2.1313  -19.1139  -42.2288 H         1 UNK         0.0600 
    154 H154       -1.2364  -17.8976  -44.2243 H         1 UNK         0.3000 
    155 H155        0.6018  -17.9921  -47.3134 H         1 UNK         0.0600 
    156 H156       -1.0750  -15.9027  -45.8174 H         1 UNK         0.0600 
    157 H157       -1.1096  -16.2449  -47.5396 H         1 UNK         0.0600 
    158 H158        0.3213  -15.5215  -46.8191 H         1 UNK         0.0600 
    159 H159        1.2103  -16.7202  -44.8477 H         1 UNK         0.3000 
    160 H160        2.9307  -19.4470  -43.2973 H         1 UNK         0.0600 
    161 H161        4.7264  -17.7833  -43.1808 H         1 UNK         0.0600 
    162 H162        3.9462  -16.7789  -44.3961 H         1 UNK         0.0600 
    163 H163        4.5821  -18.3582  -44.8354 H         1 UNK         0.0600 
    164 H164        2.2498  -16.6855  -42.6470 H         1 UNK         0.3000 
    165 H165       -0.6634  -17.5254  -40.7676 H         1 UNK         0.0600 
    166 H166        0.5846  -16.4176  -38.9350 H         1 UNK         0.0600 
    167 H167        1.1997  -18.0434  -39.1862 H         1 UNK         0.0600 
    168 H168        2.1107  -16.6623  -39.7854 H         1 UNK         0.0600 
    169 H169        0.7751  -15.0764  -41.1440 H         1 UNK         0.3000 
    170 H170       -0.6955  -14.1111  -44.2166 H         1 UNK         0.0600 
    171 H171       -2.5350  -13.5994  -42.5990 H         1 UNK         0.0600 
    172 H172       -1.3508  -13.0575  -41.4149 H         1 UNK         0.0600 
    173 H173       -1.5528  -12.1823  -42.9337 H         1 UNK         0.0600 
    174 H174        0.8609  -12.5466  -42.5374 H         1 UNK         0.3000 
    175 H175        3.3769  -12.9150  -42.2256 H         1 UNK         0.0600 
    176 H176        4.4019  -13.8529  -44.9624 H         1 UNK         0.0600 
    177 H177        5.3620  -13.0051  -43.7524 H         1 UNK         0.0600 
    178 H178        4.7355  -14.6095  -43.4089 H         1 UNK         0.0600 
    179 H179        2.9064  -11.7965  -44.9538 H         1 UNK         0.3000 
    180 H180        1.5973   -8.7984  -43.7204 H         1 UNK         0.0600 
    181 H181        4.4434   -8.9995  -44.8461 H         1 UNK         0.0600 
    182 H182        3.9900   -8.1691  -43.3615 H         1 UNK         0.0600 
    183 H183        3.4051   -7.5759  -44.9083 H         1 UNK         0.0600 
    184 H184        2.5926   -9.6317  -46.3039 H         1 UNK         0.3000 
    185 H185       -0.0691  -11.7095  -47.2176 H         1 UNK         0.0600 
    186 H186       -1.2455   -9.5262  -47.5728 H         1 UNK         0.0600 
    187 H187        0.2397   -8.8199  -48.1988 H         1 UNK         0.0600 
    188 H188       -0.5554  -10.1329  -49.0690 H         1 UNK         0.0600 
    189 H189        1.9086  -10.5546  -48.8574 H         1 UNK         0.3000 
    190 H190       -1.6775  -21.3324  -47.4062 H         1 UNK         0.3000 
    191 H191       -3.2927  -22.5100  -49.4165 H         1 UNK         0.0600 
    192 H192       -4.0859  -21.0701  -46.8336 H         1 UNK         0.0600 
    193 H193       -5.1646  -21.3996  -48.1782 H         1 UNK         0.0600 
    194 H194       -3.7979  -20.3181  -48.4008 H         1 UNK         0.0600 
    195 H195       -2.9257  -23.3430  -45.9458 H         1 UNK         0.3000 
    196 H196       -4.8151  -25.4739  -45.9063 H         1 UNK         0.0600 
    197 H197       -3.6710  -26.0843  -43.7726 H         1 UNK         0.0600 
    198 H198       -4.0064  -24.3612  -43.8497 H         1 UNK         0.0600 
    199 H199       -2.3716  -24.9542  -44.1319 H         1 UNK         0.0600 
    200 H200       -1.2734  -25.4435  -46.5489 H         1 UNK         0.3000 
    201 H201       -0.9526  -28.2452  -46.8789 H         1 UNK         0.0600 
    202 H202        0.9446  -26.6944  -46.5049 H         1 UNK         0.0600 
    203 H203        0.6615  -25.9268  -48.0659 H         1 UNK         0.0600 
    204 H204        1.1873  -27.6033  -47.9886 H         1 UNK         0.0600 
    205 H205       -1.8511  -25.6926  -49.2091 H         1 UNK         0.3000 
    206 H206       -1.9971  -27.3847  -51.5275 H         1 UNK         0.0600 
    207 H207       -1.7634  -24.9092  -51.6531 H         1 UNK         0.0600 
    208 H208       -3.2116  -25.4322  -52.4988 H         1 UNK         0.0600 
    209 H209       -3.3442  -24.7013  -50.9046 H         1 UNK         0.0600 
    210 H210       -4.0561  -27.0254  -48.8119 H         1 UNK         0.3000 
    211 H211       -5.8765  -27.9277  -48.0485 H         1 UNK         0.0600 
    212 H212       -5.8969  -29.7836  -50.4841 H         1 UNK         0.0600 
    213 H213       -6.8037  -30.0103  -48.9967 H         1 UNK         0.0600 
    214 H214       -5.0481  -30.0783  -48.9667 H         1 UNK         0.0600 
    215 H215       -6.2619  -27.2523  -51.5128 H         1 UNK         0.3000 
    216 H216       -9.1068  -26.7007  -51.3776 H         1 UNK         0.0600 
    217 H217       -8.7543  -25.9614  -53.7366 H         1 UNK         0.0600 
    218 H218       -7.9949  -27.5192  -53.4484 H         1 UNK         0.0600 
    219 H219       -7.0103  -26.0573  -53.5226 H         1 UNK         0.0600 
    220 H220       -6.2720  -24.8394  -50.6822 H         1 UNK         0.3000 
    221 H221       -5.7586  -22.7276  -50.2804 H         1 UNK         0.0600 
    222 H222       -8.7214  -22.3593  -49.5534 H         1 UNK         0.0600 
    223 H223       -7.4611  -22.9438  -48.4740 H         1 UNK         0.0600 
    224 H224       -7.4003  -21.2983  -49.0724 H         1 UNK         0.0600 
    225 H225       -8.0741  -20.5934  -50.8434 H         1 UNK         0.3000 
    226 H226       -8.5316  -19.0577  -52.3962 H         1 UNK         0.0600 
    227 H227      -10.1755  -20.7919  -52.9334 H         1 UNK         0.0600 
    228 H228       -9.6750  -20.0215  -54.4273 H         1 UNK         0.0600 
    229 H229       -9.0571  -21.6195  -54.0046 H         1 UNK         0.0600 
    230 H230       -7.5587  -20.9251  -55.1320 H         1 UNK         0.3000 
    231 H231       -5.9105  -18.9754  -56.3073 H         1 UNK         0.0600 
    232 H232       -7.1561  -20.7070  -57.5741 H         1 UNK         0.0600 
    233 H233       -6.1570  -21.9795  -56.8698 H         1 UNK         0.0600 
    234 H234       -5.4468  -20.7974  -57.9627 H         1 UNK         0.0600 
    235 H235       -5.0496  -21.2156  -53.8290 H         1 UNK         0.3000 
    236 H236       -2.2651  -21.5171  -54.2178 H         1 UNK         0.0600 
    237 H237       -2.2347  -21.9180  -51.7614 H         1 UNK         0.0600 
    238 H238       -3.8506  -21.2382  -51.6065 H         1 UNK         0.0600 
    239 H239       -3.6035  -22.7390  -52.4981 H         1 UNK         0.0600 
    240 H240       -4.1419  -18.7349  -53.0366 H         1 UNK         0.3000 
    241 H241       -1.7076  -17.0688  -53.2166 H         1 UNK         0.0600 
    242 H242       -5.2161  -15.7702  -54.6927 H         1 UNK         0.3800 
    243 H243       -5.2012  -17.3294  -53.9120 H         1 UNK         0.3800 
    244 H244       -2.4821  -15.6853  -51.2225 H         1 UNK         0.0800 
    245 H245       -3.6568  -16.9201  -50.8672 H         1 UNK         0.0800 
    246 H246       -0.0345  -15.7716  -50.9613 H         1 UNK         0.0800 
    247 H247        0.2508  -17.1554  -51.9921 H         1 UNK         0.0800 
@<TRIPOS>BOND
     1    1    2 1    
     2    1  127 1    
     3    1  128 1    
     4    1  129 1    
     5    2    3 2    
     6    2    4 am   BACKBONE|DICT|INTERRES
     7    4    5 1    
     8    4  130 1    
     9    5    6 1    
    10    5   65 1    
    11    5  131 1    
    12    6    7 1    
    13    6  132 1    
    14    6  133 1    
    15    7    8 1    
    16    8    9 1    
    17    8  134 1    
    18    8  135 1    
    19    9   10 ar   
    20    9   14 ar   
    21   10   11 ar   
    22   10  136 1    
    23   11   12 ar   
    24   11  126 1    
    25   12   13 ar   
    26   12  137 1    
    27   13   14 ar   
    28   13   15 1    
    29   14  138 1    
    30   15   16 1    
    31   15  139 1    
    32   15  140 1    
    33   16   17 1    
    34   17   18 1    
    35   17  141 1    
    36   17  142 1    
    37   18   19 1    
    38   18   67 1    
    39   18  143 1    
    40   19   20 am   BACKBONE|DICT|INTERRES
    41   19  144 1    
    42   20   21 2    
    43   20   22 1    
    44   22   23 1    
    45   22   24 1    
    46   22  145 1    
    47   23  146 1    
    48   23  147 1    
    49   23  148 1    
    50   24   25 am   BACKBONE|DICT|INTERRES
    51   24  149 1    
    52   25   26 2    
    53   25   27 1    
    54   27   28 1    
    55   27   29 1    
    56   27  150 1    
    57   28  151 1    
    58   28  152 1    
    59   28  153 1    
    60   29   30 am   BACKBONE|DICT|INTERRES
    61   29  154 1    
    62   30   31 2    
    63   30   32 1    
    64   32   33 1    
    65   32   34 1    
    66   32  155 1    
    67   33  156 1    
    68   33  157 1    
    69   33  158 1    
    70   34   35 am   BACKBONE|DICT|INTERRES
    71   34  159 1    
    72   35   36 2    
    73   35   37 1    
    74   37   38 1    
    75   37   39 1    
    76   37  160 1    
    77   38  161 1    
    78   38  162 1    
    79   38  163 1    
    80   39   40 am   BACKBONE|DICT|INTERRES
    81   39  164 1    
    82   40   41 2    
    83   40   42 1    
    84   42   43 1    
    85   42   44 1    
    86   42  165 1    
    87   43  166 1    
    88   43  167 1    
    89   43  168 1    
    90   44   45 am   BACKBONE|DICT|INTERRES
    91   44  169 1    
    92   45   46 2    
    93   45   47 1    
    94   47   48 1    
    95   47   49 1    
    96   47  170 1    
    97   48  171 1    
    98   48  172 1    
    99   48  173 1    
   100   49   50 am   BACKBONE|DICT|INTERRES
   101   49  174 1    
   102   50   51 2    
   103   50   52 1    
   104   52   53 1    
   105   52   54 1    
   106   52  175 1    
   107   53  176 1    
   108   53  177 1    
   109   53  178 1    
   110   54   55 am   BACKBONE|DICT|INTERRES
   111   54  179 1    
   112   55   56 2    
   113   55   57 1    
   114   57   58 1    
   115   57   59 1    
   116   57  180 1    
   117   58  181 1    
   118   58  182 1    
   119   58  183 1    
   120   59   60 am   BACKBONE|DICT|INTERRES
   121   59  184 1    
   122   60   61 2    
   123   60   62 1    
   124   62   63 1    
   125   62   64 1    
   126   62  185 1    
   127   63  186 1    
   128   63  187 1    
   129   63  188 1    
   130   64   65 am   BACKBONE|DICT|INTERRES
   131   64  189 1    
   132   65   66 2    
   133   67   68 2    
   134   67   69 am   BACKBONE|DICT|INTERRES
   135   69   70 1    
   136   69  190 1    
   137   70   71 1    
   138   70   72 1    
   139   70  191 1    
   140   71  192 1    
   141   71  193 1    
   142   71  194 1    
   143   72   73 2    
   144   72   74 am   BACKBONE|DICT|INTERRES
   145   74   75 1    
   146   74  195 1    
   147   75   76 1    
   148   75   77 1    
   149   75  196 1    
   150   76  197 1    
   151   76  198 1    
   152   76  199 1    
   153   77   78 2    
   154   77   79 am   BACKBONE|DICT|INTERRES
   155   79   80 1    
   156   79  200 1    
   157   80   81 1    
   158   80   82 1    
   159   80  201 1    
   160   81  202 1    
   161   81  203 1    
   162   81  204 1    
   163   82   83 2    
   164   82   84 am   BACKBONE|DICT|INTERRES
   165   84   85 1    
   166   84  205 1    
   167   85   86 1    
   168   85   87 1    
   169   85  206 1    
   170   86  207 1    
   171   86  208 1    
   172   86  209 1    
   173   87   88 2    
   174   87   89 am   BACKBONE|DICT|INTERRES
   175   89   90 1    
   176   89  210 1    
   177   90   91 1    
   178   90   92 1    
   179   90  211 1    
   180   91  212 1    
   181   91  213 1    
   182   91  214 1    
   183   92   93 2    
   184   92   94 am   BACKBONE|DICT|INTERRES
   185   94   95 1    
   186   94  215 1    
   187   95   96 1    
   188   95   97 1    
   189   95  216 1    
   190   96  217 1    
   191   96  218 1    
   192   96  219 1    
   193   97   98 2    
   194   97   99 am   BACKBONE|DICT|INTERRES
   195   99  100 1    
   196   99  220 1    
   197  100  101 1    
   198  100  102 1    
   199  100  221 1    
   200  101  222 1    
   201  101  223 1    
   202  101  224 1    
   203  102  103 2    
   204  102  104 am   BACKBONE|DICT|INTERRES
   205  104  105 1    
   206  104  225 1    
   207  105  106 1    
   208  105  107 1    
   209  105  226 1    
   210  106  227 1    
   211  106  228 1    
   212  106  229 1    
   213  107  108 2    
   214  107  109 am   BACKBONE|DICT|INTERRES
   215  109  110 1    
   216  109  230 1    
   217  110  111 1    
   218  110  112 1    
   219  110  231 1    
   220  111  232 1    
   221  111  233 1    
   222  111  234 1    
   223  112  113 2    
   224  112  114 am   BACKBONE|DICT|INTERRES
   225  114  115 1    
   226  114  235 1    
   227  115  116 1    
   228  115  117 1    
   229  115  236 1    
   230  116  237 1    
   231  116  238 1    
   232  116  239 1    
   233  117  118 2    
   234  117  119 am   BACKBONE|DICT|INTERRES
   235  119  120 1    
   236  119  240 1    
   237  120  121 1    
   238  120  124 1    
   239  120  241 1    
   240  121  122 am   BACKBONE|DICT|INTERRES
   241  121  123 2    
   242  122  242 1    
   243  122  243 1    
   244  124  125 1    
   245  124  244 1    
   246  124  245 1    
   247  125  126 1    
   248  126  246 1    
   249  126  247 1    
@<TRIPOS>SUBSTRUCTURE
     1 UNK         1 GROUP             0       ****    0 ROOT    
