@<TRIPOS>MOLECULE
3R540
247   249    1
SMALL
USER_CHARGES


@<TRIPOS>ATOM
      1 CA          3.9007  -12.9038  -46.4672 C.3       0 UNK        -0.1800 
      2 C           2.5695  -12.7179  -45.7536 C.2       0 UNK         0.5000 
      3 O           2.5465  -12.5608  -44.5345 O.2       0 UNK        -0.5000 
      4 N           1.4603  -12.7460  -46.5041 N.am      1 UNK        -0.5000 
      5 CA          0.0986  -12.5298  -45.9989 C.3       1 UNK         0.1400 
      6 C6         -0.9712  -12.8799  -47.0599 C.3       23 UNK        -0.0398 
      7 S7         -1.0845  -14.6797  -47.3468 S.3       23 UNK        -0.2404 
      8 C8         -0.4012  -14.8369  -49.0245 C.3       23 UNK        -0.0205 
      9 C9         -0.7476  -16.1780  -49.6570 C.ar      23 UNK        -0.0193 
     10 C10        -2.0340  -16.3955  -50.1568 C.ar      23 UNK        -0.1150 
     11 C11        -2.3534  -17.5854  -50.8164 C.ar      23 UNK        -0.0193 
     12 C12        -1.3715  -18.5703  -50.9681 C.ar      23 UNK        -0.1150 
     13 C13        -0.0824  -18.3742  -50.4598 C.ar      23 UNK        -0.0193 
     14 C14         0.2201  -17.1780  -49.7976 C.ar      23 UNK        -0.1150 
     15 C15         1.0063  -19.4186  -50.6874 C.3       23 UNK        -0.0205 
     16 S16         0.6137  -21.0602  -49.9977 S.3       23 UNK        -0.2404 
     17 C17         0.6304  -20.7308  -48.2035 C.3       23 UNK        -0.0398 
     18 CA         -0.5253  -21.4238  -47.4417 C.3       11 UNK         0.1400 
     19 N          -0.3382  -21.3530  -45.9903 N.am      11 UNK        -0.5000 
     20 C          -1.1107  -21.9583  -45.0765 C.2       10 UNK         0.5000 
     21 O          -2.0483  -22.7041  -45.3575 O.2       10 UNK        -0.5000 
     22 CA         -0.8231  -21.6321  -43.5991 C.3       10 UNK         0.1400 
     23 CB          0.3722  -22.4425  -43.0766 C.3       10 UNK        -0.1800 
     24 N          -0.5915  -20.2037  -43.3774 N.am      10 UNK        -0.5000 
     25 C          -1.5113  -19.2500  -43.5878 C.2       9 UNK         0.5000 
     26 O          -2.6719  -19.4824  -43.9257 O.2       9 UNK        -0.5000 
     27 CA         -1.0445  -17.7894  -43.4507 C.3       9 UNK         0.1400 
     28 CB         -1.0089  -17.3626  -41.9764 C.3       9 UNK        -0.1800 
     29 N           0.2617  -17.5545  -44.0675 N.am      9 UNK        -0.5000 
     30 C           0.5272  -17.7297  -45.3695 C.2       8 UNK         0.5000 
     31 O          -0.3207  -18.0448  -46.2014 O.2       8 UNK        -0.5000 
     32 CA          1.9979  -17.6162  -45.8027 C.3       8 UNK         0.1400 
     33 CB          2.4150  -16.1592  -46.0224 C.3       8 UNK        -0.1800 
     34 N           2.9008  -18.2641  -44.8494 N.am      8 UNK        -0.5000 
     35 C           2.9811  -19.5942  -44.7053 C.2       7 UNK         0.5000 
     36 O           2.3038  -20.3889  -45.3558 O.2       7 UNK        -0.5000 
     37 CA          3.9638  -20.1350  -43.6545 C.3       7 UNK         0.1400 
     38 CB          5.3830  -20.2187  -44.2350 C.3       7 UNK        -0.1800 
     39 N           3.9943  -19.3501  -42.4231 N.am      7 UNK        -0.5000 
     40 C           2.9846  -19.2200  -41.5552 C.2       6 UNK         0.5000 
     41 O           1.8628  -19.6942  -41.7369 O.2       6 UNK        -0.5000 
     42 CA          3.2787  -18.4181  -40.2713 C.3       6 UNK         0.1400 
     43 CB          4.3504  -19.1005  -39.3989 C.3       6 UNK        -0.1800 
     44 N           3.6049  -17.0127  -40.5328 N.am      6 UNK        -0.5000 
     45 C           4.6289  -16.4908  -41.2246 C.2       5 UNK         0.5000 
     46 O           5.5876  -17.1533  -41.6262 O.2       5 UNK        -0.5000 
     47 CA          4.5610  -14.9789  -41.5491 C.3       5 UNK         0.1400 
     48 CB          5.0414  -14.6873  -42.9858 C.3       5 UNK        -0.1800 
     49 N           3.2504  -14.3468  -41.3311 N.am      5 UNK        -0.5000 
     50 C           2.0724  -14.6801  -41.8777 C.2       4 UNK         0.5000 
     51 O           1.9030  -15.6674  -42.5933 O.2       4 UNK        -0.5000 
     52 CA          0.8710  -13.7786  -41.5488 C.3       4 UNK         0.1400 
     53 CB          0.3576  -14.0185  -40.1162 C.3       4 UNK        -0.1800 
     54 N           1.1049  -12.3568  -41.8164 N.am      4 UNK        -0.5000 
     55 C           1.9117  -11.4774  -41.2037 C.2       3 UNK         0.5000 
     56 O           2.6156  -11.7546  -40.2313 O.2       3 UNK        -0.5000 
     57 CA          1.9494  -10.0471  -41.7901 C.3       3 UNK         0.1400 
     58 CB          3.3251   -9.7475  -42.4064 C.3       3 UNK        -0.1800 
     59 N           0.9184   -9.8373  -42.8120 N.am      3 UNK        -0.5000 
     60 C          -0.3704   -9.5708  -42.5617 C.2       2 UNK         0.5000 
     61 O          -0.7994   -9.2827  -41.4443 O.2       2 UNK        -0.5000 
     62 CA         -1.3637   -9.7437  -43.7291 C.3       2 UNK         0.1400 
     63 CB         -1.5177   -8.4500  -44.5524 C.3       2 UNK        -0.1800 
     64 N          -1.0685  -10.9242  -44.5610 N.am      2 UNK        -0.5000 
     65 C          -0.0875  -11.0918  -45.4605 C.2       1 UNK         0.5000 
     66 O           0.6728  -10.1890  -45.8178 O.2       1 UNK        -0.5000 
     67 C          -1.9080  -20.8894  -47.8670 C.2       11 UNK         0.5000 
     68 O          -2.6053  -21.5666  -48.6216 O.2       11 UNK        -0.5000 
     69 N          -2.2995  -19.7215  -47.3409 N.am      12 UNK        -0.5000 
     70 CA         -3.5991  -19.0992  -47.5818 C.3       12 UNK         0.1400 
     71 CB         -3.6173  -17.6887  -46.9779 C.3       12 UNK        -0.1800 
     72 C          -4.7745  -19.9400  -47.0558 C.2       12 UNK         0.5000 
     73 O          -5.7638  -20.1018  -47.7703 O.2       12 UNK        -0.5000 
     74 N          -4.6328  -20.4914  -45.8418 N.am      13 UNK        -0.5000 
     75 CA         -5.6145  -21.3749  -45.2084 C.3       13 UNK         0.1400 
     76 CB         -5.2076  -21.6327  -43.7498 C.3       13 UNK        -0.1800 
     77 C          -5.8049  -22.7038  -45.9638 C.2       13 UNK         0.5000 
     78 O          -6.9371  -23.1679  -46.1028 O.2       13 UNK        -0.5000 
     79 N          -4.7004  -23.2764  -46.4598 N.am      14 UNK        -0.5000 
     80 CA         -4.6853  -24.4930  -47.2738 C.3       14 UNK         0.1400 
     81 CB         -3.2788  -25.1109  -47.2058 C.3       14 UNK        -0.1800 
     82 C          -5.0793  -24.2552  -48.7451 C.2       14 UNK         0.5000 
     83 O          -5.2660  -25.2304  -49.4732 O.2       14 UNK        -0.5000 
     84 N          -5.1303  -22.9841  -49.1737 N.am      15 UNK        -0.5000 
     85 CA         -5.2665  -22.5109  -50.5574 C.3       15 UNK         0.1400 
     86 CB         -6.6901  -22.7732  -51.0879 C.3       15 UNK        -0.1800 
     87 C          -4.1627  -23.0829  -51.4737 C.2       15 UNK         0.5000 
     88 O          -4.4384  -23.5066  -52.5939 O.2       15 UNK        -0.5000 
     89 N          -2.9354  -23.1466  -50.9363 N.am      16 UNK        -0.5000 
     90 CA         -1.7334  -23.7593  -51.5129 C.3       16 UNK         0.1400 
     91 CB         -1.2282  -22.9215  -52.7006 C.3       16 UNK        -0.1800 
     92 C          -1.8867  -25.2571  -51.8719 C.2       16 UNK         0.5000 
     93 O          -1.1303  -25.7654  -52.7024 O.2       16 UNK        -0.5000 
     94 N          -2.8557  -25.9409  -51.2425 N.am      17 UNK        -0.5000 
     95 CA         -3.2378  -27.3364  -51.4581 C.3       17 UNK         0.1400 
     96 CB         -2.1576  -28.2827  -50.8869 C.3       17 UNK        -0.1800 
     97 C          -3.6080  -27.6009  -52.9340 C.2       17 UNK         0.5000 
     98 O          -4.5517  -26.9913  -53.4398 O.2       17 UNK        -0.5000 
     99 N          -2.8611  -28.4876  -53.6037 N.am      18 UNK        -0.5000 
    100 CA        -3.0679  -28.8849  -54.9972 C.3       18 UNK         0.1400 
    101 CB        -2.2032  -30.1213  -55.2891 C.3       18 UNK        -0.1800 
    102 C         -2.7820  -27.7735  -56.0280 C.2       18 UNK         0.5000 
    103 O         -3.2600  -27.8758  -57.1587 O.2       18 UNK        -0.5000 
    104 N         -2.0127  -26.7433  -55.6444 N.am      19 UNK        -0.5000 
    105 CA        -1.6514  -25.6259  -56.5212 C.3       19 UNK         0.1400 
    106 CB        -0.3915  -24.9382  -55.9766 C.3       19 UNK        -0.1800 
    107 C         -2.7889  -24.6047  -56.7237 C.2       19 UNK         0.5000 
    108 O         -2.7173  -23.8177  -57.6684 O.2       19 UNK        -0.5000 
    109 N         -3.8019  -24.6199  -55.8436 N.am      20 UNK        -0.5000 
    110 CA        -5.0270  -23.8039  -55.8190 C.3       20 UNK         0.1400 
    111 CB        -5.8727  -24.0284  -57.0865 C.3       20 UNK        -0.1800 
    112 C         -4.8248  -22.2964  -55.5504 C.2       20 UNK         0.5000 
    113 O         -5.6519  -21.7064  -54.8530 O.2       20 UNK        -0.5000 
    114 N         -3.7467  -21.7117  -56.0940 N.am      21 UNK        -0.5000 
    115 CA        -3.2442  -20.3450  -55.9184 C.3       21 UNK         0.1400 
    116 CB        -2.4021  -20.2634  -54.6272 C.3       21 UNK        -0.1800 
    117 C         -4.3395  -19.2618  -55.9970 C.2       21 UNK         0.5000 
    118 O         -4.7337  -18.8699  -57.0965 O.2       21 UNK        -0.5000 
    119 N         -4.7980  -18.8065  -54.8266 N.am      22 UNK        -0.5000 
    120 CA        -5.8412  -17.7901  -54.6391 C.3       22 UNK         0.1400 
    121 C         -7.2807  -18.2623  -55.0000 C.2       22 UNK         0.5000 
    122 N         -7.5418  -19.5547  -55.1570 N.am      22 UNK        -0.7600 
    123 O         -8.1782  -17.4362  -55.1422 O.2       22 UNK        -0.5000 
    124 C124       -5.8088  -17.2044  -53.2027 C.3       23 UNK        -0.0398 
    125 S125       -4.1501  -16.6238  -52.6988 S.3       23 UNK        -0.2404 
    126 C126       -3.7585  -17.7986  -51.3617 C.3       23 UNK        -0.0205 
    127 H127        3.7650  -13.1478  -47.5210 H         1 UNK         0.0600 
    128 H128        4.4659  -13.7110  -46.0016 H         1 UNK         0.0600 
    129 H129        4.4913  -11.9904  -46.3993 H         1 UNK         0.0600 
    130 H130        1.5444  -12.8516  -47.5035 H         1 UNK         0.3000 
    131 H131       -0.0345  -13.2025  -45.1482 H         1 UNK         0.0600 
    132 H132       -1.9621  -12.5581  -46.7343 H         1 UNK         0.0800 
    133 H133       -0.7791  -12.3504  -47.9943 H         1 UNK         0.0800 
    134 H134       -0.7962  -14.0413  -49.6578 H         1 UNK         0.0800 
    135 H135        0.6797  -14.6955  -48.9875 H         1 UNK         0.0800 
    136 H136       -2.7859  -15.6263  -50.0488 H         1 UNK         0.1150 
    137 H137       -1.6045  -19.4898  -51.4865 H         1 UNK         0.1150 
    138 H138        1.2183  -17.0101  -49.4187 H         1 UNK         0.1150 
    139 H139        1.1618  -19.5247  -51.7618 H         1 UNK         0.0800 
    140 H140        1.9593  -19.0839  -50.2747 H         1 UNK         0.0800 
    141 H141        0.6180  -19.6562  -48.0247 H         1 UNK         0.0800 
    142 H142        1.5884  -21.0876  -47.8241 H         1 UNK         0.0800 
    143 H143       -0.5006  -22.4845  -47.7005 H         1 UNK         0.0600 
    144 H144        0.4481  -20.7965  -45.6679 H         1 UNK         0.3000 
    145 H145       -1.7031  -21.9191  -43.0199 H         1 UNK         0.0600 
    146 H146        0.5333  -22.2646  -42.0131 H         1 UNK         0.0600 
    147 H147        0.2042  -23.5123  -43.2063 H         1 UNK         0.0600 
    148 H148        1.2937  -22.1891  -43.6001 H         1 UNK         0.0600 
    149 H149        0.3304  -19.9337  -43.0499 H         1 UNK         0.3000 
    150 H150       -1.7728  -17.1618  -43.9687 H         1 UNK         0.0600 
    151 H151       -1.9573  -17.5776  -41.4824 H         1 UNK         0.0600 
    152 H152       -0.8352  -16.2920  -41.8865 H         1 UNK         0.0600 
    153 H153       -0.2237  -17.8791  -41.4236 H         1 UNK         0.0600 
    154 H154        1.0033  -17.2216  -43.4600 H         1 UNK         0.3000 
    155 H155        2.0976  -18.1280  -46.7622 H         1 UNK         0.0600 
    156 H156        3.4460  -16.0908  -46.3689 H         1 UNK         0.0600 
    157 H157        2.3256  -15.5713  -45.1109 H         1 UNK         0.0600 
    158 H158        1.7858  -15.6893  -46.7784 H         1 UNK         0.0600 
    159 H159        3.4556  -17.6680  -44.2532 H         1 UNK         0.3000 
    160 H160        3.6433  -21.1459  -43.3947 H         1 UNK         0.0600 
    161 H161        5.7784  -19.2311  -44.4761 H         1 UNK         0.0600 
    162 H162        5.3969  -20.8119  -45.1505 H         1 UNK         0.0600 
    163 H163        6.0688  -20.6916  -43.5319 H         1 UNK         0.0600 
    164 H164        4.8510  -18.8455  -42.2149 H         1 UNK         0.3000 
    165 H165        2.3525  -18.4050  -39.6946 H         1 UNK         0.0600 
    166 H166        4.4857  -18.5680  -38.4575 H         1 UNK         0.0600 
    167 H167        4.0572  -20.1222  -39.1546 H         1 UNK         0.0600 
    168 H168        5.3199  -19.1514  -39.8946 H         1 UNK         0.0600 
    169 H169        2.8738  -16.3618  -40.2858 H         1 UNK         0.3000 
    170 H170        5.2518  -14.4910  -40.8605 H         1 UNK         0.0600 
    171 H171        6.0708  -15.0150  -43.1347 H         1 UNK         0.0600 
    172 H172        4.4246  -15.1954  -43.7274 H         1 UNK         0.0600 
    173 H173        5.0081  -13.6193  -43.2027 H         1 UNK         0.0600 
    174 H174        3.2553  -13.5082  -40.7566 H         1 UNK         0.3000 
    175 H175        0.0726  -14.0696  -42.2329 H         1 UNK         0.0600 
    176 H176        1.0973  -13.7488  -39.3623 H         1 UNK         0.0600 
    177 H177       -0.5447  -13.4391  -39.9210 H         1 UNK         0.0600 
    178 H178        0.1087  -15.0688  -39.9614 H         1 UNK         0.0600 
    179 H179        0.6521  -12.0113  -42.6483 H         1 UNK         0.3000 
    180 H180        1.7856   -9.3499  -40.9659 H         1 UNK         0.0600 
    181 H181        3.3742   -8.7255  -42.7823 H         1 UNK         0.0600 
    182 H182        3.5519  -10.4203  -43.2340 H         1 UNK         0.0600 
    183 H183        4.1187   -9.8593  -41.6666 H         1 UNK         0.0600 
    184 H184        1.1842  -10.0301  -43.7717 H         1 UNK         0.3000 
    185 H185       -2.3359   -9.9491  -43.2780 H         1 UNK         0.0600 
    186 H186       -2.2081   -8.5901  -45.3841 H         1 UNK         0.0600 
    187 H187       -1.9148   -7.6459  -43.9319 H         1 UNK         0.0600 
    188 H188       -0.5675   -8.1010  -44.9567 H         1 UNK         0.0600 
    189 H189       -1.6444  -11.7269  -44.3454 H         1 UNK         0.3000 
    190 H190       -1.6413  -19.1940  -46.7706 H         1 UNK         0.3000 
    191 H191       -3.7195  -19.0080  -48.6618 H         1 UNK         0.0600 
    192 H192       -4.5632  -17.1862  -47.1824 H         1 UNK         0.0600 
    193 H193       -2.8239  -17.0755  -47.4024 H         1 UNK         0.0600 
    194 H194       -3.4787  -17.7092  -45.8969 H         1 UNK         0.0600 
    195 H195       -3.8024  -20.2708  -45.2982 H         1 UNK         0.3000 
    196 H196       -6.5752  -20.8559  -45.2053 H         1 UNK         0.0600 
    197 H197       -4.2336  -22.1183  -43.6836 H         1 UNK         0.0600 
    198 H198       -5.1552  -20.7016  -43.1853 H         1 UNK         0.0600 
    199 H199       -5.9316  -22.2766  -43.2491 H         1 UNK         0.0600 
    200 H200       -3.7960  -22.8639  -46.2467 H         1 UNK         0.3000 
    201 H201       -5.3949  -25.2087  -46.8537 H         1 UNK         0.0600 
    202 H202       -2.5261  -24.4386  -47.6202 H         1 UNK         0.0600 
    203 H203       -3.2296  -26.0453  -47.7664 H         1 UNK         0.0600 
    204 H204       -2.9961  -25.3349  -46.1770 H         1 UNK         0.0600 
    205 H205       -4.9166  -22.2636  -48.4963 H         1 UNK         0.3000 
    206 H206       -5.1138  -21.4310  -50.5301 H         1 UNK         0.0600 
    207 H207       -7.4417  -22.3397  -50.4282 H         1 UNK         0.0600 
    208 H208       -6.8260  -22.3269  -52.0741 H         1 UNK         0.0600 
    209 H209       -6.8975  -23.8396  -51.1804 H         1 UNK         0.0600 
    210 H210       -2.8129  -22.7223  -50.0178 H         1 UNK         0.3000 
    211 H211       -0.9739  -23.7152  -50.7315 H         1 UNK         0.0600 
    212 H212       -0.2355  -23.2451  -53.0139 H         1 UNK         0.0600 
    213 H213       -1.1496  -21.8686  -52.4318 H         1 UNK         0.0600 
    214 H214       -1.8946  -23.0049  -53.5597 H         1 UNK         0.0600 
    215 H215       -3.4824  -25.4233  -50.6379 H         1 UNK         0.3000 
    216 H216       -4.1519  -27.4960  -50.8844 H         1 UNK         0.0600 
    217 H217       -2.4619  -29.3266  -50.9724 H         1 UNK         0.0600 
    218 H218       -1.1975  -28.1701  -51.3917 H         1 UNK         0.0600 
    219 H219       -1.9941  -28.0858  -49.8272 H         1 UNK         0.0600 
    220 H220       -2.0868  -28.9212  -53.1221 H         1 UNK         0.3000 
    221 H221       -4.1162  -29.1684  -55.1120 H         1 UNK         0.0600 
    222 H222       -2.4558  -30.9466  -54.6230 H         1 UNK         0.0600 
    223 H223       -1.1406  -29.9054  -55.1705 H         1 UNK         0.0600 
    224 H224       -2.3545  -30.4732  -56.3105 H         1 UNK         0.0600 
    225 H225       -1.6687  -26.7083  -54.6917 H         1 UNK         0.3000 
    226 H226       -1.4051  -26.0283  -57.5062 H         1 UNK         0.0600 
    227 H227       -0.5672  -24.5005  -54.9964 H         1 UNK         0.0600 
    228 H228        0.4358  -25.6422  -55.8861 H         1 UNK         0.0600 
    229 H229       -0.0649  -24.1358  -56.6393 H         1 UNK         0.0600 
    230 H230       -3.7366  -25.2851  -55.0837 H         1 UNK         0.3000 
    231 H231       -5.6044  -24.1876  -54.9764 H         1 UNK         0.0600 
    232 H232       -5.3758  -23.6532  -57.9814 H         1 UNK         0.0600 
    233 H233       -6.8314  -23.5142  -57.0084 H         1 UNK         0.0600 
    234 H234       -6.0829  -25.0874  -57.2372 H         1 UNK         0.0600 
    235 H235       -3.1961  -22.3016  -56.7124 H         1 UNK         0.3000 
    236 H236       -2.5724  -20.1543  -56.7566 H         1 UNK         0.0600 
    237 H237       -2.0704  -19.2429  -54.4291 H         1 UNK         0.0600 
    238 H238       -2.9545  -20.6122  -53.7538 H         1 UNK         0.0600 
    239 H239       -1.5040  -20.8733  -54.7194 H         1 UNK         0.0600 
    240 H240       -4.4285  -19.2171  -53.9839 H         1 UNK         0.3000 
    241 H241       -5.6129  -16.9745  -55.3279 H         1 UNK         0.0600 
    242 H242       -8.4764  -19.8469  -55.3926 H         1 UNK         0.3800 
    243 H243       -6.8122  -20.2542  -55.0334 H         1 UNK         0.3800 
    244 H244       -6.1701  -17.9419  -52.4838 H         1 UNK         0.0800 
    245 H245       -6.4907  -16.3554  -53.1286 H         1 UNK         0.0800 
    246 H246       -4.4796  -17.6720  -50.5531 H         1 UNK         0.0800 
    247 H247       -3.8750  -18.8197  -51.7278 H         1 UNK         0.0800 
@<TRIPOS>BOND
     1    1    2 1    
     2    1  127 1    
     3    1  128 1    
     4    1  129 1    
     5    2    3 2    
     6    2    4 am   BACKBONE|DICT|INTERRES
     7    4    5 1    
     8    4  130 1    
     9    5    6 1    
    10    5   65 1    
    11    5  131 1    
    12    6    7 1    
    13    6  132 1    
    14    6  133 1    
    15    7    8 1    
    16    8    9 1    
    17    8  134 1    
    18    8  135 1    
    19    9   10 ar   
    20    9   14 ar   
    21   10   11 ar   
    22   10  136 1    
    23   11   12 ar   
    24   11  126 1    
    25   12   13 ar   
    26   12  137 1    
    27   13   14 ar   
    28   13   15 1    
    29   14  138 1    
    30   15   16 1    
    31   15  139 1    
    32   15  140 1    
    33   16   17 1    
    34   17   18 1    
    35   17  141 1    
    36   17  142 1    
    37   18   19 1    
    38   18   67 1    
    39   18  143 1    
    40   19   20 am   BACKBONE|DICT|INTERRES
    41   19  144 1    
    42   20   21 2    
    43   20   22 1    
    44   22   23 1    
    45   22   24 1    
    46   22  145 1    
    47   23  146 1    
    48   23  147 1    
    49   23  148 1    
    50   24   25 am   BACKBONE|DICT|INTERRES
    51   24  149 1    
    52   25   26 2    
    53   25   27 1    
    54   27   28 1    
    55   27   29 1    
    56   27  150 1    
    57   28  151 1    
    58   28  152 1    
    59   28  153 1    
    60   29   30 am   BACKBONE|DICT|INTERRES
    61   29  154 1    
    62   30   31 2    
    63   30   32 1    
    64   32   33 1    
    65   32   34 1    
    66   32  155 1    
    67   33  156 1    
    68   33  157 1    
    69   33  158 1    
    70   34   35 am   BACKBONE|DICT|INTERRES
    71   34  159 1    
    72   35   36 2    
    73   35   37 1    
    74   37   38 1    
    75   37   39 1    
    76   37  160 1    
    77   38  161 1    
    78   38  162 1    
    79   38  163 1    
    80   39   40 am   BACKBONE|DICT|INTERRES
    81   39  164 1    
    82   40   41 2    
    83   40   42 1    
    84   42   43 1    
    85   42   44 1    
    86   42  165 1    
    87   43  166 1    
    88   43  167 1    
    89   43  168 1    
    90   44   45 am   BACKBONE|DICT|INTERRES
    91   44  169 1    
    92   45   46 2    
    93   45   47 1    
    94   47   48 1    
    95   47   49 1    
    96   47  170 1    
    97   48  171 1    
    98   48  172 1    
    99   48  173 1    
   100   49   50 am   BACKBONE|DICT|INTERRES
   101   49  174 1    
   102   50   51 2    
   103   50   52 1    
   104   52   53 1    
   105   52   54 1    
   106   52  175 1    
   107   53  176 1    
   108   53  177 1    
   109   53  178 1    
   110   54   55 am   BACKBONE|DICT|INTERRES
   111   54  179 1    
   112   55   56 2    
   113   55   57 1    
   114   57   58 1    
   115   57   59 1    
   116   57  180 1    
   117   58  181 1    
   118   58  182 1    
   119   58  183 1    
   120   59   60 am   BACKBONE|DICT|INTERRES
   121   59  184 1    
   122   60   61 2    
   123   60   62 1    
   124   62   63 1    
   125   62   64 1    
   126   62  185 1    
   127   63  186 1    
   128   63  187 1    
   129   63  188 1    
   130   64   65 am   BACKBONE|DICT|INTERRES
   131   64  189 1    
   132   65   66 2    
   133   67   68 2    
   134   67   69 am   BACKBONE|DICT|INTERRES
   135   69   70 1    
   136   69  190 1    
   137   70   71 1    
   138   70   72 1    
   139   70  191 1    
   140   71  192 1    
   141   71  193 1    
   142   71  194 1    
   143   72   73 2    
   144   72   74 am   BACKBONE|DICT|INTERRES
   145   74   75 1    
   146   74  195 1    
   147   75   76 1    
   148   75   77 1    
   149   75  196 1    
   150   76  197 1    
   151   76  198 1    
   152   76  199 1    
   153   77   78 2    
   154   77   79 am   BACKBONE|DICT|INTERRES
   155   79   80 1    
   156   79  200 1    
   157   80   81 1    
   158   80   82 1    
   159   80  201 1    
   160   81  202 1    
   161   81  203 1    
   162   81  204 1    
   163   82   83 2    
   164   82   84 am   BACKBONE|DICT|INTERRES
   165   84   85 1    
   166   84  205 1    
   167   85   86 1    
   168   85   87 1    
   169   85  206 1    
   170   86  207 1    
   171   86  208 1    
   172   86  209 1    
   173   87   88 2    
   174   87   89 am   BACKBONE|DICT|INTERRES
   175   89   90 1    
   176   89  210 1    
   177   90   91 1    
   178   90   92 1    
   179   90  211 1    
   180   91  212 1    
   181   91  213 1    
   182   91  214 1    
   183   92   93 2    
   184   92   94 am   BACKBONE|DICT|INTERRES
   185   94   95 1    
   186   94  215 1    
   187   95   96 1    
   188   95   97 1    
   189   95  216 1    
   190   96  217 1    
   191   96  218 1    
   192   96  219 1    
   193   97   98 2    
   194   97   99 am   BACKBONE|DICT|INTERRES
   195   99  100 1    
   196   99  220 1    
   197  100  101 1    
   198  100  102 1    
   199  100  221 1    
   200  101  222 1    
   201  101  223 1    
   202  101  224 1    
   203  102  103 2    
   204  102  104 am   BACKBONE|DICT|INTERRES
   205  104  105 1    
   206  104  225 1    
   207  105  106 1    
   208  105  107 1    
   209  105  226 1    
   210  106  227 1    
   211  106  228 1    
   212  106  229 1    
   213  107  108 2    
   214  107  109 am   BACKBONE|DICT|INTERRES
   215  109  110 1    
   216  109  230 1    
   217  110  111 1    
   218  110  112 1    
   219  110  231 1    
   220  111  232 1    
   221  111  233 1    
   222  111  234 1    
   223  112  113 2    
   224  112  114 am   BACKBONE|DICT|INTERRES
   225  114  115 1    
   226  114  235 1    
   227  115  116 1    
   228  115  117 1    
   229  115  236 1    
   230  116  237 1    
   231  116  238 1    
   232  116  239 1    
   233  117  118 2    
   234  117  119 am   BACKBONE|DICT|INTERRES
   235  119  120 1    
   236  119  240 1    
   237  120  121 1    
   238  120  124 1    
   239  120  241 1    
   240  121  122 am   BACKBONE|DICT|INTERRES
   241  121  123 2    
   242  122  242 1    
   243  122  243 1    
   244  124  125 1    
   245  124  244 1    
   246  124  245 1    
   247  125  126 1    
   248  126  246 1    
   249  126  247 1    
@<TRIPOS>SUBSTRUCTURE
     1 UNK         1 GROUP             0       ****    0 ROOT    
