@<TRIPOS>MOLECULE
3R540
247   249    1
SMALL
USER_CHARGES


@<TRIPOS>ATOM
      1 CA         -0.0141  -10.8799  -49.9353 C.3       0 UNK        -0.1800 
      2 C           0.2216  -12.2218  -49.2567 C.2       0 UNK         0.5000 
      3 O           1.3203  -12.4678  -48.7595 O.2       0 UNK        -0.5000 
      4 N          -0.8066  -13.0799  -49.2317 N.am      1 UNK        -0.5000 
      5 CA         -0.8067  -14.4292  -48.6473 C.3       1 UNK         0.1400 
      6 C6         -0.5740  -14.4183  -47.1081 C.3       23 UNK        -0.0398 
      7 S7         -1.7064  -13.3033  -46.2057 S.3       23 UNK        -0.2404 
      8 C8         -2.6843  -14.4714  -45.2144 C.3       23 UNK        -0.0205 
      9 C9         -3.6888  -15.2316  -46.0655 C.ar      23 UNK        -0.0193 
     10 C10        -4.9185  -14.6514  -46.3849 C.ar      23 UNK        -0.1150 
     11 C11        -5.8520  -15.3489  -47.1555 C.ar      23 UNK        -0.0193 
     12 C12        -5.5462  -16.6385  -47.6024 C.ar      23 UNK        -0.1150 
     13 C13        -4.3108  -17.2246  -47.3137 C.ar      23 UNK        -0.0193 
     14 C14        -3.3934  -16.5154  -46.5290 C.ar      23 UNK        -0.1150 
     15 C15        -4.0078  -18.6223  -47.8512 C.3       23 UNK        -0.0205 
     16 S16        -2.2891  -18.8409  -48.4235 S.3       23 UNK        -0.2404 
     17 C17        -1.4801  -19.4124  -46.8940 C.3       23 UNK        -0.0398 
     18 CA         -1.0710  -20.9034  -46.9380 C.3       11 UNK         0.1400 
     19 N          -0.0591  -21.1966  -45.9227 N.am      11 UNK        -0.5000 
     20 C           0.5481  -22.3749  -45.7311 C.2       10 UNK         0.5000 
     21 O           0.3689  -23.3649  -46.4370 O.2       10 UNK        -0.5000 
     22 CA          1.4624  -22.4776  -44.4995 C.3       10 UNK         0.1400 
     23 CB          2.8495  -21.8842  -44.7902 C.3       10 UNK        -0.1800 
     24 N           0.8730  -21.8178  -43.3334 N.am      10 UNK        -0.5000 
     25 C          -0.2187  -22.2553  -42.6891 C.2       9 UNK         0.5000 
     26 O          -0.8176  -23.2897  -42.9827 O.2       9 UNK        -0.5000 
     27 CA         -0.7549  -21.3613  -41.5558 C.3       9 UNK         0.1400 
     28 CB          0.0330  -21.5957  -40.2585 C.3       9 UNK        -0.1800 
     29 N          -0.7175  -19.9381  -41.8980 N.am      9 UNK        -0.5000 
     30 C          -1.4653  -19.3727  -42.8563 C.2       8 UNK         0.5000 
     31 O          -2.2889  -19.9886  -43.5317 O.2       8 UNK        -0.5000 
     32 CA         -1.2132  -17.8805  -43.1465 C.3       8 UNK         0.1400 
     33 CB         -2.0506  -17.0059  -42.2027 C.3       8 UNK        -0.1800 
     34 N           0.1988  -17.4913  -43.0600 N.am      8 UNK        -0.5000 
     35 C           1.1920  -18.0383  -43.7790 C.2       7 UNK         0.5000 
     36 O           1.0014  -18.9257  -44.6100 O.2       7 UNK        -0.5000 
     37 CA          2.6306  -17.5404  -43.5397 C.3       7 UNK         0.1400 
     38 CB          3.3733  -17.3212  -44.8705 C.3       7 UNK        -0.1800 
     39 N           2.6727  -16.3068  -42.7542 N.am      7 UNK        -0.5000 
     40 C           2.8010  -16.2411  -41.4209 C.2       6 UNK         0.5000 
     41 O           2.8981  -17.2344  -40.7001 O.2       6 UNK        -0.5000 
     42 CA          2.8096  -14.8387  -40.7743 C.3       6 UNK         0.1400 
     43 CB          4.2468  -14.4180  -40.4308 C.3       6 UNK        -0.1800 
     44 N           2.2052  -13.8020  -41.6131 N.am      6 UNK        -0.5000 
     45 C           0.9035  -13.7239  -41.9222 C.2       5 UNK         0.5000 
     46 O           0.0506  -14.4809  -41.4603 O.2       5 UNK        -0.5000 
     47 CA          0.4966  -12.6586  -42.9624 C.3       5 UNK         0.1400 
     48 CB         -0.0097  -11.3881  -42.2644 C.3       5 UNK        -0.1800 
     49 N           1.5646  -12.2983  -43.9060 N.am      5 UNK        -0.5000 
     50 C           2.1714  -13.1591  -44.7334 C.2       4 UNK         0.5000 
     51 O           1.9031  -14.3635  -44.7733 O.2       4 UNK        -0.5000 
     52 CA          3.2917  -12.6054  -45.6256 C.3       4 UNK         0.1400 
     53 CB          4.5035  -12.1669  -44.7798 C.3       4 UNK        -0.1800 
     54 N           3.6825  -13.6656  -46.5472 N.am      4 UNK        -0.5000 
     55 C           4.3900  -13.5307  -47.6741 C.2       3 UNK         0.5000 
     56 O           4.8511  -12.4627  -48.0781 O.2       3 UNK        -0.5000 
     57 CA          4.6084  -14.8138  -48.4886 C.3       3 UNK         0.1400 
     58 CB          5.7566  -15.6451  -47.8815 C.3       3 UNK        -0.1800 
     59 N           3.3684  -15.5892  -48.5517 N.am      3 UNK        -0.5000 
     60 C           3.1358  -16.6320  -49.3593 C.2       2 UNK         0.5000 
     61 O           3.9668  -17.0866  -50.1462 O.2       2 UNK        -0.5000 
     62 CA          1.7383  -17.2825  -49.2844 C.3       2 UNK         0.1400 
     63 CB          1.7889  -18.5752  -48.4537 C.3       2 UNK        -0.1800 
     64 N           0.7113  -16.3903  -48.7349 N.am      2 UNK        -0.5000 
     65 C           0.1708  -15.3638  -49.4104 C.2       1 UNK         0.5000 
     66 O           0.4331  -15.1396  -50.5955 O.2       1 UNK        -0.5000 
     67 C          -2.2964  -21.8327  -46.8111 C.2       11 UNK         0.5000 
     68 O          -2.7086  -22.4334  -47.8030 O.2       11 UNK        -0.5000 
     69 N          -2.8258  -21.9637  -45.5862 N.am      12 UNK        -0.5000 
     70 CA         -3.9513  -22.8373  -45.2550 C.3       12 UNK         0.1400 
     71 CB         -4.4103  -22.5513  -43.8174 C.3       12 UNK        -0.1800 
     72 C          -3.6363  -24.3336  -45.4379 C.2       12 UNK         0.5000 
     73 O          -4.5080  -25.0807  -45.8825 O.2       12 UNK        -0.5000 
     74 N          -2.4039  -24.7426  -45.1044 N.am      13 UNK        -0.5000 
     75 CA         -1.9098  -26.1068  -45.2945 C.3       13 UNK         0.1400 
     76 CB         -0.6040  -26.2963  -44.5075 C.3       13 UNK        -0.1800 
     77 C          -1.7115  -26.4629  -46.7799 C.2       13 UNK         0.5000 
     78 O          -2.0567  -27.5727  -47.1874 O.2       13 UNK        -0.5000 
     79 N          -1.1635  -25.5182  -47.5561 N.am      14 UNK        -0.5000 
     80 CA         -0.9451  -25.6335  -48.9974 C.3       14 UNK         0.1400 
     81 CB         -0.0255  -24.4882  -49.4521 C.3       14 UNK        -0.1800 
     82 C          -2.2694  -25.6473  -49.7839 C.2       14 UNK         0.5000 
     83 O          -2.4886  -26.5529  -50.5903 O.2       14 UNK        -0.5000 
     84 N          -3.1344  -24.6652  -49.4918 N.am      15 UNK        -0.5000 
     85 CA         -4.4862  -24.4676  -50.0193 C.3       15 UNK         0.1400 
     86 CB         -5.4041  -25.6197  -49.5543 C.3       15 UNK        -0.1800 
     87 C          -4.5488  -24.2506  -51.5481 C.2       15 UNK         0.5000 
     88 O          -3.5219  -24.1207  -52.2217 O.2       15 UNK        -0.5000 
     89 N          -5.7788  -24.2154  -52.0793 N.am      16 UNK        -0.5000 
     90 CA         -6.0846  -24.0247  -53.4998 C.3       16 UNK         0.1400 
     91 CB         -7.6044  -23.8891  -53.6722 C.3       16 UNK        -0.1800 
     92 C          -5.5347  -25.1398  -54.4112 C.2       16 UNK         0.5000 
     93 O          -5.2883  -24.8853  -55.5894 O.2       16 UNK        -0.5000 
     94 N          -5.2964  -26.3321  -53.8455 N.am      17 UNK        -0.5000 
     95 CA         -4.6400  -27.4662  -54.5015 C.3       17 UNK         0.1400 
     96 CB         -4.6957  -28.6825  -53.5650 C.3       17 UNK        -0.1800 
     97 C          -3.1830  -27.1732  -54.9169 C.2       17 UNK         0.5000 
     98 O          -2.7202  -27.7137  -55.9218 O.2       17 UNK        -0.5000 
     99 N          -2.5039  -26.3033  -54.1578 N.am      18 UNK        -0.5000 
    100 CA        -1.1619  -25.7939  -54.4453 C.3       18 UNK         0.1400 
    101 CB        -0.3656  -25.7860  -53.1335 C.3       18 UNK        -0.1800 
    102 C         -1.2033  -24.3773  -55.0557 C.2       18 UNK         0.5000 
    103 O         -0.1472  -23.7706  -55.2383 O.2       18 UNK        -0.5000 
    104 N         -2.4127  -23.8680  -55.3360 N.am      19 UNK        -0.5000 
    105 CA        -2.7336  -22.5204  -55.8138 C.3       19 UNK         0.1400 
    106 CB        -2.1531  -22.2789  -57.2232 C.3       19 UNK        -0.1800 
    107 C         -2.3724  -21.4038  -54.8092 C.2       19 UNK         0.5000 
    108 O         -2.1150  -20.2719  -55.2240 O.2       19 UNK        -0.5000 
    109 N         -2.3777  -21.7224  -53.5063 N.am      20 UNK        -0.5000 
    110 CA        -2.2136  -20.7499  -52.4273 C.3       20 UNK         0.1400 
    111 CB        -1.7723  -21.4798  -51.1496 C.3       20 UNK        -0.1800 
    112 C         -3.5332  -19.9843  -52.2188 C.2       20 UNK         0.5000 
    113 O         -4.6069  -20.5905  -52.2730 O.2       20 UNK        -0.5000 
    114 N         -3.4348  -18.6699  -52.0048 N.am      21 UNK        -0.5000 
    115 CA        -4.5581  -17.7441  -51.8992 C.3       21 UNK         0.1400 
    116 CB        -5.1339  -17.4594  -53.3022 C.3       21 UNK        -0.1800 
    117 C         -4.0913  -16.4530  -51.2095 C.2       21 UNK         0.5000 
    118 O         -2.9060  -16.3140  -50.8987 O.2       21 UNK        -0.5000 
    119 N         -5.0372  -15.5329  -50.9876 N.am      22 UNK        -0.5000 
    120 CA        -4.8360  -14.2623  -50.2698 C.3       22 UNK         0.1400 
    121 C         -3.8805  -13.2466  -50.9611 C.2       22 UNK         0.5000 
    122 N         -3.5995  -13.3670  -52.2522 N.am      22 UNK        -0.7600 
    123 O         -3.3760  -12.3384  -50.3081 O.2       22 UNK        -0.5000 
    124 C124       -6.1782  -13.5634  -49.9105 C.3       23 UNK        -0.0398 
    125 S125       -7.4938  -14.6805  -49.3049 S.3       23 UNK        -0.2404 
    126 C126       -7.1861  -14.7059  -47.5090 C.3       23 UNK        -0.0205 
    127 H127        0.1426  -10.0682  -49.2249 H         1 UNK         0.0600 
    128 H128       -1.0277  -10.7968  -50.3284 H         1 UNK         0.0600 
    129 H129        0.6833  -10.7508  -50.7629 H         1 UNK         0.0600 
    130 H130       -1.6849  -12.7993  -49.6609 H         1 UNK         0.3000 
    131 H131       -1.8039  -14.8340  -48.8256 H         1 UNK         0.0600 
    132 H132       -0.6645  -15.4194  -46.6883 H         1 UNK         0.0800 
    133 H133        0.4424  -14.0952  -46.8912 H         1 UNK         0.0800 
    134 H134       -2.0140  -15.1574  -44.6961 H         1 UNK         0.0800 
    135 H135       -3.2116  -13.9174  -44.4364 H         1 UNK         0.0800 
    136 H136       -5.1442  -13.6542  -46.0337 H         1 UNK         0.1150 
    137 H137       -6.2694  -17.1773  -48.1984 H         1 UNK         0.1150 
    138 H138       -2.4399  -16.9518  -46.2820 H         1 UNK         0.1150 
    139 H139       -4.2530  -19.3644  -47.0904 H         1 UNK         0.0800 
    140 H140       -4.6565  -18.8369  -48.7018 H         1 UNK         0.0800 
    141 H141       -2.1153  -19.2108  -46.0320 H         1 UNK         0.0800 
    142 H142       -0.5989  -18.7867  -46.7558 H         1 UNK         0.0800 
    143 H143       -0.6047  -21.1059  -47.9044 H         1 UNK         0.0600 
    144 H144        0.2058  -20.4242  -45.3157 H         1 UNK         0.3000 
    145 H145        1.5892  -23.5362  -44.2634 H         1 UNK         0.0600 
    146 H146        3.5122  -21.9915  -43.9314 H         1 UNK         0.0600 
    147 H147        2.7968  -20.8252  -45.0429 H         1 UNK         0.0600 
    148 H148        3.3210  -22.3959  -45.6301 H         1 UNK         0.0600 
    149 H149        1.2717  -20.9311  -43.0646 H         1 UNK         0.3000 
    150 H150       -1.7958  -21.6401  -41.3776 H         1 UNK         0.0600 
    151 H151        0.0101  -22.6484  -39.9734 H         1 UNK         0.0600 
    152 H152       -0.3923  -21.0271  -39.4313 H         1 UNK         0.0600 
    153 H153        1.0794  -21.3060  -40.3622 H         1 UNK         0.0600 
    154 H154       -0.0614  -19.3606  -41.3930 H         1 UNK         0.3000 
    155 H155       -1.5419  -17.6869  -44.1682 H         1 UNK         0.0600 
    156 H156       -3.1072  -17.2718  -42.2571 H         1 UNK         0.0600 
    157 H157       -1.9714  -15.9510  -42.4622 H         1 UNK         0.0600 
    158 H158       -1.7350  -17.1172  -41.1647 H         1 UNK         0.0600 
    159 H159        0.4249  -16.7481  -42.4133 H         1 UNK         0.3000 
    160 H160        3.1542  -18.3316  -42.9997 H         1 UNK         0.0600 
    161 H161        2.8202  -16.6664  -45.5428 H         1 UNK         0.0600 
    162 H162        3.5220  -18.2670  -45.3928 H         1 UNK         0.0600 
    163 H163        4.3590  -16.8853  -44.7080 H         1 UNK         0.0600 
    164 H164        2.5265  -15.4521  -43.2822 H         1 UNK         0.3000 
    165 H165        2.2385  -14.9019  -39.8457 H         1 UNK         0.0600 
    166 H166        4.2640  -13.4621  -39.9069 H         1 UNK         0.0600 
    167 H167        4.7245  -15.1518  -39.7801 H         1 UNK         0.0600 
    168 H168        4.8628  -14.3227  -41.3260 H         1 UNK         0.0600 
    169 H169        2.8356  -13.1366  -42.0351 H         1 UNK         0.3000 
    170 H170       -0.3269  -13.0795  -43.5417 H         1 UNK         0.0600 
    171 H171        0.7811  -10.9006  -41.6929 H         1 UNK         0.0600 
    172 H172       -0.3966  -10.6691  -42.9868 H         1 UNK         0.0600 
    173 H173       -0.8210  -11.6191  -41.5726 H         1 UNK         0.0600 
    174 H174        1.8389  -11.3266  -43.9215 H         1 UNK         0.3000 
    175 H175        2.8985  -11.7599  -46.1937 H         1 UNK         0.0600 
    176 H176        4.9062  -12.9966  -44.1972 H         1 UNK         0.0600 
    177 H177        5.3072  -11.7802  -45.4062 H         1 UNK         0.0600 
    178 H178        4.2352  -11.3732  -44.0821 H         1 UNK         0.0600 
    179 H179        3.3379  -14.5742  -46.2667 H         1 UNK         0.3000 
    180 H180        4.8822  -14.5190  -49.5038 H         1 UNK         0.0600 
    181 H181        6.0180  -16.4932  -48.5137 H         1 UNK         0.0600 
    182 H182        5.4956  -16.0317  -46.8959 H         1 UNK         0.0600 
    183 H183        6.6581  -15.0414  -47.7693 H         1 UNK         0.0600 
    184 H184        2.5966  -15.2229  -48.0147 H         1 UNK         0.3000 
    185 H185        1.4558  -17.5540  -50.3039 H         1 UNK         0.0600 
    186 H186        0.8775  -19.1557  -48.5862 H         1 UNK         0.0600 
    187 H187        2.6161  -19.2139  -48.7664 H         1 UNK         0.0600 
    188 H188        1.9151  -18.3740  -47.3896 H         1 UNK         0.0600 
    189 H189        0.4394  -16.5583  -47.7790 H         1 UNK         0.3000 
    190 H190       -2.4547  -21.4014  -44.8251 H         1 UNK         0.3000 
    191 H191       -4.7732  -22.5891  -45.9297 H         1 UNK         0.0600 
    192 H192       -3.6150  -22.7428  -43.0962 H         1 UNK         0.0600 
    193 H193       -5.2605  -23.1780  -43.5454 H         1 UNK         0.0600 
    194 H194       -4.7217  -21.5128  -43.7029 H         1 UNK         0.0600 
    195 H195       -1.7633  -24.0785  -44.6845 H         1 UNK         0.3000 
    196 H196       -2.6516  -26.7952  -44.8840 H         1 UNK         0.0600 
    197 H197       -0.7565  -26.1173  -43.4430 H         1 UNK         0.0600 
    198 H198        0.1771  -25.6183  -44.8515 H         1 UNK         0.0600 
    199 H199       -0.2270  -27.3140  -44.6158 H         1 UNK         0.0600 
    200 H200       -0.8488  -24.6544  -47.1223 H         1 UNK         0.3000 
    201 H201       -0.4307  -26.5774  -49.1889 H         1 UNK         0.0600 
    202 H202        0.9278  -24.5202  -48.9245 H         1 UNK         0.0600 
    203 H203       -0.4737  -23.5120  -49.2645 H         1 UNK         0.0600 
    204 H204        0.1985  -24.5512  -50.5149 H         1 UNK         0.0600 
    205 H205       -2.8378  -23.9504  -48.8301 H         1 UNK         0.3000 
    206 H206       -4.8456  -23.5441  -49.5632 H         1 UNK         0.0600 
    207 H207       -5.2976  -25.7967  -48.4839 H         1 UNK         0.0600 
    208 H208       -6.4558  -25.3955  -49.7330 H         1 UNK         0.0600 
    209 H209       -5.1736  -26.5538  -50.0679 H         1 UNK         0.0600 
    210 H210       -6.5734  -24.3190  -51.4654 H         1 UNK         0.3000 
    211 H211       -5.6187  -23.0879  -53.8139 H         1 UNK         0.0600 
    212 H212       -7.8657  -23.7186  -54.7175 H         1 UNK         0.0600 
    213 H213       -7.9924  -23.0455  -53.1010 H         1 UNK         0.0600 
    214 H214       -8.1286  -24.7879  -53.3449 H         1 UNK         0.0600 
    215 H215       -5.5243  -26.4474  -52.8692 H         1 UNK         0.3000 
    216 H216       -5.2021  -27.7014  -55.4076 H         1 UNK         0.0600 
    217 H217       -4.1694  -28.4922  -52.6282 H         1 UNK         0.0600 
    218 H218       -5.7249  -28.9497  -53.3247 H         1 UNK         0.0600 
    219 H219       -4.2344  -29.5550  -54.0296 H         1 UNK         0.0600 
    220 H220       -2.9595  -25.8962  -53.3481 H         1 UNK         0.3000 
    221 H221       -0.6491  -26.4450  -55.1557 H         1 UNK         0.0600 
    222 H222       -0.8118  -25.0909  -52.4237 H         1 UNK         0.0600 
    223 H223       -0.3461  -26.7737  -52.6724 H         1 UNK         0.0600 
    224 H224        0.6683  -25.4791  -53.2953 H         1 UNK         0.0600 
    225 H225       -3.2152  -24.4642  -55.1788 H         1 UNK         0.3000 
    226 H226       -3.8201  -22.4901  -55.9043 H         1 UNK         0.0600 
    227 H227       -2.4319  -23.0808  -57.9068 H         1 UNK         0.0600 
    228 H228       -2.5307  -21.3480  -57.6475 H         1 UNK         0.0600 
    229 H229       -1.0650  -22.2119  -57.2088 H         1 UNK         0.0600 
    230 H230       -2.6642  -22.6546  -53.2227 H         1 UNK         0.3000 
    231 H231       -1.4251  -20.0475  -52.7064 H         1 UNK         0.0600 
    232 H232       -1.4288  -20.7709  -50.3982 H         1 UNK         0.0600 
    233 H233       -0.9469  -22.1633  -51.3484 H         1 UNK         0.0600 
    234 H234       -2.5851  -22.0548  -50.7069 H         1 UNK         0.0600 
    235 H235       -2.5304  -18.2311  -51.8811 H         1 UNK         0.3000 
    236 H236       -5.3300  -18.1926  -51.2703 H         1 UNK         0.0600 
    237 H237       -4.3892  -16.9997  -53.9530 H         1 UNK         0.0600 
    238 H238       -5.4768  -18.3744  -53.7854 H         1 UNK         0.0600 
    239 H239       -5.9912  -16.7874  -53.2552 H         1 UNK         0.0600 
    240 H240       -5.9881  -15.7242  -51.2671 H         1 UNK         0.3000 
    241 H241       -4.3432  -14.5229  -49.3322 H         1 UNK         0.0600 
    242 H242       -2.9773  -12.7064  -52.6899 H         1 UNK         0.3800 
    243 H243       -3.9957  -14.1170  -52.7950 H         1 UNK         0.3800 
    244 H244       -6.0089  -12.7809  -49.1687 H         1 UNK         0.0800 
    245 H245       -6.5811  -13.0578  -50.7900 H         1 UNK         0.0800 
    246 H246       -7.9843  -15.2685  -47.0233 H         1 UNK         0.0800 
    247 H247       -7.2473  -13.6875  -47.1220 H         1 UNK         0.0800 
@<TRIPOS>BOND
     1    1    2 1    
     2    1  127 1    
     3    1  128 1    
     4    1  129 1    
     5    2    3 2    
     6    2    4 am   BACKBONE|DICT|INTERRES
     7    4    5 1    
     8    4  130 1    
     9    5    6 1    
    10    5   65 1    
    11    5  131 1    
    12    6    7 1    
    13    6  132 1    
    14    6  133 1    
    15    7    8 1    
    16    8    9 1    
    17    8  134 1    
    18    8  135 1    
    19    9   10 ar   
    20    9   14 ar   
    21   10   11 ar   
    22   10  136 1    
    23   11   12 ar   
    24   11  126 1    
    25   12   13 ar   
    26   12  137 1    
    27   13   14 ar   
    28   13   15 1    
    29   14  138 1    
    30   15   16 1    
    31   15  139 1    
    32   15  140 1    
    33   16   17 1    
    34   17   18 1    
    35   17  141 1    
    36   17  142 1    
    37   18   19 1    
    38   18   67 1    
    39   18  143 1    
    40   19   20 am   BACKBONE|DICT|INTERRES
    41   19  144 1    
    42   20   21 2    
    43   20   22 1    
    44   22   23 1    
    45   22   24 1    
    46   22  145 1    
    47   23  146 1    
    48   23  147 1    
    49   23  148 1    
    50   24   25 am   BACKBONE|DICT|INTERRES
    51   24  149 1    
    52   25   26 2    
    53   25   27 1    
    54   27   28 1    
    55   27   29 1    
    56   27  150 1    
    57   28  151 1    
    58   28  152 1    
    59   28  153 1    
    60   29   30 am   BACKBONE|DICT|INTERRES
    61   29  154 1    
    62   30   31 2    
    63   30   32 1    
    64   32   33 1    
    65   32   34 1    
    66   32  155 1    
    67   33  156 1    
    68   33  157 1    
    69   33  158 1    
    70   34   35 am   BACKBONE|DICT|INTERRES
    71   34  159 1    
    72   35   36 2    
    73   35   37 1    
    74   37   38 1    
    75   37   39 1    
    76   37  160 1    
    77   38  161 1    
    78   38  162 1    
    79   38  163 1    
    80   39   40 am   BACKBONE|DICT|INTERRES
    81   39  164 1    
    82   40   41 2    
    83   40   42 1    
    84   42   43 1    
    85   42   44 1    
    86   42  165 1    
    87   43  166 1    
    88   43  167 1    
    89   43  168 1    
    90   44   45 am   BACKBONE|DICT|INTERRES
    91   44  169 1    
    92   45   46 2    
    93   45   47 1    
    94   47   48 1    
    95   47   49 1    
    96   47  170 1    
    97   48  171 1    
    98   48  172 1    
    99   48  173 1    
   100   49   50 am   BACKBONE|DICT|INTERRES
   101   49  174 1    
   102   50   51 2    
   103   50   52 1    
   104   52   53 1    
   105   52   54 1    
   106   52  175 1    
   107   53  176 1    
   108   53  177 1    
   109   53  178 1    
   110   54   55 am   BACKBONE|DICT|INTERRES
   111   54  179 1    
   112   55   56 2    
   113   55   57 1    
   114   57   58 1    
   115   57   59 1    
   116   57  180 1    
   117   58  181 1    
   118   58  182 1    
   119   58  183 1    
   120   59   60 am   BACKBONE|DICT|INTERRES
   121   59  184 1    
   122   60   61 2    
   123   60   62 1    
   124   62   63 1    
   125   62   64 1    
   126   62  185 1    
   127   63  186 1    
   128   63  187 1    
   129   63  188 1    
   130   64   65 am   BACKBONE|DICT|INTERRES
   131   64  189 1    
   132   65   66 2    
   133   67   68 2    
   134   67   69 am   BACKBONE|DICT|INTERRES
   135   69   70 1    
   136   69  190 1    
   137   70   71 1    
   138   70   72 1    
   139   70  191 1    
   140   71  192 1    
   141   71  193 1    
   142   71  194 1    
   143   72   73 2    
   144   72   74 am   BACKBONE|DICT|INTERRES
   145   74   75 1    
   146   74  195 1    
   147   75   76 1    
   148   75   77 1    
   149   75  196 1    
   150   76  197 1    
   151   76  198 1    
   152   76  199 1    
   153   77   78 2    
   154   77   79 am   BACKBONE|DICT|INTERRES
   155   79   80 1    
   156   79  200 1    
   157   80   81 1    
   158   80   82 1    
   159   80  201 1    
   160   81  202 1    
   161   81  203 1    
   162   81  204 1    
   163   82   83 2    
   164   82   84 am   BACKBONE|DICT|INTERRES
   165   84   85 1    
   166   84  205 1    
   167   85   86 1    
   168   85   87 1    
   169   85  206 1    
   170   86  207 1    
   171   86  208 1    
   172   86  209 1    
   173   87   88 2    
   174   87   89 am   BACKBONE|DICT|INTERRES
   175   89   90 1    
   176   89  210 1    
   177   90   91 1    
   178   90   92 1    
   179   90  211 1    
   180   91  212 1    
   181   91  213 1    
   182   91  214 1    
   183   92   93 2    
   184   92   94 am   BACKBONE|DICT|INTERRES
   185   94   95 1    
   186   94  215 1    
   187   95   96 1    
   188   95   97 1    
   189   95  216 1    
   190   96  217 1    
   191   96  218 1    
   192   96  219 1    
   193   97   98 2    
   194   97   99 am   BACKBONE|DICT|INTERRES
   195   99  100 1    
   196   99  220 1    
   197  100  101 1    
   198  100  102 1    
   199  100  221 1    
   200  101  222 1    
   201  101  223 1    
   202  101  224 1    
   203  102  103 2    
   204  102  104 am   BACKBONE|DICT|INTERRES
   205  104  105 1    
   206  104  225 1    
   207  105  106 1    
   208  105  107 1    
   209  105  226 1    
   210  106  227 1    
   211  106  228 1    
   212  106  229 1    
   213  107  108 2    
   214  107  109 am   BACKBONE|DICT|INTERRES
   215  109  110 1    
   216  109  230 1    
   217  110  111 1    
   218  110  112 1    
   219  110  231 1    
   220  111  232 1    
   221  111  233 1    
   222  111  234 1    
   223  112  113 2    
   224  112  114 am   BACKBONE|DICT|INTERRES
   225  114  115 1    
   226  114  235 1    
   227  115  116 1    
   228  115  117 1    
   229  115  236 1    
   230  116  237 1    
   231  116  238 1    
   232  116  239 1    
   233  117  118 2    
   234  117  119 am   BACKBONE|DICT|INTERRES
   235  119  120 1    
   236  119  240 1    
   237  120  121 1    
   238  120  124 1    
   239  120  241 1    
   240  121  122 am   BACKBONE|DICT|INTERRES
   241  121  123 2    
   242  122  242 1    
   243  122  243 1    
   244  124  125 1    
   245  124  244 1    
   246  124  245 1    
   247  125  126 1    
   248  126  246 1    
   249  126  247 1    
@<TRIPOS>SUBSTRUCTURE
     1 UNK         1 GROUP             0       ****    0 ROOT    
