@<TRIPOS>MOLECULE
3R540
247   249    1
SMALL
USER_CHARGES


@<TRIPOS>ATOM
      1 CA         -3.4205  -13.7723  -45.5207 C.3       0 UNK        -0.1800 
      2 C          -3.1517  -13.8247  -47.0185 C.2       0 UNK         0.5000 
      3 O          -2.9408  -12.7831  -47.6384 O.2       0 UNK        -0.5000 
      4 N          -3.1678  -15.0307  -47.6019 N.am      1 UNK        -0.5000 
      5 CA         -2.8769  -15.2802  -49.0193 C.3       1 UNK         0.1400 
      6 C6         -3.4155  -16.6562  -49.4848 C.3       23 UNK        -0.0398 
      7 S7         -2.8042  -18.0928  -48.5256 S.3       23 UNK        -0.2404 
      8 C8         -2.2026  -19.2009  -49.8409 C.3       23 UNK        -0.0205 
      9 C9         -0.7244  -19.0273  -50.1245 C.ar      23 UNK        -0.0193 
     10 C10        -0.2818  -18.0219  -50.9815 C.ar      23 UNK        -0.1150 
     11 C11         1.0795  -17.8631  -51.2427 C.ar      23 UNK        -0.0193 
     12 C12         1.9997  -18.7333  -50.6491 C.ar      23 UNK        -0.1150 
     13 C13         1.5719  -19.7630  -49.8014 C.ar      23 UNK        -0.0193 
     14 C14         0.2004  -19.9002  -49.5491 C.ar      23 UNK        -0.1150 
     15 C15         2.6299  -20.6847  -49.1859 C.3       23 UNK        -0.0205 
     16 S16         2.0127  -22.1684  -48.3102 S.3       23 UNK        -0.2404 
     17 C17         1.4779  -21.4455  -46.7231 C.3       23 UNK        -0.0398 
     18 CA          0.8628  -22.4729  -45.7355 C.3       11 UNK         0.1400 
     19 N           1.1010  -22.0383  -44.3570 N.am      11 UNK        -0.5000 
     20 C           1.3376  -22.8225  -43.3001 C.2       10 UNK         0.5000 
     21 O           1.3439  -24.0523  -43.3467 O.2       10 UNK        -0.5000 
     22 CA          1.5722  -22.0987  -41.9597 C.3       10 UNK         0.1400 
     23 CB          3.0280  -21.6220  -41.8439 C.3       10 UNK        -0.1800 
     24 N           0.6713  -20.9573  -41.7791 N.am      10 UNK        -0.5000 
     25 C          -0.6486  -21.0693  -41.5733 C.2       9 UNK         0.5000 
     26 O          -1.2253  -22.1496  -41.4518 O.2       9 UNK        -0.5000 
     27 CA         -1.4664  -19.7658  -41.5189 C.3       9 UNK         0.1400 
     28 CB         -1.4060  -19.1423  -40.1165 C.3       9 UNK        -0.1800 
     29 N          -1.0294  -18.7852  -42.5126 N.am      9 UNK        -0.5000 
     30 C          -1.1873  -18.9202  -43.8371 C.2       8 UNK         0.5000 
     31 O          -1.7864  -19.8562  -44.3616 O.2       8 UNK        -0.5000 
     32 CA         -0.5422  -17.8458  -44.7318 C.3       8 UNK         0.1400 
     33 CB         -1.4904  -16.6547  -44.9182 C.3       8 UNK        -0.1800 
     34 N           0.7414  -17.3688  -44.2162 N.am      8 UNK        -0.5000 
     35 C           1.8363  -18.1302  -44.0868 C.2       7 UNK         0.5000 
     36 O           1.8821  -19.3164  -44.4025 O.2       7 UNK        -0.5000 
     37 CA          3.0666  -17.4760  -43.4390 C.3       7 UNK         0.1400 
     38 CB          3.8468  -16.6251  -44.4535 C.3       7 UNK        -0.1800 
     39 N           2.6944  -16.6643  -42.2815 N.am      7 UNK        -0.5000 
     40 C           2.2196  -17.1671  -41.1324 C.2       6 UNK         0.5000 
     41 O           2.1014  -18.3724  -40.9094 O.2       6 UNK        -0.5000 
     42 CA          1.7549  -16.1463  -40.0777 C.3       6 UNK         0.1400 
     43 CB          2.9445  -15.6478  -39.2440 C.3       6 UNK        -0.1800 
     44 N           1.0670  -15.0007  -40.6770 N.am      6 UNK        -0.5000 
     45 C          -0.1191  -15.0715  -41.2987 C.2       5 UNK         0.5000 
     46 O          -0.7800  -16.1045  -41.3900 O.2       5 UNK        -0.5000 
     47 CA         -0.6250  -13.7851  -41.9776 C.3       5 UNK         0.1400 
     48 CB         -1.4139  -12.9207  -40.9835 C.3       5 UNK        -0.1800 
     49 N           0.4544  -12.9893  -42.5691 N.am      5 UNK        -0.5000 
     50 C           1.2218  -13.3993  -43.5865 C.2       4 UNK         0.5000 
     51 O           1.0968  -14.4949  -44.1411 O.2       4 UNK        -0.5000 
     52 CA          2.3486  -12.4539  -44.0179 C.3       4 UNK         0.1400 
     53 CB          3.5770  -12.6172  -43.1060 C.3       4 UNK        -0.1800 
     54 N           2.7163  -12.7680  -45.3920 N.am      4 UNK        -0.5000 
     55 C           3.1868  -11.8993  -46.2931 C.2       3 UNK         0.5000 
     56 O           3.4308  -10.7194  -46.0362 O.2       3 UNK        -0.5000 
     57 CA          3.4323  -12.4239  -47.7249 C.3       3 UNK         0.1400 
     58 CB          4.9379  -12.6045  -47.9754 C.3       3 UNK        -0.1800 
     59 N           2.7520  -13.6848  -48.0417 N.am      3 UNK        -0.5000 
     60 C           1.4250  -13.8487  -48.1267 C.2       2 UNK         0.5000 
     61 O           0.6175  -12.9380  -47.9313 O.2       2 UNK        -0.5000 
     62 CA          0.9408  -15.2702  -48.4766 C.3       2 UNK         0.1400 
     63 CB          1.5575  -16.3300  -47.5468 C.3       2 UNK        -0.1800 
     64 N          -0.5115  -15.3763  -48.3843 N.am      2 UNK        -0.5000 
     65 C          -1.3817  -15.1133  -49.3666 C.2       1 UNK         0.5000 
     66 O          -1.0603  -14.7733  -50.5068 O.2       1 UNK        -0.5000 
     67 C          -0.6360  -22.7635  -46.0131 C.2       11 UNK         0.5000 
     68 O          -1.0299  -22.8970  -47.1731 O.2       11 UNK        -0.5000 
     69 N          -1.4600  -22.8777  -44.9587 N.am      12 UNK        -0.5000 
     70 CA         -2.9127  -23.0711  -45.0325 C.3       12 UNK         0.1400 
     71 CB         -3.5151  -23.0090  -43.6227 C.3       12 UNK        -0.1800 
     72 C          -3.3447  -24.3680  -45.7416 C.2       12 UNK         0.5000 
     73 O          -4.4022  -24.3918  -46.3719 O.2       12 UNK        -0.5000 
     74 N          -2.5052  -25.4098  -45.6656 N.am      13 UNK        -0.5000 
     75 CA         -2.6924  -26.6740  -46.3790 C.3       13 UNK         0.1400 
     76 CB         -1.6466  -27.6894  -45.8951 C.3       13 UNK        -0.1800 
     77 C          -2.6214  -26.5072  -47.9089 C.2       13 UNK         0.5000 
     78 O          -3.3756  -27.1639  -48.6265 O.2       13 UNK        -0.5000 
     79 N          -1.7454  -25.6065  -48.3770 N.am      14 UNK        -0.5000 
     80 CA         -1.6317  -25.2347  -49.7848 C.3       14 UNK         0.1400 
     81 CB         -0.2538  -24.6147  -50.0505 C.3       14 UNK        -0.1800 
     82 C          -2.7529  -24.2680  -50.1959 C.2       14 UNK         0.5000 
     83 O          -3.2592  -24.3785  -51.3137 O.2       14 UNK        -0.5000 
     84 N          -3.1416  -23.3590  -49.2866 N.am      15 UNK        -0.5000 
     85 CA         -4.2481  -22.4104  -49.4576 C.3       15 UNK         0.1400 
     86 CB         -4.3685  -21.5088  -48.2157 C.3       15 UNK        -0.1800 
     87 C          -5.5867  -23.1161  -49.7243 C.2       15 UNK         0.5000 
     88 O          -6.3063  -22.7336  -50.6468 O.2       15 UNK        -0.5000 
     89 N          -5.8622  -24.1585  -48.9290 N.am      16 UNK        -0.5000 
     90 CA         -7.0257  -25.0315  -49.0637 C.3       16 UNK         0.1400 
     91 CB         -7.1167  -25.9298  -47.8207 C.3       16 UNK        -0.1800 
     92 C          -6.9983  -25.8872  -50.3445 C.2       16 UNK         0.5000 
     93 O          -8.0634  -26.2318  -50.8582 O.2       16 UNK        -0.5000 
     94 N          -5.7941  -26.2204  -50.8299 N.am      17 UNK        -0.5000 
     95 CA         -5.5833  -26.9989  -52.0455 C.3       17 UNK         0.1400 
     96 CB         -4.1873  -27.6440  -52.0290 C.3       17 UNK        -0.1800 
     97 C          -5.8052  -26.1562  -53.3125 C.2       17 UNK         0.5000 
     98 O          -6.6938  -26.4881  -54.0992 O.2       17 UNK        -0.5000 
     99 N          -5.0003  -25.0984  -53.4996 N.am      18 UNK        -0.5000 
    100 CA        -4.9985  -24.2925  -54.7276 C.3       18 UNK         0.1400 
    101 CB        -4.4429  -25.1263  -55.9050 C.3       18 UNK        -0.1800 
    102 C         -4.2203  -22.9649  -54.6419 C.2       18 UNK         0.5000 
    103 O         -4.3561  -22.1553  -55.5604 O.2       18 UNK        -0.5000 
    104 N         -3.3907  -22.7519  -53.6085 N.am      19 UNK        -0.5000 
    105 CA        -2.4292  -21.6410  -53.5667 C.3       19 UNK         0.1400 
    106 CB        -1.3668  -21.9090  -52.4900 C.3       19 UNK        -0.1800 
    107 C         -3.0498  -20.2471  -53.3626 C.2       19 UNK         0.5000 
    108 O         -2.3774  -19.2586  -53.6489 O.2       19 UNK        -0.5000 
    109 N         -4.2895  -20.1826  -52.8554 N.am      20 UNK        -0.5000 
    110 CA        -5.0540  -18.9533  -52.6314 C.3       20 UNK         0.1400 
    111 CB        -6.3362  -19.3097  -51.8618 C.3       20 UNK        -0.1800 
    112 C         -5.3771  -18.2362  -53.9636 C.2       20 UNK         0.5000 
    113 O         -6.1901  -18.7607  -54.7249 O.2       20 UNK        -0.5000 
    114 N         -4.7862  -17.0770  -54.2859 N.am      21 UNK        -0.5000 
    115 CA        -3.7085  -16.3513  -53.6113 C.3       21 UNK         0.1400 
    116 CB        -4.3069  -15.1952  -52.7942 C.3       21 UNK        -0.1800 
    117 C         -2.7324  -15.8364  -54.6818 C.2       21 UNK         0.5000 
    118 O         -3.1148  -15.7223  -55.8503 O.2       21 UNK        -0.5000 
    119 N         -1.4938  -15.5366  -54.2713 N.am      22 UNK        -0.5000 
    120 CA        -0.3963  -15.1378  -55.1746 C.3       22 UNK         0.1400 
    121 C         -0.4974  -13.6873  -55.7351 C.2       22 UNK         0.5000 
    122 N         -1.3897  -12.8390  -55.2387 N.am      22 UNK        -0.7600 
    123 O          0.2467  -13.3263  -56.6429 O.2       22 UNK        -0.5000 
    124 C124        1.0064  -15.3840  -54.5550 C.3       23 UNK        -0.0398 
    125 S125        1.2259  -17.0761  -53.8958 S.3       23 UNK        -0.2404 
    126 C126        1.5396  -16.7246  -52.1379 C.3       23 UNK        -0.0205 
    127 H127       -3.7797  -14.7280  -45.1389 H         1 UNK         0.0600 
    128 H128       -4.1745  -13.0169  -45.2994 H         1 UNK         0.0600 
    129 H129       -2.5069  -13.5103  -44.9868 H         1 UNK         0.0600 
    130 H130       -3.3782  -15.8526  -47.0541 H         1 UNK         0.3000 
    131 H131       -3.4087  -14.5205  -49.5967 H         1 UNK         0.0600 
    132 H132       -4.5040  -16.6572  -49.4140 H         1 UNK         0.0800 
    133 H133       -3.1967  -16.7969  -50.5421 H         1 UNK         0.0800 
    134 H134       -2.7748  -19.0561  -50.7517 H         1 UNK         0.0800 
    135 H135       -2.3764  -20.2318  -49.5464 H         1 UNK         0.0800 
    136 H136       -0.9954  -17.3567  -51.4440 H         1 UNK         0.1150 
    137 H137        3.0550  -18.6089  -50.8477 H         1 UNK         0.1150 
    138 H138       -0.1696  -20.6881  -48.9111 H         1 UNK         0.1150 
    139 H139        3.2885  -21.0293  -49.9844 H         1 UNK         0.0800 
    140 H140        3.2532  -20.1029  -48.5055 H         1 UNK         0.0800 
    141 H141        0.8073  -20.5999  -46.8801 H         1 UNK         0.0800 
    142 H142        2.3835  -21.0198  -46.2894 H         1 UNK         0.0800 
    143 H143        1.3848  -23.4216  -45.8756 H         1 UNK         0.0600 
    144 H144        1.1634  -21.0311  -44.2262 H         1 UNK         0.3000 
    145 H145        1.3849  -22.8137  -41.1557 H         1 UNK         0.0600 
    146 H146        3.2765  -20.8900  -42.6130 H         1 UNK         0.0600 
    147 H147        3.2150  -21.1614  -40.8737 H         1 UNK         0.0600 
    148 H148        3.7219  -22.4570  -41.9479 H         1 UNK         0.0600 
    149 H149        1.0859  -20.0332  -41.8189 H         1 UNK         0.3000 
    150 H150       -2.5074  -20.0182  -41.7307 H         1 UNK         0.0600 
    151 H151       -1.7456  -19.8501  -39.3594 H         1 UNK         0.0600 
    152 H152       -2.0461  -18.2624  -40.0493 H         1 UNK         0.0600 
    153 H153       -0.3928  -18.8391  -39.8524 H         1 UNK         0.0600 
    154 H154       -0.6028  -17.9354  -42.1580 H         1 UNK         0.3000 
    155 H155       -0.3612  -18.2933  -45.7118 H         1 UNK         0.0600 
    156 H156       -1.0405  -15.8833  -45.5418 H         1 UNK         0.0600 
    157 H157       -2.4170  -16.9732  -45.3964 H         1 UNK         0.0600 
    158 H158       -1.7542  -16.1983  -43.9644 H         1 UNK         0.0600 
    159 H159        0.7997  -16.3845  -43.9719 H         1 UNK         0.3000 
    160 H160        3.7253  -18.2764  -43.0950 H         1 UNK         0.0600 
    161 H161        4.1455  -17.2249  -45.3142 H         1 UNK         0.0600 
    162 H162        4.7559  -16.2195  -44.0095 H         1 UNK         0.0600 
    163 H163        3.2578  -15.7896  -44.8284 H         1 UNK         0.0600 
    164 H164        2.7162  -15.6635  -42.4003 H         1 UNK         0.3000 
    165 H165        1.0557  -16.6527  -39.4087 H         1 UNK         0.0600 
    166 H166        2.6150  -14.9811  -38.4469 H         1 UNK         0.0600 
    167 H167        3.4671  -16.4817  -38.7734 H         1 UNK         0.0600 
    168 H168        3.6695  -15.1086  -39.8551 H         1 UNK         0.0600 
    169 H169        1.5409  -14.1106  -40.6409 H         1 UNK         0.3000 
    170 H170       -1.3023  -14.0812  -42.7809 H         1 UNK         0.0600 
    171 H171       -2.2365  -13.4857  -40.5428 H         1 UNK         0.0600 
    172 H172       -0.7837  -12.5668  -40.1666 H         1 UNK         0.0600 
    173 H173       -1.8472  -12.0499  -41.4758 H         1 UNK         0.0600 
    174 H174        0.6202  -12.0803  -42.1612 H         1 UNK         0.3000 
    175 H175        1.9772  -11.4286  -43.9595 H         1 UNK         0.0600 
    176 H176        3.9758  -13.6316  -43.1458 H         1 UNK         0.0600 
    177 H177        4.3757  -11.9348  -43.3970 H         1 UNK         0.0600 
    178 H178        3.3296  -12.3994  -42.0664 H         1 UNK         0.0600 
    179 H179        2.4734  -13.7043  -45.6859 H         1 UNK         0.3000 
    180 H180        3.0609  -11.6624  -48.4137 H         1 UNK         0.0600 
    181 H181        5.3638  -13.3709  -47.3265 H         1 UNK         0.0600 
    182 H182        5.4808  -11.6772  -47.7874 H         1 UNK         0.0600 
    183 H183        5.1358  -12.8895  -49.0089 H         1 UNK         0.0600 
    184 H184        3.3520  -14.4782  -48.2134 H         1 UNK         0.3000 
    185 H185        1.2541  -15.4853  -49.4982 H         1 UNK         0.0600 
    186 H186        1.1275  -17.3157  -47.7293 H         1 UNK         0.0600 
    187 H187        2.6332  -16.4218  -47.6980 H         1 UNK         0.0600 
    188 H188        1.3912  -16.0790  -46.5005 H         1 UNK         0.0600 
    189 H189       -0.8857  -15.6050  -47.4774 H         1 UNK         0.3000 
    190 H190       -1.0734  -22.7344  -44.0368 H         1 UNK         0.3000 
    191 H191       -3.3186  -22.2353  -45.6031 H         1 UNK         0.0600 
    192 H192       -3.0788  -23.7608  -42.9640 H         1 UNK         0.0600 
    193 H193       -4.5927  -23.1763  -43.6474 H         1 UNK         0.0600 
    194 H194       -3.3535  -22.0297  -43.1728 H         1 UNK         0.0600 
    195 H195       -1.6598  -25.3069  -45.1235 H         1 UNK         0.3000 
    196 H196       -3.6845  -27.0582  -46.1324 H         1 UNK         0.0600 
    197 H197       -1.7732  -28.6490  -46.3980 H         1 UNK         0.0600 
    198 H198       -1.7387  -27.8703  -44.8240 H         1 UNK         0.0600 
    199 H199       -0.6300  -27.3468  -46.0921 H         1 UNK         0.0600 
    200 H200       -1.2112  -25.0520  -47.7212 H         1 UNK         0.3000 
    201 H201       -1.7160  -26.1377  -50.3926 H         1 UNK         0.0600 
    202 H202        0.5483  -25.2363  -49.6526 H         1 UNK         0.0600 
    203 H203       -0.1654  -23.6242  -49.6052 H         1 UNK         0.0600 
    204 H204       -0.0782  -24.5071  -51.1207 H         1 UNK         0.0600 
    205 H205       -2.6224  -23.3050  -48.4171 H         1 UNK         0.3000 
    206 H206       -4.0133  -21.7878  -50.3222 H         1 UNK         0.0600 
    207 H207       -3.3959  -21.2053  -47.8298 H         1 UNK         0.0600 
    208 H208       -4.9251  -20.6020  -48.4545 H         1 UNK         0.0600 
    209 H209       -4.8983  -22.0003  -47.4001 H         1 UNK         0.0600 
    210 H210       -5.2315  -24.3590  -48.1577 H         1 UNK         0.3000 
    211 H211       -7.9182  -24.4036  -49.1021 H         1 UNK         0.0600 
    212 H212       -6.2333  -26.5617  -47.7178 H         1 UNK         0.0600 
    213 H213       -7.9873  -26.5848  -47.8726 H         1 UNK         0.0600 
    214 H214       -7.2095  -25.3359  -46.9112 H         1 UNK         0.0600 
    215 H215       -4.9691  -25.8889  -50.3510 H         1 UNK         0.3000 
    216 H216       -6.3114  -27.8130  -52.0588 H         1 UNK         0.0600 
    217 H217       -4.0391  -28.2674  -52.9115 H         1 UNK         0.0600 
    218 H218       -4.0607  -28.2837  -51.1554 H         1 UNK         0.0600 
    219 H219       -3.3888  -26.9039  -52.0178 H         1 UNK         0.0600 
    220 H220       -4.3295  -24.8609  -52.7745 H         1 UNK         0.3000 
    221 H221       -6.0320  -24.0206  -54.9520 H         1 UNK         0.0600 
    222 H222       -3.4365  -25.4892  -55.6934 H         1 UNK         0.0600 
    223 H223       -5.0690  -25.9899  -56.1264 H         1 UNK         0.0600 
    224 H224       -4.3920  -24.5371  -56.8217 H         1 UNK         0.0600 
    225 H225       -3.3276  -23.4242  -52.8495 H         1 UNK         0.3000 
    226 H226       -1.9144  -21.6169  -54.5298 H         1 UNK         0.0600 
    227 H227       -0.8921  -22.8781  -52.6374 H         1 UNK         0.0600 
    228 H228       -0.5787  -21.1551  -52.5240 H         1 UNK         0.0600 
    229 H229       -1.7902  -21.8815  -51.4872 H         1 UNK         0.0600 
    230 H230       -4.7786  -21.0509  -52.6950 H         1 UNK         0.3000 
    231 H231       -4.4881  -18.2977  -51.9764 H         1 UNK         0.0600 
    232 H232       -6.9442  -18.4217  -51.6845 H         1 UNK         0.0600 
    233 H233       -6.1034  -19.7431  -50.8887 H         1 UNK         0.0600 
    234 H234       -6.9512  -20.0271  -52.4067 H         1 UNK         0.0600 
    235 H235       -4.9827  -16.6926  -55.2008 H         1 UNK         0.3000 
    236 H236       -3.1340  -16.9955  -52.9502 H         1 UNK         0.0600 
    237 H237       -5.0008  -15.5623  -52.0380 H         1 UNK         0.0600 
    238 H238       -4.8487  -14.4937  -53.4299 H         1 UNK         0.0600 
    239 H239       -3.5271  -14.6350  -52.2766 H         1 UNK         0.0600 
    240 H240       -1.2494  -15.6342  -53.2967 H         1 UNK         0.3000 
    241 H241       -0.4638  -15.7870  -56.0501 H         1 UNK         0.0600 
    242 H242       -1.4488  -11.9048  -55.6127 H         1 UNK         0.3800 
    243 H243       -2.0087  -13.1229  -54.4969 H         1 UNK         0.3800 
    244 H244        1.7797  -15.2293  -55.3095 H         1 UNK         0.0800 
    245 H245        1.2069  -14.6490  -53.7742 H         1 UNK         0.0800 
    246 H246        2.6019  -16.5212  -51.9951 H         1 UNK         0.0800 
    247 H247        1.0107  -15.8191  -51.8411 H         1 UNK         0.0800 
@<TRIPOS>BOND
     1    1    2 1    
     2    1  127 1    
     3    1  128 1    
     4    1  129 1    
     5    2    3 2    
     6    2    4 am   BACKBONE|DICT|INTERRES
     7    4    5 1    
     8    4  130 1    
     9    5    6 1    
    10    5   65 1    
    11    5  131 1    
    12    6    7 1    
    13    6  132 1    
    14    6  133 1    
    15    7    8 1    
    16    8    9 1    
    17    8  134 1    
    18    8  135 1    
    19    9   10 ar   
    20    9   14 ar   
    21   10   11 ar   
    22   10  136 1    
    23   11   12 ar   
    24   11  126 1    
    25   12   13 ar   
    26   12  137 1    
    27   13   14 ar   
    28   13   15 1    
    29   14  138 1    
    30   15   16 1    
    31   15  139 1    
    32   15  140 1    
    33   16   17 1    
    34   17   18 1    
    35   17  141 1    
    36   17  142 1    
    37   18   19 1    
    38   18   67 1    
    39   18  143 1    
    40   19   20 am   BACKBONE|DICT|INTERRES
    41   19  144 1    
    42   20   21 2    
    43   20   22 1    
    44   22   23 1    
    45   22   24 1    
    46   22  145 1    
    47   23  146 1    
    48   23  147 1    
    49   23  148 1    
    50   24   25 am   BACKBONE|DICT|INTERRES
    51   24  149 1    
    52   25   26 2    
    53   25   27 1    
    54   27   28 1    
    55   27   29 1    
    56   27  150 1    
    57   28  151 1    
    58   28  152 1    
    59   28  153 1    
    60   29   30 am   BACKBONE|DICT|INTERRES
    61   29  154 1    
    62   30   31 2    
    63   30   32 1    
    64   32   33 1    
    65   32   34 1    
    66   32  155 1    
    67   33  156 1    
    68   33  157 1    
    69   33  158 1    
    70   34   35 am   BACKBONE|DICT|INTERRES
    71   34  159 1    
    72   35   36 2    
    73   35   37 1    
    74   37   38 1    
    75   37   39 1    
    76   37  160 1    
    77   38  161 1    
    78   38  162 1    
    79   38  163 1    
    80   39   40 am   BACKBONE|DICT|INTERRES
    81   39  164 1    
    82   40   41 2    
    83   40   42 1    
    84   42   43 1    
    85   42   44 1    
    86   42  165 1    
    87   43  166 1    
    88   43  167 1    
    89   43  168 1    
    90   44   45 am   BACKBONE|DICT|INTERRES
    91   44  169 1    
    92   45   46 2    
    93   45   47 1    
    94   47   48 1    
    95   47   49 1    
    96   47  170 1    
    97   48  171 1    
    98   48  172 1    
    99   48  173 1    
   100   49   50 am   BACKBONE|DICT|INTERRES
   101   49  174 1    
   102   50   51 2    
   103   50   52 1    
   104   52   53 1    
   105   52   54 1    
   106   52  175 1    
   107   53  176 1    
   108   53  177 1    
   109   53  178 1    
   110   54   55 am   BACKBONE|DICT|INTERRES
   111   54  179 1    
   112   55   56 2    
   113   55   57 1    
   114   57   58 1    
   115   57   59 1    
   116   57  180 1    
   117   58  181 1    
   118   58  182 1    
   119   58  183 1    
   120   59   60 am   BACKBONE|DICT|INTERRES
   121   59  184 1    
   122   60   61 2    
   123   60   62 1    
   124   62   63 1    
   125   62   64 1    
   126   62  185 1    
   127   63  186 1    
   128   63  187 1    
   129   63  188 1    
   130   64   65 am   BACKBONE|DICT|INTERRES
   131   64  189 1    
   132   65   66 2    
   133   67   68 2    
   134   67   69 am   BACKBONE|DICT|INTERRES
   135   69   70 1    
   136   69  190 1    
   137   70   71 1    
   138   70   72 1    
   139   70  191 1    
   140   71  192 1    
   141   71  193 1    
   142   71  194 1    
   143   72   73 2    
   144   72   74 am   BACKBONE|DICT|INTERRES
   145   74   75 1    
   146   74  195 1    
   147   75   76 1    
   148   75   77 1    
   149   75  196 1    
   150   76  197 1    
   151   76  198 1    
   152   76  199 1    
   153   77   78 2    
   154   77   79 am   BACKBONE|DICT|INTERRES
   155   79   80 1    
   156   79  200 1    
   157   80   81 1    
   158   80   82 1    
   159   80  201 1    
   160   81  202 1    
   161   81  203 1    
   162   81  204 1    
   163   82   83 2    
   164   82   84 am   BACKBONE|DICT|INTERRES
   165   84   85 1    
   166   84  205 1    
   167   85   86 1    
   168   85   87 1    
   169   85  206 1    
   170   86  207 1    
   171   86  208 1    
   172   86  209 1    
   173   87   88 2    
   174   87   89 am   BACKBONE|DICT|INTERRES
   175   89   90 1    
   176   89  210 1    
   177   90   91 1    
   178   90   92 1    
   179   90  211 1    
   180   91  212 1    
   181   91  213 1    
   182   91  214 1    
   183   92   93 2    
   184   92   94 am   BACKBONE|DICT|INTERRES
   185   94   95 1    
   186   94  215 1    
   187   95   96 1    
   188   95   97 1    
   189   95  216 1    
   190   96  217 1    
   191   96  218 1    
   192   96  219 1    
   193   97   98 2    
   194   97   99 am   BACKBONE|DICT|INTERRES
   195   99  100 1    
   196   99  220 1    
   197  100  101 1    
   198  100  102 1    
   199  100  221 1    
   200  101  222 1    
   201  101  223 1    
   202  101  224 1    
   203  102  103 2    
   204  102  104 am   BACKBONE|DICT|INTERRES
   205  104  105 1    
   206  104  225 1    
   207  105  106 1    
   208  105  107 1    
   209  105  226 1    
   210  106  227 1    
   211  106  228 1    
   212  106  229 1    
   213  107  108 2    
   214  107  109 am   BACKBONE|DICT|INTERRES
   215  109  110 1    
   216  109  230 1    
   217  110  111 1    
   218  110  112 1    
   219  110  231 1    
   220  111  232 1    
   221  111  233 1    
   222  111  234 1    
   223  112  113 2    
   224  112  114 am   BACKBONE|DICT|INTERRES
   225  114  115 1    
   226  114  235 1    
   227  115  116 1    
   228  115  117 1    
   229  115  236 1    
   230  116  237 1    
   231  116  238 1    
   232  116  239 1    
   233  117  118 2    
   234  117  119 am   BACKBONE|DICT|INTERRES
   235  119  120 1    
   236  119  240 1    
   237  120  121 1    
   238  120  124 1    
   239  120  241 1    
   240  121  122 am   BACKBONE|DICT|INTERRES
   241  121  123 2    
   242  122  242 1    
   243  122  243 1    
   244  124  125 1    
   245  124  244 1    
   246  124  245 1    
   247  125  126 1    
   248  126  246 1    
   249  126  247 1    
@<TRIPOS>SUBSTRUCTURE
     1 UNK         1 GROUP             0       ****    0 ROOT    
