@<TRIPOS>MOLECULE
3R540
247   249    1
SMALL
USER_CHARGES


@<TRIPOS>ATOM
      1 CA         -3.9547  -12.2177  -51.8522 C.3       0 UNK        -0.1800 
      2 C          -2.4588  -12.1363  -51.5893 C.2       0 UNK         0.5000 
      3 O          -1.7423  -11.4705  -52.3383 O.2       0 UNK        -0.5000 
      4 N          -1.9863  -12.7989  -50.5263 N.am      1 UNK        -0.5000 
      5 CA         -0.5932  -12.7524  -50.0697 C.3       1 UNK         0.1400 
      6 C6         -0.2955  -13.8124  -48.9808 C.3       23 UNK        -0.0398 
      7 S7         -0.4359  -15.5109  -49.6151 S.3       23 UNK        -0.2404 
      8 C8          0.0288  -16.4586  -48.1342 C.3       23 UNK        -0.0205 
      9 C9         -0.3204  -17.9250  -48.3158 C.ar      23 UNK        -0.0193 
     10 C10        -1.6432  -18.3407  -48.1594 C.ar      23 UNK        -0.1150 
     11 C11        -2.0050  -19.6685  -48.3924 C.ar      23 UNK        -0.0193 
     12 C12        -1.0205  -20.5970  -48.7436 C.ar      23 UNK        -0.1150 
     13 C13         0.3131  -20.1982  -48.8808 C.ar      23 UNK        -0.0193 
     14 C14         0.6569  -18.8588  -48.6700 C.ar      23 UNK        -0.1150 
     15 C15         1.3803  -21.2027  -49.2888 C.3       23 UNK        -0.0205 
     16 S16         2.3790  -21.7521  -47.8716 S.3       23 UNK        -0.2404 
     17 C17         1.1932  -22.8199  -46.9902 C.3       23 UNK        -0.0398 
     18 CA          1.8857  -23.6551  -45.8869 C.3       11 UNK         0.1400 
     19 N           2.3735  -22.8255  -44.7765 N.am      11 UNK        -0.5000 
     20 C           3.1934  -23.2579  -43.8066 C.2       10 UNK         0.5000 
     21 O           3.7233  -24.3699  -43.8047 O.2       10 UNK        -0.5000 
     22 CA          3.4366  -22.3078  -42.6194 C.3       10 UNK         0.1400 
     23 CB          4.5493  -21.2985  -42.9407 C.3       10 UNK        -0.1800 
     24 N           2.2217  -21.6010  -42.2080 N.am      10 UNK        -0.5000 
     25 C           1.1653  -22.1832  -41.6208 C.2       9 UNK         0.5000 
     26 O           1.1317  -23.3706  -41.2995 O.2       9 UNK        -0.5000 
     27 CA         -0.0777  -21.3059  -41.3737 C.3       9 UNK         0.1400 
     28 CB          0.0381  -20.5596  -40.0368 C.3       9 UNK        -0.1800 
     29 N          -0.3237  -20.3463  -42.4501 N.am      9 UNK        -0.5000 
     30 C          -0.6451  -20.6762  -43.7091 C.2       8 UNK         0.5000 
     31 O          -0.8243  -21.8333  -44.0881 O.2       8 UNK        -0.5000 
     32 CA         -0.7197  -19.5223  -44.7251 C.3       8 UNK         0.1400 
     33 CB         -2.0882  -18.8260  -44.6667 C.3       8 UNK        -0.1800 
     34 N           0.3476  -18.5414  -44.5174 N.am      8 UNK        -0.5000 
     35 C           1.6511  -18.8056  -44.6876 C.2       7 UNK         0.5000 
     36 O           2.0817  -19.8934  -45.0659 O.2       7 UNK        -0.5000 
     37 CA          2.6404  -17.6910  -44.3066 C.3       7 UNK         0.1400 
     38 CB          2.7564  -16.6525  -45.4310 C.3       7 UNK        -0.1800 
     39 N           2.2659  -17.0303  -43.0550 N.am      7 UNK        -0.5000 
     40 C           2.3359  -17.6177  -41.8497 C.2       6 UNK         0.5000 
     41 O           2.7833  -18.7499  -41.6748 O.2       6 UNK        -0.5000 
     42 CA          1.7753  -16.8407  -40.6399 C.3       6 UNK         0.1400 
     43 CB          2.8795  -15.9972  -39.9861 C.3       6 UNK        -0.1800 
     44 N           0.6492  -15.9714  -40.9790 N.am      6 UNK        -0.5000 
     45 C          -0.5001  -16.3742  -41.5382 C.2       5 UNK         0.5000 
     46 O          -0.7933  -17.5583  -41.7009 O.2       5 UNK        -0.5000 
     47 CA         -1.4554  -15.2792  -42.0604 C.3       5 UNK         0.1400 
     48 CB         -2.6673  -15.1395  -41.1273 C.3       5 UNK        -0.1800 
     49 N          -0.8438  -13.9556  -42.2501 N.am      5 UNK        -0.5000 
     50 C           0.2124  -13.6754  -43.0279 C.2       4 UNK         0.5000 
     51 O           0.8342  -14.5308  -43.6635 O.2       4 UNK        -0.5000 
     52 CA          0.6834  -12.2063  -43.0226 C.3       4 UNK         0.1400 
     53 CB          1.2502  -11.8264  -41.6434 C.3       4 UNK        -0.1800 
     54 N           1.7141  -11.9402  -44.0262 N.am      4 UNK        -0.5000 
     55 C           1.5163  -11.9246  -45.3488 C.2       3 UNK         0.5000 
     56 O           0.4156  -12.0823  -45.8837 O.2       3 UNK        -0.5000 
     57 CA          2.7796  -11.7313  -46.2090 C.3       3 UNK         0.1400 
     58 CB          3.5249  -13.0659  -46.3693 C.3       3 UNK        -0.1800 
     59 N           2.4540  -11.2196  -47.5371 N.am      3 UNK        -0.5000 
     60 C           2.0745   -9.9644  -47.8141 C.2       2 UNK         0.5000 
     61 O           2.0809   -9.0467  -46.9925 O.2       2 UNK        -0.5000 
     62 CA          1.5941   -9.7005  -49.2554 C.3       2 UNK         0.1400 
     63 CB          2.7601   -9.2284  -50.1376 C.3       2 UNK        -0.1800 
     64 N           0.9892  -10.8949  -49.8523 N.am      2 UNK        -0.5000 
     65 C          -0.2311  -11.3507  -49.5381 C.2       1 UNK         0.5000 
     66 O          -1.0315  -10.7359  -48.8285 O.2       1 UNK        -0.5000 
     67 C           0.9580  -24.7858  -45.3899 C.2       11 UNK         0.5000 
     68 O           1.0018  -25.8862  -45.9414 O.2       11 UNK        -0.5000 
     69 N           0.1703  -24.4971  -44.3426 N.am      12 UNK        -0.5000 
     70 CA         -0.7232  -25.3995  -43.6117 C.3       12 UNK         0.1400 
     71 CB          0.0862  -26.4851  -42.8715 C.3       12 UNK        -0.1800 
     72 C          -1.8420  -25.9761  -44.5011 C.2       12 UNK         0.5000 
     73 O          -2.1531  -27.1664  -44.4197 O.2       12 UNK        -0.5000 
     74 N          -2.4225  -25.1163  -45.3441 N.am      13 UNK        -0.5000 
     75 CA         -3.4746  -25.4541  -46.2935 C.3       13 UNK         0.1400 
     76 CB         -2.8398  -25.9617  -47.6004 C.3       13 UNK        -0.1800 
     77 C          -4.3503  -24.2208  -46.5453 C.2       13 UNK         0.5000 
     78 O          -3.9031  -23.0913  -46.3345 O.2       13 UNK        -0.5000 
     79 N          -5.5774  -24.4666  -47.0181 N.am      14 UNK        -0.5000 
     80 CA         -6.5601  -23.4430  -47.3883 C.3       14 UNK         0.1400 
     81 CB         -7.9685  -24.0308  -47.1971 C.3       14 UNK        -0.1800 
     82 C          -6.3766  -22.9180  -48.8289 C.2       14 UNK         0.5000 
     83 O          -7.1383  -22.0494  -49.2553 O.2       14 UNK        -0.5000 
     84 N          -5.3920  -23.4590  -49.5535 N.am      15 UNK        -0.5000 
     85 CA         -4.9936  -23.0646  -50.8972 C.3       15 UNK         0.1400 
     86 CB         -5.5207  -24.1015  -51.9023 C.3       15 UNK        -0.1800 
     87 C          -3.4621  -22.9981  -50.9421 C.2       15 UNK         0.5000 
     88 O          -2.7900  -23.6735  -50.1572 O.2       15 UNK        -0.5000 
     89 N          -2.9336  -22.2228  -51.8912 N.am      16 UNK        -0.5000 
     90 CA         -1.5164  -22.1484  -52.2226 C.3       16 UNK         0.1400 
     91 CB         -1.2296  -20.7880  -52.8776 C.3       16 UNK        -0.1800 
     92 C          -1.1811  -23.3370  -53.1368 C.2       16 UNK         0.5000 
     93 O          -1.1931  -23.2025  -54.3633 O.2       16 UNK        -0.5000 
     94 N          -1.0150  -24.5108  -52.5108 N.am      17 UNK        -0.5000 
     95 CA         -0.8616  -25.8578  -53.0794 C.3       17 UNK         0.1400 
     96 CB          0.3739  -25.9547  -53.9946 C.3       17 UNK        -0.1800 
     97 C          -2.1295  -26.3788  -53.7871 C.2       17 UNK         0.5000 
     98 O          -2.5433  -27.5114  -53.5371 O.2       17 UNK        -0.5000 
     99 N          -2.7313  -25.5366  -54.6303 N.am      18 UNK        -0.5000 
    100 CA        -3.9779  -25.7756  -55.3524 C.3       18 UNK         0.1400 
    101 CB        -3.7170  -26.6690  -56.5788 C.3       18 UNK        -0.1800 
    102 C         -4.6647  -24.4629  -55.7706 C.2       18 UNK         0.5000 
    103 O         -5.8792  -24.4687  -55.9749 O.2       18 UNK        -0.5000 
    104 N         -3.9036  -23.3654  -55.9011 N.am      19 UNK        -0.5000 
    105 CA        -4.4199  -22.0560  -56.2951 C.3       19 UNK         0.1400 
    106 CB        -3.2614  -21.2191  -56.8594 C.3       19 UNK        -0.1800 
    107 C         -5.0647  -21.3246  -55.1075 C.2       19 UNK         0.5000 
    108 O         -4.5515  -21.3955  -53.9898 O.2       19 UNK        -0.5000 
    109 N         -6.1234  -20.5534  -55.3764 N.am      20 UNK        -0.5000 
    110 CA        -6.7985  -19.6826  -54.4071 C.3       20 UNK         0.1400 
    111 CB        -8.2732  -19.5320  -54.8217 C.3       20 UNK        -0.1800 
    112 C         -6.0825  -18.3196  -54.2564 C.2       20 UNK         0.5000 
    113 O         -6.7355  -17.2789  -54.1663 O.2       20 UNK        -0.5000 
    114 N         -4.7439  -18.3458  -54.2510 N.am      21 UNK        -0.5000 
    115 CA        -3.8647  -17.1747  -54.2214 C.3       21 UNK         0.1400 
    116 CB        -2.5208  -17.5613  -54.8610 C.3       21 UNK        -0.1800 
    117 C         -3.6527  -16.5913  -52.8096 C.2       21 UNK         0.5000 
    118 O         -2.9576  -15.5838  -52.6812 O.2       21 UNK        -0.5000 
    119 N         -4.2305  -17.2343  -51.7859 N.am      22 UNK        -0.5000 
    120 CA        -4.1249  -16.8682  -50.3645 C.3       22 UNK         0.1400 
    121 C         -4.6198  -15.4318  -50.0312 C.2       22 UNK         0.5000 
    122 N         -5.6847  -14.9557  -50.6657 N.am      22 UNK        -0.7600 
    123 O         -4.0324  -14.7444  -49.2002 O.2       22 UNK        -0.5000 
    124 C124       -4.8553  -17.8895  -49.4518 C.3       23 UNK        -0.0398 
    125 S125       -4.4029  -19.6308  -49.7703 S.3       23 UNK        -0.2404 
    126 C126       -3.4599  -20.0924  -48.2820 C.3       23 UNK        -0.0205 
    127 H127       -4.3108  -11.3014  -52.3233 H         1 UNK         0.0600 
    128 H128       -4.5080  -12.3524  -50.9233 H         1 UNK         0.0600 
    129 H129       -4.1767  -13.0535  -52.5156 H         1 UNK         0.0600 
    130 H130       -2.6196  -13.3556  -49.9622 H         1 UNK         0.3000 
    131 H131        0.0416  -12.9635  -50.9332 H         1 UNK         0.0600 
    132 H132        0.7150  -13.6920  -48.5859 H         1 UNK         0.0800 
    133 H133       -0.9728  -13.6927  -48.1325 H         1 UNK         0.0800 
    134 H134        1.0963  -16.3354  -47.9489 H         1 UNK         0.0800 
    135 H135       -0.4913  -16.0645  -47.2595 H         1 UNK         0.0800 
    136 H136       -2.3959  -17.6165  -47.8854 H         1 UNK         0.1150 
    137 H137       -1.2960  -21.6274  -48.9197 H         1 UNK         0.1150 
    138 H138        1.6838  -18.5441  -48.7917 H         1 UNK         0.1150 
    139 H139        0.9348  -22.0695  -49.7780 H         1 UNK         0.0800 
    140 H140        2.0406  -20.7449  -50.0267 H         1 UNK         0.0800 
    141 H141        0.4000  -22.2005  -46.5686 H         1 UNK         0.0800 
    142 H142        0.7200  -23.4726  -47.7264 H         1 UNK         0.0800 
    143 H143        2.7545  -24.1434  -46.3339 H         1 UNK         0.0600 
    144 H144        2.0559  -21.8608  -44.7561 H         1 UNK         0.3000 
    145 H145        3.7716  -22.9144  -41.7753 H         1 UNK         0.0600 
    146 H146        4.7757  -20.6736  -42.0767 H         1 UNK         0.0600 
    147 H147        4.2761  -20.6419  -43.7662 H         1 UNK         0.0600 
    148 H148        5.4704  -21.8107  -43.2212 H         1 UNK         0.0600 
    149 H149        2.2010  -20.6010  -42.3738 H         1 UNK         0.3000 
    150 H150       -0.9445  -21.9677  -41.3178 H         1 UNK         0.0600 
    151 H151        0.1354  -21.2611  -39.2074 H         1 UNK         0.0600 
    152 H152       -0.8443  -19.9484  -39.8461 H         1 UNK         0.0600 
    153 H153        0.9099  -19.9067  -40.0157 H         1 UNK         0.0600 
    154 H154       -0.2584  -19.3610  -42.2115 H         1 UNK         0.3000 
    155 H155       -0.5936  -19.9457  -45.7236 H         1 UNK         0.0600 
    156 H156       -2.8842  -19.5209  -44.9367 H         1 UNK         0.0600 
    157 H157       -2.1381  -17.9874  -45.3603 H         1 UNK         0.0600 
    158 H158       -2.3115  -18.4463  -43.6699 H         1 UNK         0.0600 
    159 H159        0.0781  -17.6406  -44.1520 H         1 UNK         0.3000 
    160 H160        3.6222  -18.1496  -44.1708 H         1 UNK         0.0600 
    161 H161        1.8160  -16.1256  -45.5935 H         1 UNK         0.0600 
    162 H162        3.0368  -17.1261  -46.3728 H         1 UNK         0.0600 
    163 H163        3.5203  -15.9111  -45.1992 H         1 UNK         0.0600 
    164 H164        1.8531  -16.1051  -43.1367 H         1 UNK         0.3000 
    165 H165        1.4223  -17.5701  -39.9090 H         1 UNK         0.0600 
    166 H166        2.5188  -15.5060  -39.0822 H         1 UNK         0.0600 
    167 H167        3.7281  -16.6200  -39.6997 H         1 UNK         0.0600 
    168 H168        3.2510  -15.2265  -40.6629 H         1 UNK         0.0600 
    169 H169        0.8027  -14.9791  -40.8856 H         1 UNK         0.3000 
    170 H170       -1.8132  -15.6135  -43.0362 H         1 UNK         0.0600 
    171 H171       -3.1673  -16.0991  -40.9879 H         1 UNK         0.0600 
    172 H172       -2.3751  -14.7754  -40.1415 H         1 UNK         0.0600 
    173 H173       -3.4045  -14.4489  -41.5371 H         1 UNK         0.0600 
    174 H174       -1.2816  -13.1973  -41.7467 H         1 UNK         0.3000 
    175 H175       -0.1792  -11.5725  -43.2381 H         1 UNK         0.0600 
    176 H176        2.1033  -12.4505  -41.3729 H         1 UNK         0.0600 
    177 H177        1.5781  -10.7867  -41.6255 H         1 UNK         0.0600 
    178 H178        0.5012  -11.9365  -40.8584 H         1 UNK         0.0600 
    179 H179        2.6557  -11.8423  -43.6767 H         1 UNK         0.3000 
    180 H180        3.4384  -11.0161  -45.7118 H         1 UNK         0.0600 
    181 H181        3.8323  -13.4599  -45.4000 H         1 UNK         0.0600 
    182 H182        4.4269  -12.9465  -46.9698 H         1 UNK         0.0600 
    183 H183        2.8998  -13.8218  -46.8467 H         1 UNK         0.0600 
    184 H184        2.3978  -11.9032  -48.2749 H         1 UNK         0.3000 
    185 H185        0.8476   -8.9039  -49.2209 H         1 UNK         0.0600 
    186 H186        3.2170   -8.3262  -49.7288 H         1 UNK         0.0600 
    187 H187        3.5414   -9.9856  -50.2149 H         1 UNK         0.0600 
    188 H188        2.4205   -8.9912  -51.1460 H         1 UNK         0.0600 
    189 H189        1.5751  -11.4337  -50.4743 H         1 UNK         0.3000 
    190 H190        0.1406  -23.5294  -44.0361 H         1 UNK         0.3000 
    191 H191       -1.2181  -24.7874  -42.8564 H         1 UNK         0.0600 
    192 H192       -0.5573  -27.0749  -42.2178 H         1 UNK         0.0600 
    193 H193        0.8611  -26.0400  -42.2471 H         1 UNK         0.0600 
    194 H194        0.5698  -27.1744  -43.5642 H         1 UNK         0.0600 
    195 H195       -2.1644  -24.1368  -45.3244 H         1 UNK         0.3000 
    196 H196       -4.1107  -26.2352  -45.8712 H         1 UNK         0.0600 
    197 H197       -2.1592  -25.2229  -48.0253 H         1 UNK         0.0600 
    198 H198       -2.2714  -26.8766  -47.4326 H         1 UNK         0.0600 
    199 H199       -3.5972  -26.1845  -48.3526 H         1 UNK         0.0600 
    200 H200       -5.8608  -25.4247  -47.1680 H         1 UNK         0.3000 
    201 H201       -6.4560  -22.5872  -46.7178 H         1 UNK         0.0600 
    202 H202       -8.7375  -23.2867  -47.4089 H         1 UNK         0.0600 
    203 H203       -8.1199  -24.3664  -46.1710 H         1 UNK         0.0600 
    204 H204       -8.1431  -24.8803  -47.8585 H         1 UNK         0.0600 
    205 H205       -4.7588  -24.1064  -49.1049 H         1 UNK         0.3000 
    206 H206       -5.3953  -22.0807  -51.1473 H         1 UNK         0.0600 
    207 H207       -6.6079  -24.1702  -51.8634 H         1 UNK         0.0600 
    208 H208       -5.2505  -23.8275  -52.9216 H         1 UNK         0.0600 
    209 H209       -5.1132  -25.0949  -51.7099 H         1 UNK         0.0600 
    210 H210       -3.5625  -21.7822  -52.5615 H         1 UNK         0.3000 
    211 H211       -0.9159  -22.2223  -51.3150 H         1 UNK         0.0600 
    212 H212       -1.8180  -20.6462  -53.7839 H         1 UNK         0.0600 
    213 H213       -0.1771  -20.6994  -53.1486 H         1 UNK         0.0600 
    214 H214       -1.4625  -19.9694  -52.1956 H         1 UNK         0.0600 
    215 H215       -1.1445  -24.4979  -51.5060 H         1 UNK         0.3000 
    216 H216       -0.6869  -26.5166  -52.2272 H         1 UNK         0.0600 
    217 H217        0.5359  -26.9838  -54.3173 H         1 UNK         0.0600 
    218 H218        1.2755  -25.6314  -53.4743 H         1 UNK         0.0600 
    219 H219        0.2694  -25.3472  -54.8938 H         1 UNK         0.0600 
    220 H220       -2.3005  -24.6227  -54.7309 H         1 UNK         0.3000 
    221 H221       -4.6694  -26.2922  -54.6833 H         1 UNK         0.0600 
    222 H222       -4.6360  -26.8424  -57.1401 H         1 UNK         0.0600 
    223 H223       -2.9964  -26.2129  -57.2585 H         1 UNK         0.0600 
    224 H224       -3.3298  -27.6448  -56.2855 H         1 UNK         0.0600 
    225 H225       -2.9175  -23.3948  -55.6828 H         1 UNK         0.3000 
    226 H226       -5.1666  -22.1867  -57.0814 H         1 UNK         0.0600 
    227 H227       -2.8189  -21.6985  -57.7327 H         1 UNK         0.0600 
    228 H228       -3.6046  -20.2315  -57.1708 H         1 UNK         0.0600 
    229 H229       -2.4708  -21.0747  -56.1219 H         1 UNK         0.0600 
    230 H230       -6.4628  -20.5039  -56.3265 H         1 UNK         0.3000 
    231 H231       -6.7804  -20.1603  -53.4250 H         1 UNK         0.0600 
    232 H232       -8.8312  -18.9505  -54.0867 H         1 UNK         0.0600 
    233 H233       -8.7614  -20.5037  -54.8996 H         1 UNK         0.0600 
    234 H234       -8.3711  -19.0286  -55.7842 H         1 UNK         0.0600 
    235 H235       -4.2936  -19.2515  -54.2776 H         1 UNK         0.3000 
    236 H236       -4.3131  -16.3869  -54.8302 H         1 UNK         0.0600 
    237 H237       -1.9929  -18.3061  -54.2664 H         1 UNK         0.0600 
    238 H238       -2.6597  -17.9659  -55.8637 H         1 UNK         0.0600 
    239 H239       -1.8663  -16.6934  -54.9509 H         1 UNK         0.0600 
    240 H240       -4.7596  -18.0687  -51.9869 H         1 UNK         0.3000 
    241 H241       -3.0625  -16.8989  -50.1225 H         1 UNK         0.0600 
    242 H242       -6.0214  -14.0323  -50.4473 H         1 UNK         0.3800 
    243 H243       -6.1552  -15.5065  -51.3666 H         1 UNK         0.3800 
    244 H244       -5.9345  -17.8123  -49.5958 H         1 UNK         0.0800 
    245 H245       -4.6828  -17.6546  -48.4007 H         1 UNK         0.0800 
    246 H246       -3.5204  -21.1748  -48.1627 H         1 UNK         0.0800 
    247 H247       -3.9172  -19.6646  -47.3891 H         1 UNK         0.0800 
@<TRIPOS>BOND
     1    1    2 1    
     2    1  127 1    
     3    1  128 1    
     4    1  129 1    
     5    2    3 2    
     6    2    4 am   BACKBONE|DICT|INTERRES
     7    4    5 1    
     8    4  130 1    
     9    5    6 1    
    10    5   65 1    
    11    5  131 1    
    12    6    7 1    
    13    6  132 1    
    14    6  133 1    
    15    7    8 1    
    16    8    9 1    
    17    8  134 1    
    18    8  135 1    
    19    9   10 ar   
    20    9   14 ar   
    21   10   11 ar   
    22   10  136 1    
    23   11   12 ar   
    24   11  126 1    
    25   12   13 ar   
    26   12  137 1    
    27   13   14 ar   
    28   13   15 1    
    29   14  138 1    
    30   15   16 1    
    31   15  139 1    
    32   15  140 1    
    33   16   17 1    
    34   17   18 1    
    35   17  141 1    
    36   17  142 1    
    37   18   19 1    
    38   18   67 1    
    39   18  143 1    
    40   19   20 am   BACKBONE|DICT|INTERRES
    41   19  144 1    
    42   20   21 2    
    43   20   22 1    
    44   22   23 1    
    45   22   24 1    
    46   22  145 1    
    47   23  146 1    
    48   23  147 1    
    49   23  148 1    
    50   24   25 am   BACKBONE|DICT|INTERRES
    51   24  149 1    
    52   25   26 2    
    53   25   27 1    
    54   27   28 1    
    55   27   29 1    
    56   27  150 1    
    57   28  151 1    
    58   28  152 1    
    59   28  153 1    
    60   29   30 am   BACKBONE|DICT|INTERRES
    61   29  154 1    
    62   30   31 2    
    63   30   32 1    
    64   32   33 1    
    65   32   34 1    
    66   32  155 1    
    67   33  156 1    
    68   33  157 1    
    69   33  158 1    
    70   34   35 am   BACKBONE|DICT|INTERRES
    71   34  159 1    
    72   35   36 2    
    73   35   37 1    
    74   37   38 1    
    75   37   39 1    
    76   37  160 1    
    77   38  161 1    
    78   38  162 1    
    79   38  163 1    
    80   39   40 am   BACKBONE|DICT|INTERRES
    81   39  164 1    
    82   40   41 2    
    83   40   42 1    
    84   42   43 1    
    85   42   44 1    
    86   42  165 1    
    87   43  166 1    
    88   43  167 1    
    89   43  168 1    
    90   44   45 am   BACKBONE|DICT|INTERRES
    91   44  169 1    
    92   45   46 2    
    93   45   47 1    
    94   47   48 1    
    95   47   49 1    
    96   47  170 1    
    97   48  171 1    
    98   48  172 1    
    99   48  173 1    
   100   49   50 am   BACKBONE|DICT|INTERRES
   101   49  174 1    
   102   50   51 2    
   103   50   52 1    
   104   52   53 1    
   105   52   54 1    
   106   52  175 1    
   107   53  176 1    
   108   53  177 1    
   109   53  178 1    
   110   54   55 am   BACKBONE|DICT|INTERRES
   111   54  179 1    
   112   55   56 2    
   113   55   57 1    
   114   57   58 1    
   115   57   59 1    
   116   57  180 1    
   117   58  181 1    
   118   58  182 1    
   119   58  183 1    
   120   59   60 am   BACKBONE|DICT|INTERRES
   121   59  184 1    
   122   60   61 2    
   123   60   62 1    
   124   62   63 1    
   125   62   64 1    
   126   62  185 1    
   127   63  186 1    
   128   63  187 1    
   129   63  188 1    
   130   64   65 am   BACKBONE|DICT|INTERRES
   131   64  189 1    
   132   65   66 2    
   133   67   68 2    
   134   67   69 am   BACKBONE|DICT|INTERRES
   135   69   70 1    
   136   69  190 1    
   137   70   71 1    
   138   70   72 1    
   139   70  191 1    
   140   71  192 1    
   141   71  193 1    
   142   71  194 1    
   143   72   73 2    
   144   72   74 am   BACKBONE|DICT|INTERRES
   145   74   75 1    
   146   74  195 1    
   147   75   76 1    
   148   75   77 1    
   149   75  196 1    
   150   76  197 1    
   151   76  198 1    
   152   76  199 1    
   153   77   78 2    
   154   77   79 am   BACKBONE|DICT|INTERRES
   155   79   80 1    
   156   79  200 1    
   157   80   81 1    
   158   80   82 1    
   159   80  201 1    
   160   81  202 1    
   161   81  203 1    
   162   81  204 1    
   163   82   83 2    
   164   82   84 am   BACKBONE|DICT|INTERRES
   165   84   85 1    
   166   84  205 1    
   167   85   86 1    
   168   85   87 1    
   169   85  206 1    
   170   86  207 1    
   171   86  208 1    
   172   86  209 1    
   173   87   88 2    
   174   87   89 am   BACKBONE|DICT|INTERRES
   175   89   90 1    
   176   89  210 1    
   177   90   91 1    
   178   90   92 1    
   179   90  211 1    
   180   91  212 1    
   181   91  213 1    
   182   91  214 1    
   183   92   93 2    
   184   92   94 am   BACKBONE|DICT|INTERRES
   185   94   95 1    
   186   94  215 1    
   187   95   96 1    
   188   95   97 1    
   189   95  216 1    
   190   96  217 1    
   191   96  218 1    
   192   96  219 1    
   193   97   98 2    
   194   97   99 am   BACKBONE|DICT|INTERRES
   195   99  100 1    
   196   99  220 1    
   197  100  101 1    
   198  100  102 1    
   199  100  221 1    
   200  101  222 1    
   201  101  223 1    
   202  101  224 1    
   203  102  103 2    
   204  102  104 am   BACKBONE|DICT|INTERRES
   205  104  105 1    
   206  104  225 1    
   207  105  106 1    
   208  105  107 1    
   209  105  226 1    
   210  106  227 1    
   211  106  228 1    
   212  106  229 1    
   213  107  108 2    
   214  107  109 am   BACKBONE|DICT|INTERRES
   215  109  110 1    
   216  109  230 1    
   217  110  111 1    
   218  110  112 1    
   219  110  231 1    
   220  111  232 1    
   221  111  233 1    
   222  111  234 1    
   223  112  113 2    
   224  112  114 am   BACKBONE|DICT|INTERRES
   225  114  115 1    
   226  114  235 1    
   227  115  116 1    
   228  115  117 1    
   229  115  236 1    
   230  116  237 1    
   231  116  238 1    
   232  116  239 1    
   233  117  118 2    
   234  117  119 am   BACKBONE|DICT|INTERRES
   235  119  120 1    
   236  119  240 1    
   237  120  121 1    
   238  120  124 1    
   239  120  241 1    
   240  121  122 am   BACKBONE|DICT|INTERRES
   241  121  123 2    
   242  122  242 1    
   243  122  243 1    
   244  124  125 1    
   245  124  244 1    
   246  124  245 1    
   247  125  126 1    
   248  126  246 1    
   249  126  247 1    
@<TRIPOS>SUBSTRUCTURE
     1 UNK         1 GROUP             0       ****    0 ROOT    
