@<TRIPOS>MOLECULE
3R540
247   249    1
SMALL
USER_CHARGES


@<TRIPOS>ATOM
      1 CA          4.4929  -11.9041  -50.7129 C.3       0 UNK        -0.1800 
      2 C           3.4604  -12.9580  -50.3409 C.2       0 UNK         0.5000 
      3 O           3.0711  -13.0472  -49.1758 O.2       0 UNK        -0.5000 
      4 N           3.0192  -13.7588  -51.3217 N.am      1 UNK        -0.5000 
      5 CA          2.0727  -14.8694  -51.1667 C.3       1 UNK         0.1400 
      6 C6          0.6554  -14.3779  -50.7532 C.3       23 UNK        -0.0398 
      7 S7         -0.6354  -15.6383  -51.0054 S.3       23 UNK        -0.2404 
      8 C8         -2.0818  -14.7759  -50.3193 C.3       23 UNK        -0.0205 
      9 C9         -3.2248  -15.7505  -50.0957 C.ar      23 UNK        -0.0193 
     10 C10        -4.1404  -16.0177  -51.1184 C.ar      23 UNK        -0.1150 
     11 C11        -5.1551  -16.9621  -50.9305 C.ar      23 UNK        -0.0193 
     12 C12        -5.2626  -17.6204  -49.7036 C.ar      23 UNK        -0.1150 
     13 C13        -4.3465  -17.3675  -48.6799 C.ar      23 UNK        -0.0193 
     14 C14        -3.3351  -16.4247  -48.8766 C.ar      23 UNK        -0.1150 
     15 C15        -4.4041  -18.1755  -47.3967 C.3       23 UNK        -0.0205 
     16 S16        -3.6906  -19.8172  -47.6939 S.3       23 UNK        -0.2404 
     17 C17        -3.8451  -20.6074  -46.0621 C.3       23 UNK        -0.0398 
     18 CA         -2.6420  -21.5431  -45.7908 C.3       11 UNK         0.1400 
     19 N          -2.3323  -21.6791  -44.3683 N.am      11 UNK        -0.5000 
     20 C          -3.0514  -22.2380  -43.3886 C.2       10 UNK         0.5000 
     21 O          -4.1215  -22.8231  -43.5595 O.2       10 UNK        -0.5000 
     22 CA         -2.4737  -22.0839  -41.9703 C.3       10 UNK         0.1400 
     23 CB         -1.1490  -22.8495  -41.8216 C.3       10 UNK        -0.1800 
     24 N          -2.2641  -20.6781  -41.6208 N.am      10 UNK        -0.5000 
     25 C          -3.2518  -19.8030  -41.3820 C.2       9 UNK         0.5000 
     26 O          -4.4463  -20.1027  -41.3746 O.2       9 UNK        -0.5000 
     27 CA         -2.8400  -18.3447  -41.1110 C.3       9 UNK         0.1400 
     28 CB         -2.3731  -18.1694  -39.6578 C.3       9 UNK        -0.1800 
     29 N          -1.7980  -17.8764  -42.0242 N.am      9 UNK        -0.5000 
     30 C          -1.9799  -17.6570  -43.3342 C.2       8 UNK         0.5000 
     31 O          -3.0667  -17.7671  -43.9006 O.2       8 UNK        -0.5000 
     32 CA         -0.7398  -17.2558  -44.1552 C.3       8 UNK         0.1400 
     33 CB         -0.5310  -15.7343  -44.1079 C.3       8 UNK        -0.1800 
     34 N           0.4824  -17.9282  -43.7124 N.am      8 UNK        -0.5000 
     35 C           0.6950  -19.2491  -43.7910 C.2       7 UNK         0.5000 
     36 O          -0.0997  -20.0435  -44.2864 O.2       7 UNK        -0.5000 
     37 CA          1.9913  -19.7860  -43.1678 C.3       7 UNK         0.1400 
     38 CB          3.1743  -19.6264  -44.1331 C.3       7 UNK        -0.1800 
     39 N           2.2862  -19.1423  -41.8896 N.am      7 UNK        -0.5000 
     40 C           1.5589  -19.3209  -40.7772 C.2       6 UNK         0.5000 
     41 O           0.5880  -20.0757  -40.7073 O.2       6 UNK        -0.5000 
     42 CA          1.9596  -18.4777  -39.5535 C.3       6 UNK         0.1400 
     43 CB          3.1109  -19.1459  -38.7874 C.3       6 UNK        -0.1800 
     44 N           2.3454  -17.1137  -39.9202 N.am      6 UNK        -0.5000 
     45 C           1.5002  -16.1989  -40.4162 C.2       5 UNK         0.5000 
     46 O           0.2981  -16.3994  -40.5825 O.2       5 UNK        -0.5000 
     47 CA          2.1110  -14.8522  -40.8430 C.3       5 UNK         0.1400 
     48 CB          2.2169  -13.9004  -39.6423 C.3       5 UNK        -0.1800 
     49 N           3.4266  -14.9911  -41.4743 N.am      5 UNK        -0.5000 
     50 C           3.6467  -15.6298  -42.6305 C.2       4 UNK         0.5000 
     51 O           2.7658  -16.2083  -43.2706 O.2       4 UNK        -0.5000 
     52 CA          5.1002  -15.6723  -43.1258 C.3       4 UNK         0.1400 
     53 CB          5.7774  -16.9855  -42.7057 C.3       4 UNK        -0.1800 
     54 N           5.1515  -15.5498  -44.5800 N.am      4 UNK        -0.5000 
     55 C           5.0727  -14.3942  -45.2471 C.2       3 UNK         0.5000 
     56 O           4.9990  -13.2949  -44.6958 O.2       3 UNK        -0.5000 
     57 CA          5.0867  -14.4655  -46.7854 C.3       3 UNK         0.1400 
     58 CB          6.4665  -14.8895  -47.3247 C.3       3 UNK        -0.1800 
     59 N           4.0096  -15.2719  -47.3703 N.am      3 UNK        -0.5000 
     60 C           3.8014  -16.5965  -47.3005 C.2       2 UNK         0.5000 
     61 O           4.5135  -17.3701  -46.6592 O.2       2 UNK        -0.5000 
     62 CA          2.5977  -17.1626  -48.0867 C.3       2 UNK         0.1400 
     63 CB          1.4502  -17.5245  -47.1342 C.3       2 UNK        -0.1800 
     64 N           2.0827  -16.2454  -49.1058 N.am      2 UNK        -0.5000 
     65 C           2.6966  -15.9616  -50.2625 C.2       1 UNK         0.5000 
     66 O           3.7442  -16.5033  -50.6219 O.2       1 UNK        -0.5000 
     67 C          -2.7578  -22.8730  -46.5653 C.2       11 UNK         0.5000 
     68 O          -2.0168  -23.0751  -47.5284 O.2       11 UNK        -0.5000 
     69 N          -3.6874  -23.7456  -46.1596 N.am      12 UNK        -0.5000 
     70 CA         -4.0770  -24.9625  -46.8748 C.3       12 UNK         0.1400 
     71 CB         -5.2733  -25.6120  -46.1639 C.3       12 UNK        -0.1800 
     72 C          -2.9276  -25.9682  -47.0488 C.2       12 UNK         0.5000 
     73 O          -2.7309  -26.4801  -48.1503 O.2       12 UNK        -0.5000 
     74 N          -2.1781  -26.2051  -45.9664 N.am      13 UNK        -0.5000 
     75 CA         -1.0061  -27.0800  -45.9629 C.3       13 UNK         0.1400 
     76 CB         -0.9124  -27.7833  -44.5997 C.3       13 UNK        -0.1800 
     77 C           0.2915  -26.3063  -46.2519 C.2       13 UNK         0.5000 
     78 O           1.1918  -26.8492  -46.8924 O.2       13 UNK        -0.5000 
     79 N           0.3770  -25.0664  -45.7512 N.am      14 UNK        -0.5000 
     80 CA          1.6043  -24.2702  -45.7425 C.3       14 UNK         0.1400 
     81 CB          1.5125  -23.2315  -44.6171 C.3       14 UNK        -0.1800 
     82 C           1.9093  -23.5771  -47.0805 C.2       14 UNK         0.5000 
     83 O           3.0822  -23.4429  -47.4306 O.2       14 UNK        -0.5000 
     84 N           0.8635  -23.1352  -47.7887 N.am      15 UNK        -0.5000 
     85 CA          0.9622  -22.3510  -49.0215 C.3       15 UNK         0.1400 
     86 CB          0.4949  -20.9132  -48.7252 C.3       15 UNK        -0.1800 
     87 C           0.1512  -22.9770  -50.1699 C.2       15 UNK         0.5000 
     88 O          -0.0268  -22.3249  -51.1988 O.2       15 UNK        -0.5000 
     89 N          -0.3605  -24.2039  -49.9749 N.am      16 UNK        -0.5000 
     90 CA         -1.2350  -24.9518  -50.8905 C.3       16 UNK         0.1400 
     91 CB         -0.4521  -25.3917  -52.1453 C.3       16 UNK        -0.1800 
     92 C          -2.5333  -24.1872  -51.2361 C.2       16 UNK         0.5000 
     93 O          -2.9987  -24.2382  -52.3771 O.2       16 UNK        -0.5000 
     94 N          -3.0490  -23.4241  -50.2579 N.am      17 UNK        -0.5000 
     95 CA         -4.1698  -22.4796  -50.3628 C.3       17 UNK         0.1400 
     96 CB         -5.4923  -23.2314  -50.6200 C.3       17 UNK        -0.1800 
     97 C          -3.9314  -21.3474  -51.3907 C.2       17 UNK         0.5000 
     98 O          -4.8959  -20.7765  -51.9038 O.2       17 UNK        -0.5000 
     99 N          -2.6556  -21.0945  -51.7316 N.am      18 UNK        -0.5000 
    100 CA        -2.1698  -20.2282  -52.8120 C.3       18 UNK         0.1400 
    101 CB        -2.3863  -18.7488  -52.4504 C.3       18 UNK        -0.1800 
    102 C         -2.7640  -20.5959  -54.1904 C.2       18 UNK         0.5000 
    103 O         -2.9780  -19.7138  -55.0232 O.2       18 UNK        -0.5000 
    104 N         -3.0876  -21.8871  -54.3789 N.am      19 UNK        -0.5000 
    105 CA        -3.8017  -22.4691  -55.5219 C.3       19 UNK         0.1400 
    106 CB        -2.9169  -22.4261  -56.7848 C.3       19 UNK        -0.1800 
    107 C         -5.2046  -21.8599  -55.7631 C.2       19 UNK         0.5000 
    108 O         -5.7230  -21.9552  -56.8766 O.2       19 UNK        -0.5000 
    109 N         -5.7844  -21.2307  -54.7263 N.am      20 UNK        -0.5000 
    110 CA        -7.0368  -20.4672  -54.7289 C.3       20 UNK         0.1400 
    111 CB        -8.2453  -21.3918  -54.9814 C.3       20 UNK        -0.1800 
    112 C         -7.0156  -19.2375  -55.6669 C.2       20 UNK         0.5000 
    113 O         -8.0764  -18.7788  -56.0964 O.2       20 UNK        -0.5000 
    114 N         -5.8181  -18.6983  -55.9517 N.am      21 UNK        -0.5000 
    115 CA        -5.5861  -17.5839  -56.8817 C.3       21 UNK         0.1400 
    116 CB        -4.0727  -17.3934  -57.0613 C.3       21 UNK        -0.1800 
    117 C         -6.2499  -16.2520  -56.4732 C.2       21 UNK         0.5000 
    118 O         -6.4495  -15.3844  -57.3243 O.2       21 UNK        -0.5000 
    119 N         -6.5892  -16.1242  -55.1866 N.am      22 UNK        -0.5000 
    120 CA        -7.3713  -15.0261  -54.6050 C.3       22 UNK         0.1400 
    121 C         -8.8911  -15.0556  -54.9546 C.2       22 UNK         0.5000 
    122 N         -9.4271  -16.1231  -55.5380 N.am      22 UNK        -0.7600 
    123 O         -9.5953  -14.0813  -54.7037 O.2       22 UNK        -0.5000 
    124 C124       -7.1189  -14.9097  -53.0772 C.3       23 UNK        -0.0398 
    125 S125       -7.6118  -16.3915  -52.1223 S.3       23 UNK        -0.2404 
    126 C126       -6.0709  -17.3580  -52.0771 C.3       23 UNK        -0.0205 
    127 H127        5.4073  -12.0585  -50.1399 H         1 UNK         0.0600 
    128 H128        4.1108  -10.9088  -50.4860 H         1 UNK         0.0600 
    129 H129        4.7451  -11.9390  -51.7730 H         1 UNK         0.0600 
    130 H130        3.4038  -13.6508  -52.2500 H         1 UNK         0.3000 
    131 H131        1.9863  -15.3174  -52.1580 H         1 UNK         0.0600 
    132 H132        0.3816  -13.5148  -51.3617 H         1 UNK         0.0800 
    133 H133        0.6353  -14.0277  -49.7203 H         1 UNK         0.0800 
    134 H134       -1.8161  -14.2966  -49.3758 H         1 UNK         0.0800 
    135 H135       -2.3882  -13.9787  -50.9982 H         1 UNK         0.0800 
    136 H136       -4.0298  -15.5261  -52.0741 H         1 UNK         0.1150 
    137 H137       -6.0255  -18.3736  -49.5639 H         1 UNK         0.1150 
    138 H138       -2.6098  -16.2439  -48.0957 H         1 UNK         0.1150 
    139 H139       -3.8564  -17.6731  -46.5978 H         1 UNK         0.0800 
    140 H140       -5.4375  -18.2749  -47.0613 H         1 UNK         0.0800 
    141 H141       -4.7991  -21.1327  -45.9924 H         1 UNK         0.0800 
    142 H142       -3.8806  -19.8228  -45.3063 H         1 UNK         0.0800 
    143 H143       -1.7519  -21.0504  -46.1865 H         1 UNK         0.0600 
    144 H144       -1.4771  -21.1910  -44.1070 H         1 UNK         0.3000 
    145 H145       -3.1921  -22.5128  -41.2685 H         1 UNK         0.0600 
    146 H146       -0.8147  -22.8517  -40.7840 H         1 UNK         0.0600 
    147 H147       -1.2557  -23.8896  -42.1321 H         1 UNK         0.0600 
    148 H148       -0.3551  -22.4027  -42.4201 H         1 UNK         0.0600 
    149 H149       -1.3033  -20.3590  -41.5588 H         1 UNK         0.3000 
    150 H150       -3.7223  -17.7180  -41.2572 H         1 UNK         0.0600 
    151 H151       -2.1641  -17.1229  -39.4354 H         1 UNK         0.0600 
    152 H152       -3.1402  -18.5031  -38.9579 H         1 UNK         0.0600 
    153 H153       -1.4686  -18.7418  -39.4515 H         1 UNK         0.0600 
    154 H154       -0.8909  -17.6750  -41.6174 H         1 UNK         0.3000 
    155 H155       -0.9227  -17.5453  -45.1922 H         1 UNK         0.0600 
    156 H156       -0.3715  -15.3832  -43.0883 H         1 UNK         0.0600 
    157 H157       -1.4013  -15.2095  -44.5036 H         1 UNK         0.0600 
    158 H158        0.3312  -15.4298  -44.7006 H         1 UNK         0.0600 
    159 H159        1.2223  -17.3352  -43.3461 H         1 UNK         0.3000 
    160 H160        1.8520  -20.8516  -42.9773 H         1 UNK         0.0600 
    161 H161        3.3589  -18.5808  -44.3789 H         1 UNK         0.0600 
    162 H162        2.9837  -20.1497  -45.0710 H         1 UNK         0.0600 
    163 H163        4.0890  -20.0420  -43.7106 H         1 UNK         0.0600 
    164 H164        3.0351  -18.4671  -41.8790 H         1 UNK         0.3000 
    165 H165        1.0943  -18.4211  -38.8896 H         1 UNK         0.0600 
    166 H166        3.3518  -18.5941  -37.8786 H         1 UNK         0.0600 
    167 H167        2.8432  -20.1604  -38.4890 H         1 UNK         0.0600 
    168 H168        4.0165  -19.2095  -39.3921 H         1 UNK         0.0600 
    169 H169        3.3178  -16.8659  -39.8129 H         1 UNK         0.3000 
    170 H170        1.4364  -14.4023  -41.5744 H         1 UNK         0.0600 
    171 H171        1.2453  -13.7657  -39.1647 H         1 UNK         0.0600 
    172 H172        2.9051  -14.2790  -38.8855 H         1 UNK         0.0600 
    173 H173        2.5650  -12.9143  -39.9502 H         1 UNK         0.0600 
    174 H174        4.2014  -14.5477  -41.0019 H         1 UNK         0.3000 
    175 H175        5.6532  -14.8438  -42.6779 H         1 UNK         0.0600 
    176 H176        5.2935  -17.8530  -43.1530 H         1 UNK         0.0600 
    177 H177        6.8251  -16.9988  -43.0069 H         1 UNK         0.0600 
    178 H178        5.7500  -17.1139  -41.6229 H         1 UNK         0.0600 
    179 H179        5.1049  -16.4074  -45.1233 H         1 UNK         0.3000 
    180 H180        4.9082  -13.4492  -47.1400 H         1 UNK         0.0600 
    181 H181        6.7332  -15.9026  -47.0230 H         1 UNK         0.0600 
    182 H182        7.2482  -14.2245  -46.9557 H         1 UNK         0.0600 
    183 H183        6.4909  -14.8473  -48.4137 H         1 UNK         0.0600 
    184 H184        3.3599  -14.7314  -47.9307 H         1 UNK         0.3000 
    185 H185        2.9296  -18.0774  -48.5822 H         1 UNK         0.0600 
    186 H186        0.6007  -17.9452  -47.6728 H         1 UNK         0.0600 
    187 H187        1.7723  -18.2685  -46.4066 H         1 UNK         0.0600 
    188 H188        1.1006  -16.6524  -46.5827 H         1 UNK         0.0600 
    189 H189        1.2167  -15.7747  -48.8891 H         1 UNK         0.3000 
    190 H190       -4.1896  -23.5283  -45.3023 H         1 UNK         0.3000 
    191 H191       -4.4012  -24.6642  -47.8732 H         1 UNK         0.0600 
    192 H192       -6.1290  -24.9370  -46.1388 H         1 UNK         0.0600 
    193 H193       -5.5908  -26.5188  -46.6805 H         1 UNK         0.0600 
    194 H194       -5.0327  -25.8851  -45.1357 H         1 UNK         0.0600 
    195 H195       -2.4261  -25.7547  -45.0981 H         1 UNK         0.3000 
    196 H196       -1.1139  -27.8511  -46.7291 H         1 UNK         0.0600 
    197 H197       -0.0550  -28.4569  -44.5660 H         1 UNK         0.0600 
    198 H198       -1.8022  -28.3823  -44.4047 H         1 UNK         0.0600 
    199 H199       -0.8022  -27.0705  -43.7815 H         1 UNK         0.0600 
    200 H200       -0.4133  -24.6897  -45.2527 H         1 UNK         0.3000 
    201 H201        2.4448  -24.9305  -45.5165 H         1 UNK         0.0600 
    202 H202        1.3901  -23.7111  -43.6460 H         1 UNK         0.0600 
    203 H203        0.6740  -22.5518  -44.7685 H         1 UNK         0.0600 
    204 H204        2.4217  -22.6315  -44.5693 H         1 UNK         0.0600 
    205 H205       -0.0797  -23.2813  -47.4425 H         1 UNK         0.3000 
    206 H206        1.9958  -22.3074  -49.3695 H         1 UNK         0.0600 
    207 H207        1.0612  -20.4785  -47.9016 H         1 UNK         0.0600 
    208 H208        0.6341  -20.2647  -49.5911 H         1 UNK         0.0600 
    209 H209       -0.5620  -20.8797  -48.4581 H         1 UNK         0.0600 
    210 H210       -0.1677  -24.6527  -49.0912 H         1 UNK         0.3000 
    211 H211       -1.5407  -25.8558  -50.3650 H         1 UNK         0.0600 
    212 H212       -0.1633  -24.5409  -52.7632 H         1 UNK         0.0600 
    213 H213       -1.0517  -26.0578  -52.7668 H         1 UNK         0.0600 
    214 H214        0.4546  -25.9324  -51.8742 H         1 UNK         0.0600 
    215 H215       -2.5666  -23.4185  -49.3629 H         1 UNK         0.3000 
    216 H216       -4.2538  -22.0024  -49.3887 H         1 UNK         0.0600 
    217 H217       -6.3465  -22.5588  -50.5348 H         1 UNK         0.0600 
    218 H218       -5.6407  -24.0332  -49.8974 H         1 UNK         0.0600 
    219 H219       -5.5222  -23.6695  -51.6180 H         1 UNK         0.0600 
    220 H220       -1.9269  -21.6415  -51.2859 H         1 UNK         0.3000 
    221 H221       -1.0953  -20.3996  -52.8848 H         1 UNK         0.0600 
    222 H222       -3.4425  -18.4909  -52.4835 H         1 UNK         0.0600 
    223 H223       -2.0160  -18.5228  -51.4502 H         1 UNK         0.0600 
    224 H224       -1.8670  -18.0909  -53.1478 H         1 UNK         0.0600 
    225 H225       -2.9072  -22.5357  -53.6192 H         1 UNK         0.3000 
    226 H226       -3.9687  -23.5170  -55.2690 H         1 UNK         0.0600 
    227 H227       -1.9370  -22.8639  -56.5946 H         1 UNK         0.0600 
    228 H228       -3.3689  -22.9909  -57.6009 H         1 UNK         0.0600 
    229 H229       -2.7660  -21.4056  -57.1385 H         1 UNK         0.0600 
    230 H230       -5.2788  -21.2005  -53.8460 H         1 UNK         0.3000 
    231 H231       -7.1405  -20.0672  -53.7196 H         1 UNK         0.0600 
    232 H232       -8.2570  -21.7757  -56.0018 H         1 UNK         0.0600 
    233 H233       -9.1844  -20.8606  -54.8228 H         1 UNK         0.0600 
    234 H234       -8.2382  -22.2437  -54.3015 H         1 UNK         0.0600 
    235 H235       -4.9863  -19.1324  -55.5659 H         1 UNK         0.3000 
    236 H236       -6.0099  -17.8699  -57.8463 H         1 UNK         0.0600 
    237 H237       -3.6035  -18.3012  -57.4415 H         1 UNK         0.0600 
    238 H238       -3.8577  -16.5951  -57.7727 H         1 UNK         0.0600 
    239 H239       -3.5871  -17.1352  -56.1192 H         1 UNK         0.0600 
    240 H240       -6.4142  -16.9071  -54.5775 H         1 UNK         0.3000 
    241 H241       -6.9964  -14.1034  -55.0520 H         1 UNK         0.0600 
    242 H242       -8.8718  -16.9465  -55.7442 H         1 UNK         0.3800 
    243 H243      -10.4095  -16.1206  -55.7616 H         1 UNK         0.3800 
    244 H244       -6.0663  -14.6960  -52.8943 H         1 UNK         0.0800 
    245 H245       -7.6583  -14.0522  -52.6718 H         1 UNK         0.0800 
    246 H246       -5.5329  -17.2782  -53.0206 H         1 UNK         0.0800 
    247 H247       -6.3327  -18.4125  -51.9775 H         1 UNK         0.0800 
@<TRIPOS>BOND
     1    1    2 1    
     2    1  127 1    
     3    1  128 1    
     4    1  129 1    
     5    2    3 2    
     6    2    4 am   BACKBONE|DICT|INTERRES
     7    4    5 1    
     8    4  130 1    
     9    5    6 1    
    10    5   65 1    
    11    5  131 1    
    12    6    7 1    
    13    6  132 1    
    14    6  133 1    
    15    7    8 1    
    16    8    9 1    
    17    8  134 1    
    18    8  135 1    
    19    9   10 ar   
    20    9   14 ar   
    21   10   11 ar   
    22   10  136 1    
    23   11   12 ar   
    24   11  126 1    
    25   12   13 ar   
    26   12  137 1    
    27   13   14 ar   
    28   13   15 1    
    29   14  138 1    
    30   15   16 1    
    31   15  139 1    
    32   15  140 1    
    33   16   17 1    
    34   17   18 1    
    35   17  141 1    
    36   17  142 1    
    37   18   19 1    
    38   18   67 1    
    39   18  143 1    
    40   19   20 am   BACKBONE|DICT|INTERRES
    41   19  144 1    
    42   20   21 2    
    43   20   22 1    
    44   22   23 1    
    45   22   24 1    
    46   22  145 1    
    47   23  146 1    
    48   23  147 1    
    49   23  148 1    
    50   24   25 am   BACKBONE|DICT|INTERRES
    51   24  149 1    
    52   25   26 2    
    53   25   27 1    
    54   27   28 1    
    55   27   29 1    
    56   27  150 1    
    57   28  151 1    
    58   28  152 1    
    59   28  153 1    
    60   29   30 am   BACKBONE|DICT|INTERRES
    61   29  154 1    
    62   30   31 2    
    63   30   32 1    
    64   32   33 1    
    65   32   34 1    
    66   32  155 1    
    67   33  156 1    
    68   33  157 1    
    69   33  158 1    
    70   34   35 am   BACKBONE|DICT|INTERRES
    71   34  159 1    
    72   35   36 2    
    73   35   37 1    
    74   37   38 1    
    75   37   39 1    
    76   37  160 1    
    77   38  161 1    
    78   38  162 1    
    79   38  163 1    
    80   39   40 am   BACKBONE|DICT|INTERRES
    81   39  164 1    
    82   40   41 2    
    83   40   42 1    
    84   42   43 1    
    85   42   44 1    
    86   42  165 1    
    87   43  166 1    
    88   43  167 1    
    89   43  168 1    
    90   44   45 am   BACKBONE|DICT|INTERRES
    91   44  169 1    
    92   45   46 2    
    93   45   47 1    
    94   47   48 1    
    95   47   49 1    
    96   47  170 1    
    97   48  171 1    
    98   48  172 1    
    99   48  173 1    
   100   49   50 am   BACKBONE|DICT|INTERRES
   101   49  174 1    
   102   50   51 2    
   103   50   52 1    
   104   52   53 1    
   105   52   54 1    
   106   52  175 1    
   107   53  176 1    
   108   53  177 1    
   109   53  178 1    
   110   54   55 am   BACKBONE|DICT|INTERRES
   111   54  179 1    
   112   55   56 2    
   113   55   57 1    
   114   57   58 1    
   115   57   59 1    
   116   57  180 1    
   117   58  181 1    
   118   58  182 1    
   119   58  183 1    
   120   59   60 am   BACKBONE|DICT|INTERRES
   121   59  184 1    
   122   60   61 2    
   123   60   62 1    
   124   62   63 1    
   125   62   64 1    
   126   62  185 1    
   127   63  186 1    
   128   63  187 1    
   129   63  188 1    
   130   64   65 am   BACKBONE|DICT|INTERRES
   131   64  189 1    
   132   65   66 2    
   133   67   68 2    
   134   67   69 am   BACKBONE|DICT|INTERRES
   135   69   70 1    
   136   69  190 1    
   137   70   71 1    
   138   70   72 1    
   139   70  191 1    
   140   71  192 1    
   141   71  193 1    
   142   71  194 1    
   143   72   73 2    
   144   72   74 am   BACKBONE|DICT|INTERRES
   145   74   75 1    
   146   74  195 1    
   147   75   76 1    
   148   75   77 1    
   149   75  196 1    
   150   76  197 1    
   151   76  198 1    
   152   76  199 1    
   153   77   78 2    
   154   77   79 am   BACKBONE|DICT|INTERRES
   155   79   80 1    
   156   79  200 1    
   157   80   81 1    
   158   80   82 1    
   159   80  201 1    
   160   81  202 1    
   161   81  203 1    
   162   81  204 1    
   163   82   83 2    
   164   82   84 am   BACKBONE|DICT|INTERRES
   165   84   85 1    
   166   84  205 1    
   167   85   86 1    
   168   85   87 1    
   169   85  206 1    
   170   86  207 1    
   171   86  208 1    
   172   86  209 1    
   173   87   88 2    
   174   87   89 am   BACKBONE|DICT|INTERRES
   175   89   90 1    
   176   89  210 1    
   177   90   91 1    
   178   90   92 1    
   179   90  211 1    
   180   91  212 1    
   181   91  213 1    
   182   91  214 1    
   183   92   93 2    
   184   92   94 am   BACKBONE|DICT|INTERRES
   185   94   95 1    
   186   94  215 1    
   187   95   96 1    
   188   95   97 1    
   189   95  216 1    
   190   96  217 1    
   191   96  218 1    
   192   96  219 1    
   193   97   98 2    
   194   97   99 am   BACKBONE|DICT|INTERRES
   195   99  100 1    
   196   99  220 1    
   197  100  101 1    
   198  100  102 1    
   199  100  221 1    
   200  101  222 1    
   201  101  223 1    
   202  101  224 1    
   203  102  103 2    
   204  102  104 am   BACKBONE|DICT|INTERRES
   205  104  105 1    
   206  104  225 1    
   207  105  106 1    
   208  105  107 1    
   209  105  226 1    
   210  106  227 1    
   211  106  228 1    
   212  106  229 1    
   213  107  108 2    
   214  107  109 am   BACKBONE|DICT|INTERRES
   215  109  110 1    
   216  109  230 1    
   217  110  111 1    
   218  110  112 1    
   219  110  231 1    
   220  111  232 1    
   221  111  233 1    
   222  111  234 1    
   223  112  113 2    
   224  112  114 am   BACKBONE|DICT|INTERRES
   225  114  115 1    
   226  114  235 1    
   227  115  116 1    
   228  115  117 1    
   229  115  236 1    
   230  116  237 1    
   231  116  238 1    
   232  116  239 1    
   233  117  118 2    
   234  117  119 am   BACKBONE|DICT|INTERRES
   235  119  120 1    
   236  119  240 1    
   237  120  121 1    
   238  120  124 1    
   239  120  241 1    
   240  121  122 am   BACKBONE|DICT|INTERRES
   241  121  123 2    
   242  122  242 1    
   243  122  243 1    
   244  124  125 1    
   245  124  244 1    
   246  124  245 1    
   247  125  126 1    
   248  126  246 1    
   249  126  247 1    
@<TRIPOS>SUBSTRUCTURE
     1 UNK         1 GROUP             0       ****    0 ROOT    
