@<TRIPOS>MOLECULE
3R540
247   249    1
SMALL
USER_CHARGES


@<TRIPOS>ATOM
      1 CA         -1.3214  -14.2874  -45.9319 C.3       0 UNK        -0.1800 
      2 C          -1.2180  -12.7746  -45.9495 C.2       0 UNK         0.5000 
      3 O          -1.3362  -12.1454  -44.8997 O.2       0 UNK        -0.5000 
      4 N          -0.9523  -12.1865  -47.1221 N.am      1 UNK        -0.5000 
      5 CA         -0.7410  -10.7437  -47.3041 C.3       1 UNK         0.1400 
      6 C6         -0.7910  -10.3296  -48.7954 C.3       23 UNK        -0.0398 
      7 S7          0.3882  -11.2204  -49.8760 S.3       23 UNK        -0.2404 
      8 C8         -0.7209  -12.0718  -51.0449 C.3       23 UNK        -0.0205 
      9 C9         -1.1798  -13.4244  -50.5197 C.ar      23 UNK        -0.0193 
     10 C10        -0.4393  -14.5719  -50.8119 C.ar      23 UNK        -0.1150 
     11 C11        -0.8574  -15.8252  -50.3584 C.ar      23 UNK        -0.0193 
     12 C12        -2.0185  -15.9186  -49.5844 C.ar      23 UNK        -0.1150 
     13 C13        -2.7842  -14.7814  -49.2925 C.ar      23 UNK        -0.0193 
     14 C14        -2.3518  -13.5380  -49.7672 C.ar      23 UNK        -0.1150 
     15 C15        -4.0628  -14.8374  -48.4520 C.3       23 UNK        -0.0205 
     16 S16        -5.0161  -16.3916  -48.5558 S.3       23 UNK        -0.2404 
     17 C17        -4.1730  -17.4377  -47.3197 C.3       23 UNK        -0.0398 
     18 CA         -4.1499  -18.9355  -47.7421 C.3       11 UNK         0.1400 
     19 N          -2.8204  -19.5330  -47.5660 N.am      11 UNK        -0.5000 
     20 C          -2.4399  -20.7092  -48.0824 C.2       10 UNK         0.5000 
     21 O          -3.1543  -21.4037  -48.8014 O.2       10 UNK        -0.5000 
     22 CA         -1.0520  -21.2337  -47.6744 C.3       10 UNK         0.1400 
     23 CB          0.0457  -20.5975  -48.5362 C.3       10 UNK        -0.1800 
     24 N          -0.7531  -21.0245  -46.2563 N.am      10 UNK        -0.5000 
     25 C          -1.4499  -21.5437  -45.2332 C.2       9 UNK         0.5000 
     26 O          -2.4279  -22.2798  -45.3688 O.2       9 UNK        -0.5000 
     27 CA         -0.9985  -21.1433  -43.8202 C.3       9 UNK         0.1400 
     28 CB          0.1579  -22.0344  -43.3425 C.3       9 UNK        -0.1800 
     29 N          -0.5977  -19.7378  -43.7729 N.am      9 UNK        -0.5000 
     30 C          -1.4639  -18.7152  -43.7381 C.2       8 UNK         0.5000 
     31 O          -2.6837  -18.8554  -43.6535 O.2       8 UNK        -0.5000 
     32 CA         -0.8753  -17.2972  -43.8541 C.3       8 UNK         0.1400 
     33 CB         -0.4945  -16.7469  -42.4729 C.3       8 UNK        -0.1800 
     34 N           0.2893  -17.2268  -44.7383 N.am      8 UNK        -0.5000 
     35 C           0.2507  -17.4502  -46.0614 C.2       7 UNK         0.5000 
     36 O          -0.7811  -17.7127  -46.6753 O.2       7 UNK        -0.5000 
     37 CA          1.5908  -17.4151  -46.8228 C.3       7 UNK         0.1400 
     38 CB          1.8702  -15.9916  -47.3307 C.3       7 UNK        -0.1800 
     39 N           2.7281  -17.8723  -46.0246 N.am      7 UNK        -0.5000 
     40 C           2.8094  -19.0296  -45.3507 C.2       6 UNK         0.5000 
     41 O           1.9676  -19.9251  -45.4358 O.2       6 UNK        -0.5000 
     42 CA          3.9870  -19.1847  -44.3642 C.3       6 UNK         0.1400 
     43 CB          5.0100  -20.1932  -44.9073 C.3       6 UNK        -0.1800 
     44 N           4.6793  -17.9295  -44.0384 N.am      6 UNK        -0.5000 
     45 C           4.1286  -16.8468  -43.4688 C.2       5 UNK         0.5000 
     46 O           2.9430  -16.7779  -43.1326 O.2       5 UNK        -0.5000 
     47 CA          5.0475  -15.6154  -43.3643 C.3       5 UNK         0.1400 
     48 CB          5.3060  -15.0295  -44.7621 C.3       5 UNK        -0.1800 
     49 N           4.4842  -14.5631  -42.5201 N.am      5 UNK        -0.5000 
     50 C           4.4846  -14.5758  -41.1818 C.2       4 UNK         0.5000 
     51 O           4.9595  -15.4918  -40.5084 O.2       4 UNK        -0.5000 
     52 CA          3.8918  -13.3457  -40.4696 C.3       4 UNK         0.1400 
     53 CB          5.0177  -12.4260  -39.9711 C.3       4 UNK        -0.1800 
     54 N           2.9930  -12.5599  -41.3177 N.am      4 UNK        -0.5000 
     55 C           1.6865  -12.7963  -41.4717 C.2       3 UNK         0.5000 
     56 O           1.1044  -13.7534  -40.9616 O.2       3 UNK        -0.5000 
     57 CA          0.8821  -11.7827  -42.3095 C.3       3 UNK         0.1400 
     58 CB          0.7119  -10.4483  -41.5583 C.3       3 UNK        -0.1800 
     59 N           1.3732  -11.5629  -43.6761 N.am      3 UNK        -0.5000 
     60 C           2.5295  -11.0248  -44.0954 C.2       2 UNK         0.5000 
     61 O           3.4272  -10.6580  -43.3360 O.2       2 UNK        -0.5000 
     62 CA          2.7337  -10.8782  -45.6196 C.3       2 UNK         0.1400 
     63 CB          3.8153  -11.8477  -46.1175 C.3       2 UNK        -0.1800 
     64 N           1.5145  -11.1170  -46.3937 N.am      2 UNK        -0.5000 
     65 C           0.5334  -10.2258  -46.5944 C.2       1 UNK         0.5000 
     66 O           0.5862   -9.0560  -46.2129 O.2       1 UNK        -0.5000 
     67 C          -5.2674  -19.7219  -47.0127 C.2       11 UNK         0.5000 
     68 O          -6.4438  -19.5253  -47.3201 O.2       11 UNK        -0.5000 
     69 N          -4.8869  -20.5628  -46.0425 N.am      12 UNK        -0.5000 
     70 CA         -5.7718  -21.3394  -45.1853 C.3       12 UNK         0.1400 
     71 CB         -5.4165  -21.0287  -43.7163 C.3       12 UNK        -0.1800 
     72 C          -5.6867  -22.8357  -45.5490 C.2       12 UNK         0.5000 
     73 O          -5.7150  -23.1840  -46.7316 O.2       12 UNK        -0.5000 
     74 N          -5.6193  -23.6967  -44.5247 N.am      13 UNK        -0.5000 
     75 CA         -5.7634  -25.1524  -44.5926 C.3       13 UNK         0.1400 
     76 CB         -5.7470  -25.7121  -43.1614 C.3       13 UNK        -0.1800 
     77 C          -4.7372  -25.8975  -45.4670 C.2       13 UNK         0.5000 
     78 O          -5.0365  -27.0091  -45.9059 O.2       13 UNK        -0.5000 
     79 N          -3.5602  -25.3028  -45.7131 N.am      14 UNK        -0.5000 
     80 CA         -2.5363  -25.8940  -46.5797 C.3       14 UNK         0.1400 
     81 CB         -1.1676  -25.2701  -46.2700 C.3       14 UNK        -0.1800 
     82 C          -2.8694  -25.7607  -48.0785 C.2       14 UNK         0.5000 
     83 O          -2.2904  -26.4902  -48.8851 O.2       14 UNK        -0.5000 
     84 N          -3.7655  -24.8235  -48.4331 N.am      15 UNK        -0.5000 
     85 CA         -4.2758  -24.5397  -49.7819 C.3       15 UNK         0.1400 
     86 CB         -5.2171  -25.6706  -50.2416 C.3       15 UNK        -0.1800 
     87 C          -3.1774  -24.2390  -50.8254 C.2       15 UNK         0.5000 
     88 O          -3.3736  -24.4892  -52.0168 O.2       15 UNK        -0.5000 
     89 N          -2.0383  -23.7172  -50.3512 N.am      16 UNK        -0.5000 
     90 CA         -0.7983  -23.4494  -51.0843 C.3       16 UNK         0.1400 
     91 CB         -1.0155  -22.3275  -52.1193 C.3       16 UNK        -0.1800 
     92 C          -0.1635  -24.7262  -51.6762 C.2       16 UNK         0.5000 
     93 O           0.4405  -24.6720  -52.7466 O.2       16 UNK        -0.5000 
     94 N          -0.3211  -25.8516  -50.9599 N.am      17 UNK        -0.5000 
     95 CA          0.0386  -27.2163  -51.3585 C.3       17 UNK         0.1400 
     96 CB          1.5597  -27.3688  -51.5730 C.3       17 UNK        -0.1800 
     97 C          -0.8103  -27.6889  -52.5558 C.2       17 UNK         0.5000 
     98 O          -0.2779  -28.2385  -53.5217 O.2       17 UNK        -0.5000 
     99 N          -2.1255  -27.4425  -52.4517 N.am      18 UNK        -0.5000 
    100 CA        -3.1652  -27.6922  -53.4541 C.3       18 UNK         0.1400 
    101 CB        -3.3427  -29.2045  -53.7049 C.3       18 UNK        -0.1800 
    102 C         -2.9366  -26.8768  -54.7439 C.2       18 UNK         0.5000 
    103 O         -2.9346  -27.4324  -55.8442 O.2       18 UNK        -0.5000 
    104 N         -2.7549  -25.5626  -54.5726 N.am      19 UNK        -0.5000 
    105 CA        -2.5691  -24.5823  -55.6414 C.3       19 UNK         0.1400 
    106 CB        -1.0931  -24.1549  -55.7153 C.3       19 UNK        -0.1800 
    107 C         -3.5374  -23.4051  -55.4353 C.2       19 UNK         0.5000 
    108 O         -3.1367  -22.2419  -55.5095 O.2       19 UNK        -0.5000 
    109 N         -4.8073  -23.7471  -55.1694 N.am      20 UNK        -0.5000 
    110 CA        -5.9730  -22.8595  -55.0820 C.3       20 UNK         0.1400 
    111 CB        -6.3103  -22.2922  -56.4772 C.3       20 UNK        -0.1800 
    112 C         -5.8622  -21.7560  -54.0084 C.2       20 UNK         0.5000 
    113 O         -6.4153  -20.6701  -54.1935 O.2       20 UNK        -0.5000 
    114 N         -5.1449  -22.0453  -52.9109 N.am      21 UNK        -0.5000 
    115 CA        -4.9286  -21.1655  -51.7533 C.3       21 UNK         0.1400 
    116 CB        -6.2158  -21.0659  -50.9100 C.3       21 UNK        -0.1800 
    117 C         -4.3397  -19.7898  -52.1302 C.2       21 UNK         0.5000 
    118 O         -4.7900  -18.7609  -51.6255 O.2       21 UNK        -0.5000 
    119 N         -3.3620  -19.8167  -53.0455 N.am      22 UNK        -0.5000 
    120 CA        -2.6817  -18.6566  -53.6480 C.3       22 UNK         0.1400 
    121 C         -3.5227  -17.9077  -54.7271 C.2       22 UNK         0.5000 
    122 N         -4.7190  -18.3575  -55.0895 N.am      22 UNK        -0.7600 
    123 O         -3.0669  -16.9088  -55.2773 O.2       22 UNK        -0.5000 
    124 C124       -2.0600  -17.6655  -52.6191 C.3       23 UNK        -0.0398 
    125 S125       -1.0453  -18.4638  -51.3258 S.3       23 UNK        -0.2404 
    126 C126       -0.0430  -17.0670  -50.7116 C.3       23 UNK        -0.0205 
    127 H127       -1.1609  -14.7231  -46.9176 H         1 UNK         0.0600 
    128 H128       -2.2998  -14.5985  -45.5676 H         1 UNK         0.0600 
    129 H129       -0.5637  -14.6806  -45.2571 H         1 UNK         0.0600 
    130 H130       -0.8611  -12.7473  -47.9587 H         1 UNK         0.3000 
    131 H131       -1.5769  -10.2414  -46.8122 H         1 UNK         0.0600 
    132 H132       -1.8049  -10.4773  -49.1677 H         1 UNK         0.0800 
    133 H133       -0.6058   -9.2588  -48.8986 H         1 UNK         0.0800 
    134 H134       -1.5783  -11.4418  -51.2860 H         1 UNK         0.0800 
    135 H135       -0.1854  -12.2112  -51.9853 H         1 UNK         0.0800 
    136 H136        0.4624  -14.4872  -51.4022 H         1 UNK         0.1150 
    137 H137       -2.3243  -16.8927  -49.2364 H         1 UNK         0.1150 
    138 H138       -2.9308  -12.6517  -49.5485 H         1 UNK         0.1150 
    139 H139       -3.8218  -14.6284  -47.4105 H         1 UNK         0.0800 
    140 H140       -4.7311  -14.0361  -48.7709 H         1 UNK         0.0800 
    141 H141       -4.6516  -17.2861  -46.3499 H         1 UNK         0.0800 
    142 H142       -3.1642  -17.0534  -47.1831 H         1 UNK         0.0800 
    143 H143       -4.3687  -19.0057  -48.8099 H         1 UNK         0.0600 
    144 H144       -2.1414  -18.9906  -47.0379 H         1 UNK         0.3000 
    145 H145       -1.0363  -22.3087  -47.8545 H         1 UNK         0.0600 
    146 H146       -0.0760  -20.8661  -49.5846 H         1 UNK         0.0600 
    147 H147        0.0075  -19.5117  -48.4868 H         1 UNK         0.0600 
    148 H148        1.0399  -20.9202  -48.2265 H         1 UNK         0.0600 
    149 H149        0.0633  -20.4628  -46.0413 H         1 UNK         0.3000 
    150 H150       -1.8409  -21.2945  -43.1418 H         1 UNK         0.0600 
    151 H151        0.4629  -21.7739  -42.3290 H         1 UNK         0.0600 
    152 H152        1.0325  -21.9504  -43.9879 H         1 UNK         0.0600 
    153 H153       -0.1403  -23.0836  -43.3331 H         1 UNK         0.0600 
    154 H154        0.3850  -19.5418  -43.9078 H         1 UNK         0.3000 
    155 H155       -1.6567  -16.6591  -44.2700 H         1 UNK         0.0600 
    156 H156       -1.3477  -16.7658  -41.7937 H         1 UNK         0.0600 
    157 H157       -0.1571  -15.7126  -42.5424 H         1 UNK         0.0600 
    158 H158        0.3062  -17.3284  -42.0141 H         1 UNK         0.0600 
    159 H159        1.1816  -17.0322  -44.2963 H         1 UNK         0.3000 
    160 H160        1.5134  -18.0779  -47.6835 H         1 UNK         0.0600 
    161 H161        1.0484  -15.6282  -47.9494 H         1 UNK         0.0600 
    162 H162        2.7722  -15.9591  -47.9419 H         1 UNK         0.0600 
    163 H163        1.9957  -15.2871  -46.5074 H         1 UNK         0.0600 
    164 H164        3.4753  -17.2084  -45.8929 H         1 UNK         0.3000 
    165 H165        3.5727  -19.5826  -43.4357 H         1 UNK         0.0600 
    166 H166        5.7993  -20.3860  -44.1805 H         1 UNK         0.0600 
    167 H167        4.5363  -21.1503  -45.1302 H         1 UNK         0.0600 
    168 H168        5.4773  -19.8366  -45.8261 H         1 UNK         0.0600 
    169 H169        5.6547  -17.8901  -44.2983 H         1 UNK         0.3000 
    170 H170        6.0013  -15.9313  -42.9362 H         1 UNK         0.0600 
    171 H171        5.8785  -14.1032  -44.7075 H         1 UNK         0.0600 
    172 H172        5.8771  -15.7220  -45.3814 H         1 UNK         0.0600 
    173 H173        4.3731  -14.8212  -45.2848 H         1 UNK         0.0600 
    174 H174        4.0367  -13.7897  -42.9873 H         1 UNK         0.3000 
    175 H175        3.3400  -13.7058  -39.5985 H         1 UNK         0.0600 
    176 H176        5.6045  -12.0245  -40.7984 H         1 UNK         0.0600 
    177 H177        4.6174  -11.5850  -39.4046 H         1 UNK         0.0600 
    178 H178        5.7015  -12.9637  -39.3128 H         1 UNK         0.0600 
    179 H179        3.3885  -11.7650  -41.8139 H         1 UNK         0.3000 
    180 H180       -0.1150  -12.2097  -42.4278 H         1 UNK         0.0600 
    181 H181        0.0542   -9.7724  -42.1050 H         1 UNK         0.0600 
    182 H182        1.6632   -9.9382  -41.4052 H         1 UNK         0.0600 
    183 H183        0.2675  -10.6094  -40.5754 H         1 UNK         0.0600 
    184 H184        0.6963  -11.8082  -44.3882 H         1 UNK         0.3000 
    185 H185        3.0797   -9.8587  -45.8025 H         1 UNK         0.0600 
    186 H186        3.4829  -12.8820  -46.0422 H         1 UNK         0.0600 
    187 H187        4.0644  -11.6540  -47.1610 H         1 UNK         0.0600 
    188 H188        4.7363  -11.7492  -45.5412 H         1 UNK         0.0600 
    189 H189        1.3893  -12.0468  -46.7658 H         1 UNK         0.3000 
    190 H190       -3.8985  -20.7338  -45.9114 H         1 UNK         0.3000 
    191 H191       -6.8100  -21.0421  -45.3442 H         1 UNK         0.0600 
    192 H192       -4.4098  -21.3633  -43.4622 H         1 UNK         0.0600 
    193 H193       -6.1166  -21.4986  -43.0246 H         1 UNK         0.0600 
    194 H194       -5.4593  -19.9559  -43.5259 H         1 UNK         0.0600 
    195 H195       -5.5660  -23.3080  -43.5946 H         1 UNK         0.3000 
    196 H196       -6.7464  -25.3548  -45.0227 H         1 UNK         0.0600 
    197 H197       -5.8873  -26.7940  -43.1604 H         1 UNK         0.0600 
    198 H198       -6.5485  -25.2837  -42.5592 H         1 UNK         0.0600 
    199 H199       -4.8006  -25.5036  -42.6606 H         1 UNK         0.0600 
    200 H200       -3.3825  -24.3736  -45.3502 H         1 UNK         0.3000 
    201 H201       -2.4672  -26.9610  -46.3568 H         1 UNK         0.0600 
    202 H202       -0.9308  -25.3374  -45.2081 H         1 UNK         0.0600 
    203 H203       -1.1269  -24.2222  -46.5578 H         1 UNK         0.0600 
    204 H204       -0.3747  -25.7855  -46.8134 H         1 UNK         0.0600 
    205 H205       -4.1901  -24.2682  -47.6966 H         1 UNK         0.3000 
    206 H206       -4.8677  -23.6284  -49.6923 H         1 UNK         0.0600 
    207 H207       -5.7085  -25.4179  -51.1820 H         1 UNK         0.0600 
    208 H208       -4.6799  -26.6075  -50.3921 H         1 UNK         0.0600 
    209 H209       -6.0020  -25.8498  -49.5066 H         1 UNK         0.0600 
    210 H210       -2.0254  -23.5053  -49.3647 H         1 UNK         0.3000 
    211 H211       -0.0803  -23.0857  -50.3494 H         1 UNK         0.0600 
    212 H212       -1.7082  -22.6254  -52.9052 H         1 UNK         0.0600 
    213 H213       -0.0778  -22.0413  -52.5966 H         1 UNK         0.0600 
    214 H214       -1.4203  -21.4363  -51.6418 H         1 UNK         0.0600 
    215 H215       -0.8759  -25.8002  -50.1113 H         1 UNK         0.3000 
    216 H216       -0.2357  -27.8584  -50.5201 H         1 UNK         0.0600 
    217 H217        1.8257  -28.4158  -51.7222 H         1 UNK         0.0600 
    218 H218        2.1174  -27.0127  -50.7069 H         1 UNK         0.0600 
    219 H219        1.9090  -26.8193  -52.4472 H         1 UNK         0.0600 
    220 H220       -2.4375  -26.9616  -51.6197 H         1 UNK         0.3000 
    221 H221       -4.0973  -27.3230  -53.0234 H         1 UNK         0.0600 
    222 H222       -2.4650  -29.6468  -54.1768 H         1 UNK         0.0600 
    223 H223       -3.5277  -29.7389  -52.7732 H         1 UNK         0.0600 
    224 H224       -4.1938  -29.3922  -54.3606 H         1 UNK         0.0600 
    225 H225       -2.8249  -25.1814  -53.6303 H         1 UNK         0.3000 
    226 H226       -2.8344  -25.0232  -56.6042 H         1 UNK         0.0600 
    227 H227       -0.4366  -25.0188  -55.8202 H         1 UNK         0.0600 
    228 H228       -0.9183  -23.5052  -56.5735 H         1 UNK         0.0600 
    229 H229       -0.7854  -23.6084  -54.8255 H         1 UNK         0.0600 
    230 H230       -5.0098  -24.7334  -55.0861 H         1 UNK         0.3000 
    231 H231       -6.8094  -23.4881  -54.7736 H         1 UNK         0.0600 
    232 H232       -5.5421  -21.6020  -56.8278 H         1 UNK         0.0600 
    233 H233       -6.4071  -23.0890  -57.2146 H         1 UNK         0.0600 
    234 H234       -7.2565  -21.7499  -56.4644 H         1 UNK         0.0600 
    235 H235       -4.6879  -22.9487  -52.8707 H         1 UNK         0.3000 
    236 H236       -4.1686  -21.6429  -51.1403 H         1 UNK         0.0600 
    237 H237       -7.0100  -20.5451  -51.4456 H         1 UNK         0.0600 
    238 H238       -6.5871  -22.0530  -50.6354 H         1 UNK         0.0600 
    239 H239       -6.0329  -20.5217  -49.9833 H         1 UNK         0.0600 
    240 H240       -3.1154  -20.7102  -53.4485 H         1 UNK         0.3000 
    241 H241       -1.8509  -19.0911  -54.2048 H         1 UNK         0.0600 
    242 H242       -5.2350  -17.8610  -55.7980 H         1 UNK         0.3800 
    243 H243       -5.1367  -19.1690  -54.6476 H         1 UNK         0.3800 
    244 H244       -1.4315  -16.9393  -53.1372 H         1 UNK         0.0800 
    245 H245       -2.8434  -17.0861  -52.1288 H         1 UNK         0.0800 
    246 H246        0.7085  -16.8301  -51.4660 H         1 UNK         0.0800 
    247 H247        0.5019  -17.3916  -49.8257 H         1 UNK         0.0800 
@<TRIPOS>BOND
     1    1    2 1    
     2    1  127 1    
     3    1  128 1    
     4    1  129 1    
     5    2    3 2    
     6    2    4 am   BACKBONE|DICT|INTERRES
     7    4    5 1    
     8    4  130 1    
     9    5    6 1    
    10    5   65 1    
    11    5  131 1    
    12    6    7 1    
    13    6  132 1    
    14    6  133 1    
    15    7    8 1    
    16    8    9 1    
    17    8  134 1    
    18    8  135 1    
    19    9   10 ar   
    20    9   14 ar   
    21   10   11 ar   
    22   10  136 1    
    23   11   12 ar   
    24   11  126 1    
    25   12   13 ar   
    26   12  137 1    
    27   13   14 ar   
    28   13   15 1    
    29   14  138 1    
    30   15   16 1    
    31   15  139 1    
    32   15  140 1    
    33   16   17 1    
    34   17   18 1    
    35   17  141 1    
    36   17  142 1    
    37   18   19 1    
    38   18   67 1    
    39   18  143 1    
    40   19   20 am   BACKBONE|DICT|INTERRES
    41   19  144 1    
    42   20   21 2    
    43   20   22 1    
    44   22   23 1    
    45   22   24 1    
    46   22  145 1    
    47   23  146 1    
    48   23  147 1    
    49   23  148 1    
    50   24   25 am   BACKBONE|DICT|INTERRES
    51   24  149 1    
    52   25   26 2    
    53   25   27 1    
    54   27   28 1    
    55   27   29 1    
    56   27  150 1    
    57   28  151 1    
    58   28  152 1    
    59   28  153 1    
    60   29   30 am   BACKBONE|DICT|INTERRES
    61   29  154 1    
    62   30   31 2    
    63   30   32 1    
    64   32   33 1    
    65   32   34 1    
    66   32  155 1    
    67   33  156 1    
    68   33  157 1    
    69   33  158 1    
    70   34   35 am   BACKBONE|DICT|INTERRES
    71   34  159 1    
    72   35   36 2    
    73   35   37 1    
    74   37   38 1    
    75   37   39 1    
    76   37  160 1    
    77   38  161 1    
    78   38  162 1    
    79   38  163 1    
    80   39   40 am   BACKBONE|DICT|INTERRES
    81   39  164 1    
    82   40   41 2    
    83   40   42 1    
    84   42   43 1    
    85   42   44 1    
    86   42  165 1    
    87   43  166 1    
    88   43  167 1    
    89   43  168 1    
    90   44   45 am   BACKBONE|DICT|INTERRES
    91   44  169 1    
    92   45   46 2    
    93   45   47 1    
    94   47   48 1    
    95   47   49 1    
    96   47  170 1    
    97   48  171 1    
    98   48  172 1    
    99   48  173 1    
   100   49   50 am   BACKBONE|DICT|INTERRES
   101   49  174 1    
   102   50   51 2    
   103   50   52 1    
   104   52   53 1    
   105   52   54 1    
   106   52  175 1    
   107   53  176 1    
   108   53  177 1    
   109   53  178 1    
   110   54   55 am   BACKBONE|DICT|INTERRES
   111   54  179 1    
   112   55   56 2    
   113   55   57 1    
   114   57   58 1    
   115   57   59 1    
   116   57  180 1    
   117   58  181 1    
   118   58  182 1    
   119   58  183 1    
   120   59   60 am   BACKBONE|DICT|INTERRES
   121   59  184 1    
   122   60   61 2    
   123   60   62 1    
   124   62   63 1    
   125   62   64 1    
   126   62  185 1    
   127   63  186 1    
   128   63  187 1    
   129   63  188 1    
   130   64   65 am   BACKBONE|DICT|INTERRES
   131   64  189 1    
   132   65   66 2    
   133   67   68 2    
   134   67   69 am   BACKBONE|DICT|INTERRES
   135   69   70 1    
   136   69  190 1    
   137   70   71 1    
   138   70   72 1    
   139   70  191 1    
   140   71  192 1    
   141   71  193 1    
   142   71  194 1    
   143   72   73 2    
   144   72   74 am   BACKBONE|DICT|INTERRES
   145   74   75 1    
   146   74  195 1    
   147   75   76 1    
   148   75   77 1    
   149   75  196 1    
   150   76  197 1    
   151   76  198 1    
   152   76  199 1    
   153   77   78 2    
   154   77   79 am   BACKBONE|DICT|INTERRES
   155   79   80 1    
   156   79  200 1    
   157   80   81 1    
   158   80   82 1    
   159   80  201 1    
   160   81  202 1    
   161   81  203 1    
   162   81  204 1    
   163   82   83 2    
   164   82   84 am   BACKBONE|DICT|INTERRES
   165   84   85 1    
   166   84  205 1    
   167   85   86 1    
   168   85   87 1    
   169   85  206 1    
   170   86  207 1    
   171   86  208 1    
   172   86  209 1    
   173   87   88 2    
   174   87   89 am   BACKBONE|DICT|INTERRES
   175   89   90 1    
   176   89  210 1    
   177   90   91 1    
   178   90   92 1    
   179   90  211 1    
   180   91  212 1    
   181   91  213 1    
   182   91  214 1    
   183   92   93 2    
   184   92   94 am   BACKBONE|DICT|INTERRES
   185   94   95 1    
   186   94  215 1    
   187   95   96 1    
   188   95   97 1    
   189   95  216 1    
   190   96  217 1    
   191   96  218 1    
   192   96  219 1    
   193   97   98 2    
   194   97   99 am   BACKBONE|DICT|INTERRES
   195   99  100 1    
   196   99  220 1    
   197  100  101 1    
   198  100  102 1    
   199  100  221 1    
   200  101  222 1    
   201  101  223 1    
   202  101  224 1    
   203  102  103 2    
   204  102  104 am   BACKBONE|DICT|INTERRES
   205  104  105 1    
   206  104  225 1    
   207  105  106 1    
   208  105  107 1    
   209  105  226 1    
   210  106  227 1    
   211  106  228 1    
   212  106  229 1    
   213  107  108 2    
   214  107  109 am   BACKBONE|DICT|INTERRES
   215  109  110 1    
   216  109  230 1    
   217  110  111 1    
   218  110  112 1    
   219  110  231 1    
   220  111  232 1    
   221  111  233 1    
   222  111  234 1    
   223  112  113 2    
   224  112  114 am   BACKBONE|DICT|INTERRES
   225  114  115 1    
   226  114  235 1    
   227  115  116 1    
   228  115  117 1    
   229  115  236 1    
   230  116  237 1    
   231  116  238 1    
   232  116  239 1    
   233  117  118 2    
   234  117  119 am   BACKBONE|DICT|INTERRES
   235  119  120 1    
   236  119  240 1    
   237  120  121 1    
   238  120  124 1    
   239  120  241 1    
   240  121  122 am   BACKBONE|DICT|INTERRES
   241  121  123 2    
   242  122  242 1    
   243  122  243 1    
   244  124  125 1    
   245  124  244 1    
   246  124  245 1    
   247  125  126 1    
   248  126  246 1    
   249  126  247 1    
@<TRIPOS>SUBSTRUCTURE
     1 UNK         1 GROUP             0       ****    0 ROOT    
