@<TRIPOS>MOLECULE
3R540
247   249    1
SMALL
USER_CHARGES


@<TRIPOS>ATOM
      1 CA          4.2178  -21.6575  -47.0827 C.3       0 UNK        -0.1800 
      2 C           4.7410  -20.2451  -47.3059 C.2       0 UNK         0.5000 
      3 O           5.9489  -20.0237  -47.2279 O.2       0 UNK        -0.5000 
      4 N           3.8346  -19.2919  -47.5613 N.am      1 UNK        -0.5000 
      5 CA          4.0509  -17.8646  -47.8683 C.3       1 UNK         0.1400 
      6 C6          4.9697  -17.6087  -49.0965 C.3       23 UNK        -0.0398 
      7 S7          4.5196  -18.5360  -50.6041 S.3       23 UNK        -0.2404 
      8 C8          3.8709  -17.2299  -51.6924 C.3       23 UNK        -0.0205 
      9 C9          2.3756  -17.0410  -51.5030 C.ar      23 UNK        -0.0193 
     10 C10         1.4809  -17.8251  -52.2376 C.ar      23 UNK        -0.1150 
     11 C11         0.1032  -17.6697  -52.0738 C.ar      23 UNK        -0.0193 
     12 C12        -0.3766  -16.7082  -51.1824 C.ar      23 UNK        -0.1150 
     13 C13         0.5054  -15.9204  -50.4382 C.ar      23 UNK        -0.0193 
     14 C14         1.8836  -16.0908  -50.6024 C.ar      23 UNK        -0.1150 
     15 C15        -0.0355  -14.8860  -49.4621 C.3       23 UNK        -0.0205 
     16 S16        -0.1534  -15.5353  -47.7646 S.3       23 UNK        -0.2404 
     17 C17        -1.4234  -16.8341  -47.9306 C.3       23 UNK        -0.0398 
     18 CA         -0.7869  -18.2407  -47.8668 C.3       11 UNK         0.1400 
     19 N          -0.2457  -18.5347  -46.5375 N.am      11 UNK        -0.5000 
     20 C           0.5956  -19.5398  -46.2689 C.2       10 UNK         0.5000 
     21 O           1.0841  -20.2654  -47.1335 O.2       10 UNK        -0.5000 
     22 CA          0.9144  -19.8014  -44.7881 C.3       10 UNK         0.1400 
     23 CB          2.1816  -19.0538  -44.3586 C.3       10 UNK        -0.1800 
     24 N          -0.1889  -19.4130  -43.9129 N.am      10 UNK        -0.5000 
     25 C          -1.3490  -20.0749  -43.8056 C.2       9 UNK         0.5000 
     26 O          -1.6191  -21.0630  -44.4887 O.2       9 UNK        -0.5000 
     27 CA         -2.3903  -19.5163  -42.8110 C.3       9 UNK         0.1400 
     28 CB         -3.2405  -20.6235  -42.1559 C.3       9 UNK        -0.1800 
     29 N          -1.8054  -18.6203  -41.8064 N.am      9 UNK        -0.5000 
     30 C          -0.9090  -18.9233  -40.8528 C.2       8 UNK         0.5000 
     31 O          -0.5398  -20.0697  -40.5977 O.2       8 UNK        -0.5000 
     32 CA         -0.2769  -17.7444  -40.0848 C.3       8 UNK         0.1400 
     33 CB          1.2359  -17.6758  -40.3623 C.3       8 UNK        -0.1800 
     34 N          -0.8834  -16.4592  -40.4438 N.am      8 UNK        -0.5000 
     35 C          -1.9373  -15.9117  -39.8214 C.2       7 UNK         0.5000 
     36 O          -2.4445  -16.3788  -38.8016 O.2       7 UNK        -0.5000 
     37 CA         -2.5553  -14.6515  -40.4607 C.3       7 UNK         0.1400 
     38 CB         -2.0996  -13.3806  -39.7300 C.3       7 UNK        -0.1800 
     39 N          -2.2571  -14.5275  -41.8908 N.am      7 UNK        -0.5000 
     40 C          -2.8333  -15.2768  -42.8427 C.2       6 UNK         0.5000 
     41 O          -3.6759  -16.1421  -42.6073 O.2       6 UNK        -0.5000 
     42 CA         -2.3519  -15.0787  -44.2925 C.3       6 UNK         0.1400 
     43 CB         -3.2158  -14.0391  -45.0197 C.3       6 UNK        -0.1800 
     44 N          -0.9451  -14.6921  -44.3957 N.am      6 UNK        -0.5000 
     45 C           0.0869  -15.4413  -43.9897 C.2       5 UNK         0.5000 
     46 O          -0.0486  -16.5544  -43.4768 O.2       5 UNK        -0.5000 
     47 CA          1.5013  -14.8541  -44.1494 C.3       5 UNK         0.1400 
     48 CB          1.5670  -13.5348  -44.9527 C.3       5 UNK        -0.1800 
     49 N           2.1499  -14.6885  -42.8484 N.am      5 UNK        -0.5000 
     50 C           1.7393  -13.9157  -41.8293 C.2       4 UNK         0.5000 
     51 O           0.6893  -13.2712  -41.8515 O.2       4 UNK        -0.5000 
     52 CA          2.6365  -13.8466  -40.5728 C.3       4 UNK         0.1400 
     53 CB          1.8167  -13.9210  -39.2730 C.3       4 UNK        -0.1800 
     54 N           3.6665  -14.8879  -40.5521 N.am      4 UNK        -0.5000 
     55 C           4.8696  -14.7843  -41.1293 C.2       3 UNK         0.5000 
     56 O           5.2688  -13.7626  -41.6915 O.2       3 UNK        -0.5000 
     57 CA          5.7789  -16.0303  -41.1079 C.3       3 UNK         0.1400 
     58 CB          5.1546  -17.2719  -40.4281 C.3       3 UNK        -0.1800 
     59 N           6.2474  -16.3586  -42.4578 N.am      3 UNK        -0.5000 
     60 C           5.4967  -16.6888  -43.5200 C.2       2 UNK         0.5000 
     61 O           4.2696  -16.7918  -43.4764 O.2       2 UNK        -0.5000 
     62 CA          6.2678  -16.9259  -44.8377 C.3       2 UNK         0.1400 
     63 CB          7.5426  -17.7652  -44.6211 C.3       2 UNK        -0.1800 
     64 N           5.4833  -17.5805  -45.8843 N.am      2 UNK        -0.5000 
     65 C           4.5631  -17.0182  -46.6757 C.2       1 UNK         0.5000 
     66 O           4.1588  -15.8633  -46.5398 O.2       1 UNK        -0.5000 
     67 C          -1.7847  -19.3287  -48.3131 C.2       11 UNK         0.5000 
     68 O          -1.7578  -19.7364  -49.4732 O.2       11 UNK        -0.5000 
     69 N          -2.6125  -19.8209  -47.3781 N.am      12 UNK        -0.5000 
     70 CA         -3.5397  -20.9298  -47.6128 C.3       12 UNK         0.1400 
     71 CB         -4.5570  -21.0202  -46.4664 C.3       12 UNK        -0.1800 
     72 C          -2.8052  -22.2676  -47.8063 C.2       12 UNK         0.5000 
     73 O          -3.2208  -23.0647  -48.6479 O.2       12 UNK        -0.5000 
     74 N          -1.7096  -22.4713  -47.0608 N.am      13 UNK        -0.5000 
     75 CA         -0.8018  -23.6084  -47.2102 C.3       13 UNK         0.1400 
     76 CB          0.2162  -23.6204  -46.0603 C.3       13 UNK        -0.1800 
     77 C          -0.0901  -23.6073  -48.5750 C.2       13 UNK         0.5000 
     78 O          -0.0704  -24.6407  -49.2429 O.2       13 UNK        -0.5000 
     79 N           0.4280  -22.4409  -48.9900 N.am      14 UNK        -0.5000 
     80 CA          1.0642  -22.2235  -50.2938 C.3       14 UNK         0.1400 
     81 CB          1.6753  -20.8170  -50.3367 C.3       14 UNK        -0.1800 
     82 C           0.1064  -22.4279  -51.4829 C.2       14 UNK         0.5000 
     83 O           0.5269  -22.9278  -52.5264 O.2       14 UNK        -0.5000 
     84 N          -1.1696  -22.0720  -51.2889 N.am      15 UNK        -0.5000 
     85 CA         -2.2622  -22.3064  -52.2328 C.3       15 UNK         0.1400 
     86 CB         -3.4630  -21.4614  -51.7935 C.3       15 UNK        -0.1800 
     87 C          -2.6973  -23.7830  -52.3318 C.2       15 UNK         0.5000 
     88 O          -3.4130  -24.1245  -53.2712 O.2       15 UNK        -0.5000 
     89 N          -2.2876  -24.6142  -51.3616 N.am      16 UNK        -0.5000 
     90 CA         -2.7126  -25.9974  -51.1362 C.3       16 UNK         0.1400 
     91 CB         -2.3483  -26.9123  -52.3253 C.3       16 UNK        -0.1800 
     92 C          -4.1993  -26.0634  -50.7315 C.2       16 UNK         0.5000 
     93 O          -5.0152  -26.6612  -51.4349 O.2       16 UNK        -0.5000 
     94 N          -4.4977  -25.4357  -49.5853 N.am      17 UNK        -0.5000 
     95 CA         -5.8009  -25.3091  -48.9261 C.3       17 UNK         0.1400 
     96 CB         -6.4858  -26.6755  -48.7039 C.3       17 UNK        -0.1800 
     97 C          -6.7027  -24.2560  -49.5976 C.2       17 UNK         0.5000 
     98 O          -7.8903  -24.5038  -49.8156 O.2       17 UNK        -0.5000 
     99 N          -6.1157  -23.0788  -49.8624 N.am      18 UNK        -0.5000 
    100 CA        -6.7615  -21.8656  -50.3819 C.3       18 UNK         0.1400 
    101 CB        -7.7051  -21.2696  -49.3115 C.3       18 UNK        -0.1800 
    102 C         -7.4183  -22.0740  -51.7675 C.2       18 UNK         0.5000 
    103 O         -6.8263  -22.7336  -52.6236 O.2       18 UNK        -0.5000 
    104 N         -8.6119  -21.4947  -51.9631 N.am      19 UNK        -0.5000 
    105 CA        -9.4465  -21.5436  -53.1680 C.3       19 UNK         0.1400 
    106 CB        -9.8924  -22.9949  -53.4599 C.3       19 UNK        -0.1800 
    107 C         -8.8096  -20.8445  -54.3906 C.2       19 UNK         0.5000 
    108 O         -7.8806  -20.0432  -54.2460 O.2       19 UNK        -0.5000 
    109 N         -9.3427  -21.1434  -55.5836 N.am      20 UNK        -0.5000 
    110 CA        -8.9981  -20.5378  -56.8763 C.3       20 UNK         0.1400 
    111 CB        -9.9867  -21.0528  -57.9347 C.3       20 UNK        -0.1800 
    112 C         -7.5435  -20.7576  -57.3430 C.2       20 UNK         0.5000 
    113 O         -7.1111  -20.1062  -58.2945 O.2       20 UNK        -0.5000 
    114 N         -6.8086  -21.6478  -56.6636 N.am      21 UNK        -0.5000 
    115 CA        -5.3788  -21.8897  -56.8531 C.3       21 UNK         0.1400 
    116 CB        -4.9871  -23.1420  -56.0569 C.3       21 UNK        -0.1800 
    117 C         -4.4887  -20.6934  -56.4532 C.2       21 UNK         0.5000 
    118 O         -3.3491  -20.6192  -56.9145 O.2       21 UNK        -0.5000 
    119 N         -5.0108  -19.7808  -55.6226 N.am      22 UNK        -0.5000 
    120 CA        -4.3333  -18.5407  -55.2148 C.3       22 UNK         0.1400 
    121 C         -5.3090  -17.3610  -54.9378 C.2       22 UNK         0.5000 
    122 N         -6.5881  -17.5860  -54.6577 N.am      22 UNK        -0.7600 
    123 O         -4.9070  -16.2032  -55.0071 O.2       22 UNK        -0.5000 
    124 C124       -3.3614  -18.7895  -54.0325 C.3       23 UNK        -0.0398 
    125 S125       -1.9295  -17.6620  -53.9752 S.3       23 UNK        -0.2404 
    126 C126       -0.8727  -18.5750  -52.8058 C.3       23 UNK        -0.0205 
    127 H127        4.2204  -21.8946  -46.0189 H         1 UNK         0.0600 
    128 H128        4.8528  -22.3792  -47.5965 H         1 UNK         0.0600 
    129 H129        3.2028  -21.7810  -47.4589 H         1 UNK         0.0600 
    130 H130        2.8597  -19.5759  -47.5757 H         1 UNK         0.3000 
    131 H131        3.0606  -17.4773  -48.1150 H         1 UNK         0.0600 
    132 H132        4.9923  -16.5426  -49.3276 H         1 UNK         0.0800 
    133 H133        6.0008  -17.8753  -48.8587 H         1 UNK         0.0800 
    134 H134        4.0713  -17.5131  -52.7268 H         1 UNK         0.0800 
    135 H135        4.4038  -16.2915  -51.5343 H         1 UNK         0.0800 
    136 H136        1.8604  -18.5712  -52.9217 H         1 UNK         0.1150 
    137 H137       -1.4437  -16.5860  -51.0651 H         1 UNK         0.1150 
    138 H138        2.5710  -15.4862  -50.0276 H         1 UNK         0.1150 
    139 H139        0.6172  -14.0119  -49.4578 H         1 UNK         0.0800 
    140 H140       -1.0150  -14.5299  -49.7852 H         1 UNK         0.0800 
    141 H141       -1.9743  -16.6862  -48.8593 H         1 UNK         0.0800 
    142 H142       -2.1566  -16.7059  -47.1337 H         1 UNK         0.0800 
    143 H143        0.0412  -18.2687  -48.5792 H         1 UNK         0.0600 
    144 H144       -0.5644  -17.9596  -45.7720 H         1 UNK         0.3000 
    145 H145        1.0907  -20.8708  -44.6606 H         1 UNK         0.0600 
    146 H146        2.3721  -19.1715  -43.2916 H         1 UNK         0.0600 
    147 H147        3.0586  -19.4310  -44.8825 H         1 UNK         0.0600 
    148 H148        2.1079  -17.9869  -44.5669 H         1 UNK         0.0600 
    149 H149       -0.0705  -18.5494  -43.3930 H         1 UNK         0.3000 
    150 H150       -3.0643  -18.8969  -43.4041 H         1 UNK         0.0600 
    151 H151       -3.8059  -21.1770  -42.9063 H         1 UNK         0.0600 
    152 H152       -3.9605  -20.2038  -41.4535 H         1 UNK         0.0600 
    153 H153       -2.6256  -21.3450  -41.6177 H         1 UNK         0.0600 
    154 H154       -2.0521  -17.6460  -41.9146 H         1 UNK         0.3000 
    155 H155       -0.4167  -17.9400  -39.0197 H         1 UNK         0.0600 
    156 H156        1.4507  -17.3950  -41.3939 H         1 UNK         0.0600 
    157 H157        1.7161  -18.6383  -40.1811 H         1 UNK         0.0600 
    158 H158        1.7218  -16.9569  -39.7060 H         1 UNK         0.0600 
    159 H159       -0.5488  -16.0312  -41.2971 H         1 UNK         0.3000 
    160 H160       -3.6383  -14.7296  -40.3430 H         1 UNK         0.0600 
    161 H161       -1.0270  -13.2240  -39.8254 H         1 UNK         0.0600 
    162 H162       -2.3298  -13.4368  -38.6653 H         1 UNK         0.0600 
    163 H163       -2.6025  -12.4978  -40.1249 H         1 UNK         0.0600 
    164 H164       -1.5294  -13.8720  -42.1497 H         1 UNK         0.3000 
    165 H165       -2.4696  -16.0357  -44.8038 H         1 UNK         0.0600 
    166 H166       -2.9374  -13.9625  -46.0711 H         1 UNK         0.0600 
    167 H167       -4.2711  -14.3128  -44.9829 H         1 UNK         0.0600 
    168 H168       -3.1167  -13.0495  -44.5719 H         1 UNK         0.0600 
    169 H169       -0.7519  -13.7839  -44.7917 H         1 UNK         0.3000 
    170 H170        2.0801  -15.5988  -44.6959 H         1 UNK         0.0600 
    171 H171        1.0212  -12.7230  -44.4712 H         1 UNK         0.0600 
    172 H172        2.6009  -13.2099  -45.0702 H         1 UNK         0.0600 
    173 H173        1.1620  -13.6591  -45.9563 H         1 UNK         0.0600 
    174 H174        2.9941  -15.2371  -42.7316 H         1 UNK         0.3000 
    175 H175        3.1234  -12.8694  -40.5905 H         1 UNK         0.0600 
    176 H176        1.1488  -14.7809  -39.2553 H         1 UNK         0.0600 
    177 H177        2.4637  -13.9780  -38.3975 H         1 UNK         0.0600 
    178 H178        1.2027  -13.0282  -39.1549 H         1 UNK         0.0600 
    179 H179        3.4120  -15.7672  -40.1276 H         1 UNK         0.3000 
    180 H180        6.6623  -15.7499  -40.5326 H         1 UNK         0.0600 
    181 H181        4.2486  -17.6104  -40.9319 H         1 UNK         0.0600 
    182 H182        4.9033  -17.0693  -39.3863 H         1 UNK         0.0600 
    183 H183        5.8570  -18.1054  -40.4272 H         1 UNK         0.0600 
    184 H184        7.2434  -16.2659  -42.5970 H         1 UNK         0.3000 
    185 H185        6.5669  -15.9441  -45.2099 H         1 UNK         0.0600 
    186 H186        8.2610  -17.2566  -43.9777 H         1 UNK         0.0600 
    187 H187        7.3130  -18.7301  -44.1666 H         1 UNK         0.0600 
    188 H188        8.0518  -17.9576  -45.5660 H         1 UNK         0.0600 
    189 H189        5.7518  -18.5331  -46.1134 H         1 UNK         0.3000 
    190 H190       -2.5502  -19.4743  -46.4338 H         1 UNK         0.3000 
    191 H191       -4.0910  -20.7205  -48.5319 H         1 UNK         0.0600 
    192 H192       -5.1206  -20.0927  -46.3653 H         1 UNK         0.0600 
    193 H193       -5.2773  -21.8188  -46.6493 H         1 UNK         0.0600 
    194 H194       -4.0766  -21.2278  -45.5105 H         1 UNK         0.0600 
    195 H195       -1.4953  -21.8089  -46.3227 H         1 UNK         0.3000 
    196 H196       -1.3989  -24.5203  -47.1430 H         1 UNK         0.0600 
    197 H197        0.8385  -24.5149  -46.1033 H         1 UNK         0.0600 
    198 H198       -0.2817  -23.6156  -45.0904 H         1 UNK         0.0600 
    199 H199        0.8827  -22.7597  -46.0999 H         1 UNK         0.0600 
    200 H200        0.4102  -21.6446  -48.3605 H         1 UNK         0.3000 
    201 H201        1.8735  -22.9496  -50.3941 H         1 UNK         0.0600 
    202 H202        2.4425  -20.6984  -49.5741 H         1 UNK         0.0600 
    203 H203        0.9237  -20.0429  -50.1799 H         1 UNK         0.0600 
    204 H204        2.1491  -20.6253  -51.2999 H         1 UNK         0.0600 
    205 H205       -1.4104  -21.5956  -50.4271 H         1 UNK         0.3000 
    206 H206       -1.9429  -21.9783  -53.2240 H         1 UNK         0.0600 
    207 H207       -3.2039  -20.4150  -51.6619 H         1 UNK         0.0600 
    208 H208       -4.2720  -21.5157  -52.5233 H         1 UNK         0.0600 
    209 H209       -3.8467  -21.8136  -50.8402 H         1 UNK         0.0600 
    210 H210       -1.6802  -24.2342  -50.6460 H         1 UNK         0.3000 
    211 H211       -2.1418  -26.3517  -50.2765 H         1 UNK         0.0600 
    212 H212       -2.9181  -26.6725  -53.2230 H         1 UNK         0.0600 
    213 H213       -2.5522  -27.9560  -52.0839 H         1 UNK         0.0600 
    214 H214       -1.2889  -26.8359  -52.5696 H         1 UNK         0.0600 
    215 H215       -3.7627  -24.8842  -49.1529 H         1 UNK         0.3000 
    216 H216       -5.5807  -24.9096  -47.9349 H         1 UNK         0.0600 
    217 H217       -7.3542  -26.5702  -48.0527 H         1 UNK         0.0600 
    218 H218       -5.8087  -27.3851  -48.2286 H         1 UNK         0.0600 
    219 H219       -6.8366  -27.1161  -49.6372 H         1 UNK         0.0600 
    220 H220       -5.1241  -23.0074  -49.6714 H         1 UNK         0.3000 
    221 H221       -5.9729  -21.1314  -50.5391 H         1 UNK         0.0600 
    222 H222       -8.5768  -21.9016  -49.1374 H         1 UNK         0.0600 
    223 H223       -7.1884  -21.1526  -48.3588 H         1 UNK         0.0600 
    224 H224       -8.0599  -20.2792  -49.5986 H         1 UNK         0.0600 
    225 H225       -8.9904  -20.9458  -51.2047 H         1 UNK         0.3000 
    226 H226      -10.3412  -20.9674  -52.9288 H         1 UNK         0.0600 
    227 H227      -10.2620  -23.4800  -52.5562 H         1 UNK         0.0600 
    228 H228      -10.7031  -23.0275  -54.1881 H         1 UNK         0.0600 
    229 H229       -9.0737  -23.6015  -53.8487 H         1 UNK         0.0600 
    230 H230      -10.0907  -21.8212  -55.6075 H         1 UNK         0.3000 
    231 H231       -9.1358  -19.4591  -56.7780 H         1 UNK         0.0600 
    232 H232       -9.9123  -22.1337  -58.0604 H         1 UNK         0.0600 
    233 H233       -9.7965  -20.5957  -58.9068 H         1 UNK         0.0600 
    234 H234      -11.0156  -20.8149  -57.6640 H         1 UNK         0.0600 
    235 H235       -7.2461  -22.1294  -55.8916 H         1 UNK         0.3000 
    236 H236       -5.2049  -22.0870  -57.9128 H         1 UNK         0.0600 
    237 H237       -5.5354  -24.0187  -56.4016 H         1 UNK         0.0600 
    238 H238       -3.9238  -23.3614  -56.1628 H         1 UNK         0.0600 
    239 H239       -5.1913  -23.0162  -54.9927 H         1 UNK         0.0600 
    240 H240       -5.9553  -19.9120  -55.2846 H         1 UNK         0.3000 
    241 H241       -3.7418  -18.2126  -56.0722 H         1 UNK         0.0600 
    242 H242       -6.9781  -18.5165  -54.5286 H         1 UNK         0.3800 
    243 H243       -7.1858  -16.7901  -54.5021 H         1 UNK         0.3800 
    244 H244       -2.9551  -19.7990  -54.1013 H         1 UNK         0.0800 
    245 H245       -3.8939  -18.7397  -53.0818 H         1 UNK         0.0800 
    246 H246       -0.3507  -19.3725  -53.3371 H         1 UNK         0.0800 
    247 H247       -1.4902  -19.0613  -52.0533 H         1 UNK         0.0800 
@<TRIPOS>BOND
     1    1    2 1    
     2    1  127 1    
     3    1  128 1    
     4    1  129 1    
     5    2    3 2    
     6    2    4 am   BACKBONE|DICT|INTERRES
     7    4    5 1    
     8    4  130 1    
     9    5    6 1    
    10    5   65 1    
    11    5  131 1    
    12    6    7 1    
    13    6  132 1    
    14    6  133 1    
    15    7    8 1    
    16    8    9 1    
    17    8  134 1    
    18    8  135 1    
    19    9   10 ar   
    20    9   14 ar   
    21   10   11 ar   
    22   10  136 1    
    23   11   12 ar   
    24   11  126 1    
    25   12   13 ar   
    26   12  137 1    
    27   13   14 ar   
    28   13   15 1    
    29   14  138 1    
    30   15   16 1    
    31   15  139 1    
    32   15  140 1    
    33   16   17 1    
    34   17   18 1    
    35   17  141 1    
    36   17  142 1    
    37   18   19 1    
    38   18   67 1    
    39   18  143 1    
    40   19   20 am   BACKBONE|DICT|INTERRES
    41   19  144 1    
    42   20   21 2    
    43   20   22 1    
    44   22   23 1    
    45   22   24 1    
    46   22  145 1    
    47   23  146 1    
    48   23  147 1    
    49   23  148 1    
    50   24   25 am   BACKBONE|DICT|INTERRES
    51   24  149 1    
    52   25   26 2    
    53   25   27 1    
    54   27   28 1    
    55   27   29 1    
    56   27  150 1    
    57   28  151 1    
    58   28  152 1    
    59   28  153 1    
    60   29   30 am   BACKBONE|DICT|INTERRES
    61   29  154 1    
    62   30   31 2    
    63   30   32 1    
    64   32   33 1    
    65   32   34 1    
    66   32  155 1    
    67   33  156 1    
    68   33  157 1    
    69   33  158 1    
    70   34   35 am   BACKBONE|DICT|INTERRES
    71   34  159 1    
    72   35   36 2    
    73   35   37 1    
    74   37   38 1    
    75   37   39 1    
    76   37  160 1    
    77   38  161 1    
    78   38  162 1    
    79   38  163 1    
    80   39   40 am   BACKBONE|DICT|INTERRES
    81   39  164 1    
    82   40   41 2    
    83   40   42 1    
    84   42   43 1    
    85   42   44 1    
    86   42  165 1    
    87   43  166 1    
    88   43  167 1    
    89   43  168 1    
    90   44   45 am   BACKBONE|DICT|INTERRES
    91   44  169 1    
    92   45   46 2    
    93   45   47 1    
    94   47   48 1    
    95   47   49 1    
    96   47  170 1    
    97   48  171 1    
    98   48  172 1    
    99   48  173 1    
   100   49   50 am   BACKBONE|DICT|INTERRES
   101   49  174 1    
   102   50   51 2    
   103   50   52 1    
   104   52   53 1    
   105   52   54 1    
   106   52  175 1    
   107   53  176 1    
   108   53  177 1    
   109   53  178 1    
   110   54   55 am   BACKBONE|DICT|INTERRES
   111   54  179 1    
   112   55   56 2    
   113   55   57 1    
   114   57   58 1    
   115   57   59 1    
   116   57  180 1    
   117   58  181 1    
   118   58  182 1    
   119   58  183 1    
   120   59   60 am   BACKBONE|DICT|INTERRES
   121   59  184 1    
   122   60   61 2    
   123   60   62 1    
   124   62   63 1    
   125   62   64 1    
   126   62  185 1    
   127   63  186 1    
   128   63  187 1    
   129   63  188 1    
   130   64   65 am   BACKBONE|DICT|INTERRES
   131   64  189 1    
   132   65   66 2    
   133   67   68 2    
   134   67   69 am   BACKBONE|DICT|INTERRES
   135   69   70 1    
   136   69  190 1    
   137   70   71 1    
   138   70   72 1    
   139   70  191 1    
   140   71  192 1    
   141   71  193 1    
   142   71  194 1    
   143   72   73 2    
   144   72   74 am   BACKBONE|DICT|INTERRES
   145   74   75 1    
   146   74  195 1    
   147   75   76 1    
   148   75   77 1    
   149   75  196 1    
   150   76  197 1    
   151   76  198 1    
   152   76  199 1    
   153   77   78 2    
   154   77   79 am   BACKBONE|DICT|INTERRES
   155   79   80 1    
   156   79  200 1    
   157   80   81 1    
   158   80   82 1    
   159   80  201 1    
   160   81  202 1    
   161   81  203 1    
   162   81  204 1    
   163   82   83 2    
   164   82   84 am   BACKBONE|DICT|INTERRES
   165   84   85 1    
   166   84  205 1    
   167   85   86 1    
   168   85   87 1    
   169   85  206 1    
   170   86  207 1    
   171   86  208 1    
   172   86  209 1    
   173   87   88 2    
   174   87   89 am   BACKBONE|DICT|INTERRES
   175   89   90 1    
   176   89  210 1    
   177   90   91 1    
   178   90   92 1    
   179   90  211 1    
   180   91  212 1    
   181   91  213 1    
   182   91  214 1    
   183   92   93 2    
   184   92   94 am   BACKBONE|DICT|INTERRES
   185   94   95 1    
   186   94  215 1    
   187   95   96 1    
   188   95   97 1    
   189   95  216 1    
   190   96  217 1    
   191   96  218 1    
   192   96  219 1    
   193   97   98 2    
   194   97   99 am   BACKBONE|DICT|INTERRES
   195   99  100 1    
   196   99  220 1    
   197  100  101 1    
   198  100  102 1    
   199  100  221 1    
   200  101  222 1    
   201  101  223 1    
   202  101  224 1    
   203  102  103 2    
   204  102  104 am   BACKBONE|DICT|INTERRES
   205  104  105 1    
   206  104  225 1    
   207  105  106 1    
   208  105  107 1    
   209  105  226 1    
   210  106  227 1    
   211  106  228 1    
   212  106  229 1    
   213  107  108 2    
   214  107  109 am   BACKBONE|DICT|INTERRES
   215  109  110 1    
   216  109  230 1    
   217  110  111 1    
   218  110  112 1    
   219  110  231 1    
   220  111  232 1    
   221  111  233 1    
   222  111  234 1    
   223  112  113 2    
   224  112  114 am   BACKBONE|DICT|INTERRES
   225  114  115 1    
   226  114  235 1    
   227  115  116 1    
   228  115  117 1    
   229  115  236 1    
   230  116  237 1    
   231  116  238 1    
   232  116  239 1    
   233  117  118 2    
   234  117  119 am   BACKBONE|DICT|INTERRES
   235  119  120 1    
   236  119  240 1    
   237  120  121 1    
   238  120  124 1    
   239  120  241 1    
   240  121  122 am   BACKBONE|DICT|INTERRES
   241  121  123 2    
   242  122  242 1    
   243  122  243 1    
   244  124  125 1    
   245  124  244 1    
   246  124  245 1    
   247  125  126 1    
   248  126  246 1    
   249  126  247 1    
@<TRIPOS>SUBSTRUCTURE
     1 UNK         1 GROUP             0       ****    0 ROOT    
