@<TRIPOS>MOLECULE
3R540
247   249    1
SMALL
USER_CHARGES


@<TRIPOS>ATOM
      1 CA          0.5451   -9.5796  -45.2619 C.3       0 UNK        -0.1800 
      2 C           1.6101  -10.4332  -45.9331 C.2       0 UNK         0.5000 
      3 O           2.1864  -11.3045  -45.2835 O.2       0 UNK        -0.5000 
      4 N           1.8978  -10.1601  -47.2126 N.am      1 UNK        -0.5000 
      5 CA          2.8340  -10.8757  -48.0982 C.3       1 UNK         0.1400 
      6 C6          2.2554  -12.2186  -48.6348 C.3       23 UNK        -0.0398 
      7 S7          2.3827  -13.6863  -47.5411 S.3       23 UNK        -0.2404 
      8 C8          3.2307  -14.8797  -48.6359 C.3       23 UNK        -0.0205 
      9 C9          2.2669  -15.7599  -49.4291 C.ar      23 UNK        -0.0193 
     10 C10         1.2193  -15.2012  -50.1704 C.ar      23 UNK        -0.1150 
     11 C11         0.3201  -16.0152  -50.8630 C.ar      23 UNK        -0.0193 
     12 C12         0.5011  -17.4000  -50.8546 C.ar      23 UNK        -0.1150 
     13 C13         1.5509  -17.9763  -50.1334 C.ar      23 UNK        -0.0193 
     14 C14         2.4269  -17.1501  -49.4209 C.ar      23 UNK        -0.1150 
     15 C15         1.7219  -19.4893  -50.1014 C.3       23 UNK        -0.0205 
     16 S16         0.2673  -20.3108  -49.3787 S.3       23 UNK        -0.2404 
     17 C17         0.9523  -21.9360  -48.9109 C.3       23 UNK        -0.0398 
     18 CA          0.0954  -22.7408  -47.9007 C.3       11 UNK         0.1400 
     19 N           0.0549  -22.1473  -46.5599 N.am      11 UNK        -0.5000 
     20 C          -0.3461  -22.8228  -45.4717 C.2       10 UNK         0.5000 
     21 O          -0.7292  -23.9932  -45.4996 O.2       10 UNK        -0.5000 
     22 CA         -0.3445  -22.0746  -44.1287 C.3       10 UNK         0.1400 
     23 CB          1.0846  -21.9378  -43.5829 C.3       10 UNK        -0.1800 
     24 N          -0.9849  -20.7618  -44.1902 N.am      10 UNK        -0.5000 
     25 C          -2.2729  -20.5542  -44.5003 C.2       9 UNK         0.5000 
     26 O          -3.0587  -21.4499  -44.8071 O.2       9 UNK        -0.5000 
     27 CA         -2.7606  -19.0950  -44.4960 C.3       9 UNK         0.1400 
     28 CB         -2.9706  -18.5859  -43.0620 C.3       9 UNK        -0.1800 
     29 N          -1.8418  -18.2070  -45.2021 N.am      9 UNK        -0.5000 
     30 C          -1.5782  -18.2872  -46.5134 C.2       8 UNK         0.5000 
     31 O          -2.1437  -19.0672  -47.2791 O.2       8 UNK        -0.5000 
     32 CA         -0.4673  -17.3681  -47.0445 C.3       8 UNK         0.1400 
     33 CB         -0.9926  -15.9413  -47.2674 C.3       8 UNK        -0.1800 
     34 N           0.7013  -17.3375  -46.1636 N.am      8 UNK        -0.5000 
     35 C           1.4823  -18.3929  -45.8843 C.2       7 UNK         0.5000 
     36 O           1.3195  -19.5221  -46.3446 O.2       7 UNK        -0.5000 
     37 CA          2.6150  -18.1541  -44.8718 C.3       7 UNK         0.1400 
     38 CB          3.8311  -17.5175  -45.5579 C.3       7 UNK        -0.1800 
     39 N           2.1867  -17.3171  -43.7511 N.am      7 UNK        -0.5000 
     40 C           1.2628  -17.6805  -42.8499 C.2       6 UNK         0.5000 
     41 O           0.7079  -18.7786  -42.8379 O.2       6 UNK        -0.5000 
     42 CA          0.8485  -16.6107  -41.8293 C.3       6 UNK         0.1400 
     43 CB          1.8508  -16.5409  -40.6679 C.3       6 UNK        -0.1800 
     44 N           0.7096  -15.2913  -42.4474 N.am      6 UNK        -0.5000 
     45 C          -0.2651  -14.9642  -43.3097 C.2       5 UNK         0.5000 
     46 O          -1.1035  -15.7764  -43.7024 O.2       5 UNK        -0.5000 
     47 CA         -0.3115  -13.5201  -43.8587 C.3       5 UNK         0.1400 
     48 CB         -1.7362  -12.9334  -43.8014 C.3       5 UNK        -0.1800 
     49 N           0.6626  -12.6019  -43.2590 N.am      5 UNK        -0.5000 
     50 C           0.7540  -12.1849  -41.9870 C.2       4 UNK         0.5000 
     51 O          -0.0667  -12.4661  -41.1126 O.2       4 UNK        -0.5000 
     52 CA          2.0064  -11.3466  -41.6342 C.3       4 UNK         0.1400 
     53 CB          2.3696  -11.4304  -40.1372 C.3       4 UNK        -0.1800 
     54 N           3.1838  -11.6634  -42.4586 N.am      4 UNK        -0.5000 
     55 C           3.7634  -12.8640  -42.6255 C.2       3 UNK         0.5000 
     56 O           3.3716  -13.8881  -42.0643 O.2       3 UNK        -0.5000 
     57 CA          4.9432  -12.9475  -43.6134 C.3       3 UNK         0.1400 
     58 CB          4.9017  -14.2425  -44.4433 C.3       3 UNK        -0.1800 
     59 N           4.9721  -11.8014  -44.5246 N.am      3 UNK        -0.5000 
     60 C           6.0753  -11.1412  -44.9040 C.2       2 UNK         0.5000 
     61 O           7.2033  -11.4156  -44.4902 O.2       2 UNK        -0.5000 
     62 CA          5.8911   -9.9625  -45.8885 C.3       2 UNK         0.1400 
     63 CB          7.1141   -9.7466  -46.8051 C.3       2 UNK        -0.1800 
     64 N           4.6464  -10.0339  -46.6632 N.am      2 UNK        -0.5000 
     65 C           4.2959  -10.9481  -47.5827 C.2       1 UNK         0.5000 
     66 O           5.0643  -11.8043  -48.0227 O.2       1 UNK        -0.5000 
     67 C          -1.3157  -23.0746  -48.4282 C.2       11 UNK         0.5000 
     68 O          -1.5083  -24.1551  -48.9866 O.2       11 UNK        -0.5000 
     69 N          -2.2853  -22.1775  -48.1893 N.am      12 UNK        -0.5000 
     70 CA         -3.6899  -22.3777  -48.5391 C.3       12 UNK         0.1400 
     71 CB         -4.4778  -21.0801  -48.3151 C.3       12 UNK        -0.1800 
     72 C          -4.3216  -23.5438  -47.7621 C.2       12 UNK         0.5000 
     73 O          -5.0206  -24.3539  -48.3675 O.2       12 UNK        -0.5000 
     74 N          -4.0357  -23.6378  -46.4549 N.am      13 UNK        -0.5000 
     75 CA         -4.4765  -24.7318  -45.5883 C.3       13 UNK         0.1400 
     76 CB         -4.1346  -24.4144  -44.1250 C.3       13 UNK        -0.1800 
     77 C          -3.8890  -26.0915  -46.0036 C.2       13 UNK         0.5000 
     78 O          -4.6298  -27.0731  -46.0647 O.2       13 UNK        -0.5000 
     79 N          -2.5884  -26.1195  -46.3302 N.am      14 UNK        -0.5000 
     80 CA         -1.8819  -27.3020  -46.8324 C.3       14 UNK         0.1400 
     81 CB         -0.3798  -26.9973  -46.9327 C.3       14 UNK        -0.1800 
     82 C          -2.4277  -27.8022  -48.1844 C.2       14 UNK         0.5000 
     83 O          -2.5025  -29.0117  -48.4024 O.2       14 UNK        -0.5000 
     84 N          -2.8343  -26.8631  -49.0472 N.am      15 UNK        -0.5000 
     85 CA         -3.4779  -27.1202  -50.3355 C.3       15 UNK         0.1400 
     86 CB         -3.1811  -25.9352  -51.2645 C.3       15 UNK        -0.1800 
     87 C          -4.9997  -27.3582  -50.2313 C.2       15 UNK         0.5000 
     88 O          -5.6432  -27.5437  -51.2649 O.2       15 UNK        -0.5000 
     89 N          -5.5630  -27.3105  -49.0131 N.am      16 UNK        -0.5000 
     90 CA         -6.9880  -27.4502  -48.6817 C.3       16 UNK         0.1400 
     91 CB         -7.4475  -28.9057  -48.9041 C.3       16 UNK        -0.1800 
     92 C          -7.8910  -26.4214  -49.4012 C.2       16 UNK         0.5000 
     93 O          -9.0337  -26.7310  -49.7422 O.2       16 UNK        -0.5000 
     94 N          -7.3372  -25.2246  -49.6455 N.am      17 UNK        -0.5000 
     95 CA         -7.8916  -24.0896  -50.3904 C.3       17 UNK         0.1400 
     96 CB         -9.1244  -23.5125  -49.6658 C.3       17 UNK        -0.1800 
     97 C          -8.1659  -24.3656  -51.8871 C.2       17 UNK         0.5000 
     98 O          -8.7887  -23.5311  -52.5457 O.2       17 UNK        -0.5000 
     99 N          -7.6925  -25.5034  -52.4161 N.am      18 UNK        -0.5000 
    100 CA        -7.8677  -25.9023  -53.8149 C.3       18 UNK         0.1400 
    101 CB        -7.8646  -27.4369  -53.8968 C.3       18 UNK        -0.1800 
    102 C         -6.7885  -25.3112  -54.7419 C.2       18 UNK         0.5000 
    103 O         -6.9672  -25.3204  -55.9607 O.2       18 UNK        -0.5000 
    104 N         -5.6920  -24.8173  -54.1584 N.am      19 UNK        -0.5000 
    105 CA        -4.5404  -24.2264  -54.8287 C.3       19 UNK         0.1400 
    106 CB        -3.6620  -25.3384  -55.4416 C.3       19 UNK        -0.1800 
    107 C         -3.7722  -23.3658  -53.8104 C.2       19 UNK         0.5000 
    108 O         -4.2723  -23.1312  -52.7060 O.2       19 UNK        -0.5000 
    109 N         -2.5736  -22.9121  -54.2017 N.am      20 UNK        -0.5000 
    110 CA        -1.5643  -22.1657  -53.4340 C.3       20 UNK         0.1400 
    111 CB        -1.1007  -22.9611  -52.2020 C.3       20 UNK        -0.1800 
    112 C         -1.9514  -20.7261  -53.0431 C.2       20 UNK         0.5000 
    113 O         -1.0877  -19.8496  -53.0755 O.2       20 UNK        -0.5000 
    114 N         -3.2248  -20.4988  -52.7021 N.am      21 UNK        -0.5000 
    115 CA        -3.8089  -19.1926  -52.4072 C.3       21 UNK         0.1400 
    116 CB        -5.2613  -19.3934  -51.9478 C.3       21 UNK        -0.1800 
    117 C         -3.7481  -18.2478  -53.6243 C.2       21 UNK         0.5000 
    118 O         -3.9531  -18.6898  -54.7579 O.2       21 UNK        -0.5000 
    119 N         -3.4778  -16.9656  -53.3606 N.am      22 UNK        -0.5000 
    120 CA        -3.2825  -15.9224  -54.3839 C.3       22 UNK         0.1400 
    121 C         -4.6012  -15.3288  -54.9635 C.2       22 UNK         0.5000 
    122 N         -5.7748  -15.6737  -54.4478 N.am      22 UNK        -0.7600 
    123 O         -4.5596  -14.5446  -55.9077 O.2       22 UNK        -0.5000 
    124 C124       -2.3393  -14.7961  -53.8826 C.3       23 UNK        -0.0398 
    125 S125       -0.6942  -15.4113  -53.3760 S.3       23 UNK        -0.2404 
    126 C126       -0.8815  -15.4066  -51.5673 C.3       23 UNK        -0.0205 
    127 H127        0.1996   -8.7756  -45.9120 H         1 UNK         0.0600 
    128 H128       -0.3131  -10.1949  -44.9955 H         1 UNK         0.0600 
    129 H129        0.9417   -9.1338  -44.3500 H         1 UNK         0.0600 
    130 H130        1.3984   -9.4034  -47.6596 H         1 UNK         0.3000 
    131 H131        2.9060  -10.2217  -48.9686 H         1 UNK         0.0600 
    132 H132        1.2020  -12.0840  -48.8829 H         1 UNK         0.0800 
    133 H133        2.7396  -12.4430  -49.5856 H         1 UNK         0.0800 
    134 H134        3.9015  -14.3623  -49.3223 H         1 UNK         0.0800 
    135 H135        3.8754  -15.4987  -48.0124 H         1 UNK         0.0800 
    136 H136        1.0781  -14.1317  -50.1839 H         1 UNK         0.1150 
    137 H137       -0.1925  -18.0340  -51.3888 H         1 UNK         0.1150 
    138 H138        3.2312  -17.5927  -48.8506 H         1 UNK         0.1150 
    139 H139        1.8782  -19.8599  -51.1153 H         1 UNK         0.0800 
    140 H140        2.6107  -19.7552  -49.5274 H         1 UNK         0.0800 
    141 H141        1.9454  -21.7842  -48.4863 H         1 UNK         0.0800 
    142 H142        1.1072  -22.5206  -49.8183 H         1 UNK         0.0800 
    143 H143        0.6030  -23.7015  -47.7872 H         1 UNK         0.0600 
    144 H144        0.3663  -21.1819  -46.4740 H         1 UNK         0.3000 
    145 H145       -0.9144  -22.6788  -43.4199 H         1 UNK         0.0600 
    146 H146        1.0836  -21.5144  -42.5785 H         1 UNK         0.0600 
    147 H147        1.5760  -22.9098  -43.5244 H         1 UNK         0.0600 
    148 H148        1.6981  -21.2969  -44.2160 H         1 UNK         0.0600 
    149 H149       -0.4101  -19.9678  -43.9234 H         1 UNK         0.3000 
    150 H150       -3.7224  -19.0630  -45.0122 H         1 UNK         0.0600 
    151 H151       -3.6659  -19.2265  -42.5182 H         1 UNK         0.0600 
    152 H152       -3.3855  -17.5778  -43.0598 H         1 UNK         0.0600 
    153 H153       -2.0364  -18.5618  -42.5002 H         1 UNK         0.0600 
    154 H154       -1.3734  -17.4967  -44.6478 H         1 UNK         0.3000 
    155 H155       -0.1474  -17.7616  -48.0073 H         1 UNK         0.0600 
    156 H156       -1.3698  -15.4954  -46.3475 H         1 UNK         0.0600 
    157 H157       -1.8087  -15.9400  -47.9906 H         1 UNK         0.0600 
    158 H158       -0.2135  -15.2894  -47.6598 H         1 UNK         0.0600 
    159 H159        0.9064  -16.4576  -45.7177 H         1 UNK         0.3000 
    160 H160        2.9184  -19.1245  -44.4736 H         1 UNK         0.0600 
    161 H161        3.5991  -16.5228  -45.9364 H         1 UNK         0.0600 
    162 H162        4.1644  -18.1219  -46.4025 H         1 UNK         0.0600 
    163 H163        4.6718  -17.4297  -44.8698 H         1 UNK         0.0600 
    164 H164        2.5886  -16.3938  -43.6811 H         1 UNK         0.3000 
    165 H165       -0.1231  -16.8962  -41.4203 H         1 UNK         0.0600 
    166 H166        2.8560  -16.2977  -41.0133 H         1 UNK         0.0600 
    167 H167        1.5563  -15.7873  -39.9372 H         1 UNK         0.0600 
    168 H168        1.9072  -17.4971  -40.1463 H         1 UNK         0.0600 
    169 H169        1.4049  -14.5966  -42.1981 H         1 UNK         0.3000 
    170 H170       -0.0308  -13.5947  -44.9105 H         1 UNK         0.0600 
    171 H171       -2.1164  -12.8898  -42.7806 H         1 UNK         0.0600 
    172 H172       -2.4325  -13.5409  -44.3807 H         1 UNK         0.0600 
    173 H173       -1.7686  -11.9263  -44.2151 H         1 UNK         0.0600 
    174 H174        1.3814  -12.2741  -43.9008 H         1 UNK         0.3000 
    175 H175        1.7465  -10.3107  -41.8560 H         1 UNK         0.0600 
    176 H176        3.2445  -10.8215  -39.9093 H         1 UNK         0.0600 
    177 H177        1.5526  -11.0669  -39.5129 H         1 UNK         0.0600 
    178 H178        2.5852  -12.4547  -39.8314 H         1 UNK         0.0600 
    179 H179        3.5650  -10.8906  -42.9848 H         1 UNK         0.3000 
    180 H180        5.8460  -12.9596  -42.9999 H         1 UNK         0.0600 
    181 H181        3.9819  -14.3071  -45.0247 H         1 UNK         0.0600 
    182 H182        4.9551  -15.1241  -43.8038 H         1 UNK         0.0600 
    183 H183        5.7401  -14.2956  -45.1379 H         1 UNK         0.0600 
    184 H184        4.0754  -11.5423  -44.9290 H         1 UNK         0.3000 
    185 H185        5.7975   -9.0731  -45.2639 H         1 UNK         0.0600 
    186 H186        6.9500   -8.9184  -47.4944 H         1 UNK         0.0600 
    187 H187        8.0030   -9.5080  -46.2202 H         1 UNK         0.0600 
    188 H188        7.3436  -10.6346  -47.3943 H         1 UNK         0.0600 
    189 H189        3.9329   -9.3724  -46.3912 H         1 UNK         0.3000 
    190 H190       -2.0470  -21.3024  -47.7368 H         1 UNK         0.3000 
    191 H191       -3.7370  -22.6216  -49.6030 H         1 UNK         0.0600 
    192 H192       -4.0724  -20.2669  -48.9173 H         1 UNK         0.0600 
    193 H193       -5.5243  -21.2046  -48.5960 H         1 UNK         0.0600 
    194 H194       -4.4503  -20.7674  -47.2705 H         1 UNK         0.0600 
    195 H195       -3.4864  -22.9051  -46.0137 H         1 UNK         0.3000 
    196 H196       -5.5630  -24.8028  -45.6725 H         1 UNK         0.0600 
    197 H197       -4.4524  -25.2218  -43.4642 H         1 UNK         0.0600 
    198 H198       -4.6373  -23.5062  -43.7923 H         1 UNK         0.0600 
    199 H199       -3.0626  -24.2744  -43.9824 H         1 UNK         0.0600 
    200 H200       -2.0352  -25.2746  -46.2149 H         1 UNK         0.3000 
    201 H201       -2.0184  -28.1040  -46.1042 H         1 UNK         0.0600 
    202 H202        0.0313  -26.7183  -45.9624 H         1 UNK         0.0600 
    203 H203       -0.1807  -26.1809  -47.6273 H         1 UNK         0.0600 
    204 H204        0.1739  -27.8695  -47.2824 H         1 UNK         0.0600 
    205 H205       -2.6826  -25.8883  -48.8094 H         1 UNK         0.3000 
    206 H206       -3.0414  -28.0163  -50.7808 H         1 UNK         0.0600 
    207 H207       -2.1080  -25.7937  -51.3918 H         1 UNK         0.0600 
    208 H208       -3.6069  -26.0934  -52.2551 H         1 UNK         0.0600 
    209 H209       -3.5958  -25.0072  -50.8691 H         1 UNK         0.0600 
    210 H210       -4.9586  -27.1193  -48.2234 H         1 UNK         0.3000 
    211 H211       -7.0744  -27.2339  -47.6161 H         1 UNK         0.0600 
    212 H212       -7.4400  -29.1746  -49.9609 H         1 UNK         0.0600 
    213 H213       -8.4620  -29.0581  -48.5342 H         1 UNK         0.0600 
    214 H214       -6.8022  -29.6069  -48.3748 H         1 UNK         0.0600 
    215 H215       -6.4012  -25.0644  -49.2734 H         1 UNK         0.3000 
    216 H216       -7.1145  -23.3238  -50.3720 H         1 UNK         0.0600 
    217 H217       -8.9023  -23.2995  -48.6201 H         1 UNK         0.0600 
    218 H218       -9.9709  -24.1988  -49.6971 H         1 UNK         0.0600 
    219 H219       -9.4467  -22.5766  -50.1236 H         1 UNK         0.0600 
    220 H220       -7.1720  -26.1444  -51.8273 H         1 UNK         0.3000 
    221 H221       -8.8381  -25.5499  -54.1707 H         1 UNK         0.0600 
    222 H222       -6.8987  -27.8542  -53.6109 H         1 UNK         0.0600 
    223 H223       -8.6235  -27.8693  -53.2444 H         1 UNK         0.0600 
    224 H224       -8.0777  -27.7736  -54.9121 H         1 UNK         0.0600 
    225 H225       -5.6506  -24.7746  -53.1482 H         1 UNK         0.3000 
    226 H226       -4.8939  -23.5627  -55.6202 H         1 UNK         0.0600 
    227 H227       -4.2340  -25.9686  -56.1225 H         1 UNK         0.0600 
    228 H228       -2.8353  -24.9247  -56.0193 H         1 UNK         0.0600 
    229 H229       -3.2370  -25.9840  -54.6724 H         1 UNK         0.0600 
    230 H230       -2.2900  -23.1302  -55.1465 H         1 UNK         0.3000 
    231 H231       -0.7047  -22.0779  -54.1004 H         1 UNK         0.0600 
    232 H232       -0.2774  -22.4499  -51.7046 H         1 UNK         0.0600 
    233 H233       -0.7484  -23.9545  -52.4786 H         1 UNK         0.0600 
    234 H234       -1.9005  -23.0769  -51.4711 H         1 UNK         0.0600 
    235 H235       -3.8483  -21.3003  -52.6882 H         1 UNK         0.3000 
    236 H236       -3.2381  -18.7539  -51.5859 H         1 UNK         0.0600 
    237 H237       -5.7177  -18.4443  -51.6645 H         1 UNK         0.0600 
    238 H238       -5.8741  -19.8319  -52.7366 H         1 UNK         0.0600 
    239 H239       -5.3153  -20.0517  -51.0810 H         1 UNK         0.0600 
    240 H240       -3.3537  -16.6744  -52.4035 H         1 UNK         0.3000 
    241 H241       -2.7846  -16.3911  -55.2352 H         1 UNK         0.0600 
    242 H242       -5.8270  -16.3235  -53.6803 H         1 UNK         0.3800 
    243 H243       -6.6209  -15.2863  -54.8358 H         1 UNK         0.3800 
    244 H244       -2.1740  -14.0625  -54.6736 H         1 UNK         0.0800 
    245 H245       -2.8000  -14.2478  -53.0592 H         1 UNK         0.0800 
    246 H246       -1.0451  -14.3827  -51.2271 H         1 UNK         0.0800 
    247 H247       -1.7724  -15.9684  -51.2865 H         1 UNK         0.0800 
@<TRIPOS>BOND
     1    1    2 1    
     2    1  127 1    
     3    1  128 1    
     4    1  129 1    
     5    2    3 2    
     6    2    4 am   BACKBONE|DICT|INTERRES
     7    4    5 1    
     8    4  130 1    
     9    5    6 1    
    10    5   65 1    
    11    5  131 1    
    12    6    7 1    
    13    6  132 1    
    14    6  133 1    
    15    7    8 1    
    16    8    9 1    
    17    8  134 1    
    18    8  135 1    
    19    9   10 ar   
    20    9   14 ar   
    21   10   11 ar   
    22   10  136 1    
    23   11   12 ar   
    24   11  126 1    
    25   12   13 ar   
    26   12  137 1    
    27   13   14 ar   
    28   13   15 1    
    29   14  138 1    
    30   15   16 1    
    31   15  139 1    
    32   15  140 1    
    33   16   17 1    
    34   17   18 1    
    35   17  141 1    
    36   17  142 1    
    37   18   19 1    
    38   18   67 1    
    39   18  143 1    
    40   19   20 am   BACKBONE|DICT|INTERRES
    41   19  144 1    
    42   20   21 2    
    43   20   22 1    
    44   22   23 1    
    45   22   24 1    
    46   22  145 1    
    47   23  146 1    
    48   23  147 1    
    49   23  148 1    
    50   24   25 am   BACKBONE|DICT|INTERRES
    51   24  149 1    
    52   25   26 2    
    53   25   27 1    
    54   27   28 1    
    55   27   29 1    
    56   27  150 1    
    57   28  151 1    
    58   28  152 1    
    59   28  153 1    
    60   29   30 am   BACKBONE|DICT|INTERRES
    61   29  154 1    
    62   30   31 2    
    63   30   32 1    
    64   32   33 1    
    65   32   34 1    
    66   32  155 1    
    67   33  156 1    
    68   33  157 1    
    69   33  158 1    
    70   34   35 am   BACKBONE|DICT|INTERRES
    71   34  159 1    
    72   35   36 2    
    73   35   37 1    
    74   37   38 1    
    75   37   39 1    
    76   37  160 1    
    77   38  161 1    
    78   38  162 1    
    79   38  163 1    
    80   39   40 am   BACKBONE|DICT|INTERRES
    81   39  164 1    
    82   40   41 2    
    83   40   42 1    
    84   42   43 1    
    85   42   44 1    
    86   42  165 1    
    87   43  166 1    
    88   43  167 1    
    89   43  168 1    
    90   44   45 am   BACKBONE|DICT|INTERRES
    91   44  169 1    
    92   45   46 2    
    93   45   47 1    
    94   47   48 1    
    95   47   49 1    
    96   47  170 1    
    97   48  171 1    
    98   48  172 1    
    99   48  173 1    
   100   49   50 am   BACKBONE|DICT|INTERRES
   101   49  174 1    
   102   50   51 2    
   103   50   52 1    
   104   52   53 1    
   105   52   54 1    
   106   52  175 1    
   107   53  176 1    
   108   53  177 1    
   109   53  178 1    
   110   54   55 am   BACKBONE|DICT|INTERRES
   111   54  179 1    
   112   55   56 2    
   113   55   57 1    
   114   57   58 1    
   115   57   59 1    
   116   57  180 1    
   117   58  181 1    
   118   58  182 1    
   119   58  183 1    
   120   59   60 am   BACKBONE|DICT|INTERRES
   121   59  184 1    
   122   60   61 2    
   123   60   62 1    
   124   62   63 1    
   125   62   64 1    
   126   62  185 1    
   127   63  186 1    
   128   63  187 1    
   129   63  188 1    
   130   64   65 am   BACKBONE|DICT|INTERRES
   131   64  189 1    
   132   65   66 2    
   133   67   68 2    
   134   67   69 am   BACKBONE|DICT|INTERRES
   135   69   70 1    
   136   69  190 1    
   137   70   71 1    
   138   70   72 1    
   139   70  191 1    
   140   71  192 1    
   141   71  193 1    
   142   71  194 1    
   143   72   73 2    
   144   72   74 am   BACKBONE|DICT|INTERRES
   145   74   75 1    
   146   74  195 1    
   147   75   76 1    
   148   75   77 1    
   149   75  196 1    
   150   76  197 1    
   151   76  198 1    
   152   76  199 1    
   153   77   78 2    
   154   77   79 am   BACKBONE|DICT|INTERRES
   155   79   80 1    
   156   79  200 1    
   157   80   81 1    
   158   80   82 1    
   159   80  201 1    
   160   81  202 1    
   161   81  203 1    
   162   81  204 1    
   163   82   83 2    
   164   82   84 am   BACKBONE|DICT|INTERRES
   165   84   85 1    
   166   84  205 1    
   167   85   86 1    
   168   85   87 1    
   169   85  206 1    
   170   86  207 1    
   171   86  208 1    
   172   86  209 1    
   173   87   88 2    
   174   87   89 am   BACKBONE|DICT|INTERRES
   175   89   90 1    
   176   89  210 1    
   177   90   91 1    
   178   90   92 1    
   179   90  211 1    
   180   91  212 1    
   181   91  213 1    
   182   91  214 1    
   183   92   93 2    
   184   92   94 am   BACKBONE|DICT|INTERRES
   185   94   95 1    
   186   94  215 1    
   187   95   96 1    
   188   95   97 1    
   189   95  216 1    
   190   96  217 1    
   191   96  218 1    
   192   96  219 1    
   193   97   98 2    
   194   97   99 am   BACKBONE|DICT|INTERRES
   195   99  100 1    
   196   99  220 1    
   197  100  101 1    
   198  100  102 1    
   199  100  221 1    
   200  101  222 1    
   201  101  223 1    
   202  101  224 1    
   203  102  103 2    
   204  102  104 am   BACKBONE|DICT|INTERRES
   205  104  105 1    
   206  104  225 1    
   207  105  106 1    
   208  105  107 1    
   209  105  226 1    
   210  106  227 1    
   211  106  228 1    
   212  106  229 1    
   213  107  108 2    
   214  107  109 am   BACKBONE|DICT|INTERRES
   215  109  110 1    
   216  109  230 1    
   217  110  111 1    
   218  110  112 1    
   219  110  231 1    
   220  111  232 1    
   221  111  233 1    
   222  111  234 1    
   223  112  113 2    
   224  112  114 am   BACKBONE|DICT|INTERRES
   225  114  115 1    
   226  114  235 1    
   227  115  116 1    
   228  115  117 1    
   229  115  236 1    
   230  116  237 1    
   231  116  238 1    
   232  116  239 1    
   233  117  118 2    
   234  117  119 am   BACKBONE|DICT|INTERRES
   235  119  120 1    
   236  119  240 1    
   237  120  121 1    
   238  120  124 1    
   239  120  241 1    
   240  121  122 am   BACKBONE|DICT|INTERRES
   241  121  123 2    
   242  122  242 1    
   243  122  243 1    
   244  124  125 1    
   245  124  244 1    
   246  124  245 1    
   247  125  126 1    
   248  126  246 1    
   249  126  247 1    
@<TRIPOS>SUBSTRUCTURE
     1 UNK         1 GROUP             0       ****    0 ROOT    
