@<TRIPOS>MOLECULE
3R540
247   249    1
SMALL
USER_CHARGES


@<TRIPOS>ATOM
      1 CA          4.4081  -13.1284  -46.1368 C.3       0 UNK        -0.1800 
      2 C           3.7949  -14.3222  -46.8533 C.2       0 UNK         0.5000 
      3 O           2.8140  -14.8844  -46.3717 O.2       0 UNK        -0.5000 
      4 N           4.3738  -14.7259  -47.9913 N.am      1 UNK        -0.5000 
      5 CA          3.9649  -15.8408  -48.8642 C.3       1 UNK         0.1400 
      6 C6          2.4976  -15.7672  -49.3615 C.3       23 UNK        -0.0398 
      7 S7          2.0614  -14.1953  -50.1877 S.3       23 UNK        -0.2404 
      8 C8          0.2481  -14.1628  -49.9753 C.3       23 UNK        -0.0205 
      9 C9         -0.4354  -15.2230  -50.8283 C.ar      23 UNK        -0.0193 
     10 C10        -0.9854  -14.9016  -52.0720 C.ar      23 UNK        -0.1150 
     11 C11        -1.5676  -15.8894  -52.8745 C.ar      23 UNK        -0.0193 
     12 C12        -1.5555  -17.2182  -52.4266 C.ar      23 UNK        -0.1150 
     13 C13        -1.0148  -17.5564  -51.1841 C.ar      23 UNK        -0.0193 
     14 C14        -0.4944  -16.5409  -50.3776 C.ar      23 UNK        -0.1150 
     15 C15        -1.0082  -19.0205  -50.7490 C.3       23 UNK        -0.0205 
     16 S16         0.4055  -19.4932  -49.6947 S.3       23 UNK        -0.2404 
     17 C17        -0.2453  -19.0720  -48.0445 C.3       23 UNK        -0.0398 
     18 CA         -0.6134  -20.3219  -47.2157 C.3       11 UNK         0.1400 
     19 N          -0.5759  -20.0241  -45.7792 N.am      11 UNK        -0.5000 
     20 C          -0.7522  -20.9135  -44.7922 C.2       10 UNK         0.5000 
     21 O          -0.9855  -22.1063  -44.9776 O.2       10 UNK        -0.5000 
     22 CA         -0.7290  -20.3605  -43.3610 C.3       10 UNK         0.1400 
     23 CB          0.7127  -20.1138  -42.8869 C.3       10 UNK        -0.1800 
     24 N          -1.5292  -19.1374  -43.2755 N.am      10 UNK        -0.5000 
     25 C          -2.8719  -19.1388  -43.2487 C.2       9 UNK         0.5000 
     26 O          -3.5462  -20.1625  -43.1373 O.2       9 UNK        -0.5000 
     27 CA         -3.5940  -17.7871  -43.4081 C.3       9 UNK         0.1400 
     28 CB         -3.9997  -17.2188  -42.0400 C.3       9 UNK        -0.1800 
     29 N          -2.8033  -16.7987  -44.1453 N.am      9 UNK        -0.5000 
     30 C          -2.5902  -16.8494  -45.4696 C.2       8 UNK         0.5000 
     31 O          -3.0534  -17.7272  -46.1957 O.2       8 UNK        -0.5000 
     32 CA         -1.6597  -15.7856  -46.0870 C.3       8 UNK         0.1400 
     33 CB         -2.4664  -14.5734  -46.5723 C.3       8 UNK        -0.1800 
     34 N          -0.6063  -15.3349  -45.1783 N.am      8 UNK        -0.5000 
     35 C           0.3212  -16.1317  -44.6325 C.2       7 UNK         0.5000 
     36 O           0.3984  -17.3381  -44.8746 O.2       7 UNK        -0.5000 
     37 CA          1.2727  -15.5040  -43.5948 C.3       7 UNK         0.1400 
     38 CB          1.2959  -13.9567  -43.6017 C.3       7 UNK        -0.1800 
     39 N           0.9778  -15.9838  -42.2435 N.am      7 UNK        -0.5000 
     40 C          -0.1793  -15.8642  -41.5762 C.2       6 UNK         0.5000 
     41 O          -1.2121  -15.4027  -42.0638 O.2       6 UNK        -0.5000 
     42 CA         -0.1684  -16.2893  -40.0956 C.3       6 UNK         0.1400 
     43 CB         -0.3229  -17.8092  -39.9489 C.3       6 UNK        -0.1800 
     44 N           1.0355  -15.8593  -39.3796 N.am      6 UNK        -0.5000 
     45 C           1.4098  -14.5850  -39.1914 C.2       5 UNK         0.5000 
     46 O           0.7630  -13.6182  -39.5941 O.2       5 UNK        -0.5000 
     47 CA          2.7207  -14.3344  -38.4182 C.3       5 UNK         0.1400 
     48 CB          2.4313  -13.5975  -37.1004 C.3       5 UNK        -0.1800 
     49 N           3.4606  -15.5617  -38.1021 N.am      5 UNK        -0.5000 
     50 C           4.3246  -16.2345  -38.8754 C.2       4 UNK         0.5000 
     51 O           4.8782  -17.2536  -38.4599 O.2       4 UNK        -0.5000 
     52 CA          4.6674  -15.7191  -40.2940 C.3       4 UNK         0.1400 
     53 CB          5.8113  -14.6927  -40.2380 C.3       4 UNK        -0.1800 
     54 N           5.0852  -16.8184  -41.1629 N.am      4 UNK        -0.5000 
     55 C           4.2679  -17.7545  -41.6572 C.2       3 UNK         0.5000 
     56 O           3.0429  -17.7328  -41.5247 O.2       3 UNK        -0.5000 
     57 CA          4.9419  -18.9267  -42.3957 C.3       3 UNK         0.1400 
     58 CB          4.6976  -20.2438  -41.6426 C.3       3 UNK        -0.1800 
     59 N           4.4980  -19.0855  -43.7816 N.am      3 UNK        -0.5000 
     60 C           4.5868  -18.1613  -44.7473 C.2       2 UNK         0.5000 
     61 O           5.0119  -17.0180  -44.5623 O.2       2 UNK        -0.5000 
     62 CA          4.1849  -18.6055  -46.1675 C.3       2 UNK         0.1400 
     63 CB          2.9717  -19.5548  -46.1977 C.3       2 UNK        -0.1800 
     64 N           3.9101  -17.4250  -46.9795 N.am      2 UNK        -0.5000 
     65 C           4.2578  -17.2330  -48.2552 C.2       1 UNK         0.5000 
     66 O           4.8072  -18.0910  -48.9474 O.2       1 UNK        -0.5000 
     67 C          -1.9607  -20.9310  -47.6722 C.2       11 UNK         0.5000 
     68 O          -1.9784  -21.8261  -48.5209 O.2       11 UNK        -0.5000 
     69 N          -3.0623  -20.4765  -47.0588 N.am      12 UNK        -0.5000 
     70 CA         -4.4179  -20.9985  -47.2382 C.3       12 UNK         0.1400 
     71 CB         -5.4002  -20.1491  -46.4188 C.3       12 UNK        -0.1800 
     72 C          -4.5738  -22.4920  -46.8859 C.2       12 UNK         0.5000 
     73 O          -5.4694  -23.1387  -47.4276 O.2       12 UNK        -0.5000 
     74 N          -3.7007  -23.0140  -46.0145 N.am      13 UNK        -0.5000 
     75 CA         -3.6236  -24.4285  -45.6618 C.3       13 UNK         0.1400 
     76 CB         -3.4597  -24.5626  -44.1391 C.3       13 UNK        -0.1800 
     77 C          -2.4608  -25.1128  -46.3992 C.2       13 UNK         0.5000 
     78 O          -2.6677  -26.1562  -47.0180 O.2       13 UNK        -0.5000 
     79 N          -1.2624  -24.5167  -46.3227 N.am      14 UNK        -0.5000 
     80 CA          0.0007  -25.0894  -46.7938 C.3       14 UNK         0.1400 
     81 CB          1.1674  -24.2290  -46.2832 C.3       14 UNK        -0.1800 
     82 C           0.0872  -25.2595  -48.3197 C.2       14 UNK         0.5000 
     83 O           0.6100  -26.2738  -48.7832 O.2       14 UNK        -0.5000 
     84 N          -0.4299  -24.2766  -49.0662 N.am      15 UNK        -0.5000 
     85 CA         -0.4831  -24.2829  -50.5301 C.3       15 UNK         0.1400 
     86 CB          0.1329  -22.9738  -51.0501 C.3       15 UNK        -0.1800 
     87 C          -1.9262  -24.4358  -51.0412 C.2       15 UNK         0.5000 
     88 O          -2.1476  -24.3482  -52.2498 O.2       15 UNK        -0.5000 
     89 N          -2.8890  -24.6052  -50.1216 N.am      16 UNK        -0.5000 
     90 CA         -4.3352  -24.6554  -50.3565 C.3       16 UNK         0.1400 
     91 CB         -4.7154  -25.9524  -51.1010 C.3       16 UNK        -0.1800 
     92 C          -4.8618  -23.3834  -51.0568 C.2       16 UNK         0.5000 
     93 O          -5.7011  -23.4817  -51.9511 O.2       16 UNK        -0.5000 
     94 N          -4.3118  -22.2167  -50.6795 N.am      17 UNK        -0.5000 
     95 CA         -4.5471  -20.9025  -51.2956 C.3       17 UNK         0.1400 
     96 CB         -6.0057  -20.4380  -51.0980 C.3       17 UNK        -0.1800 
     97 C          -4.0933  -20.8633  -52.7711 C.2       17 UNK         0.5000 
     98 O          -4.8061  -20.3372  -53.6275 O.2       17 UNK        -0.5000 
     99 N          -2.9188  -21.4601  -53.0282 N.am      18 UNK        -0.5000 
    100 CA        -2.3055  -21.6948  -54.3399 C.3       18 UNK         0.1400 
    101 CB        -1.8987  -20.3654  -55.0083 C.3       18 UNK        -0.1800 
    102 C         -3.2004  -22.5780  -55.2314 C.2       18 UNK         0.5000 
    103 O         -3.5176  -22.2027  -56.3597 O.2       18 UNK        -0.5000 
    104 N         -3.6306  -23.7214  -54.6767 N.am      19 UNK        -0.5000 
    105 CA        -4.5958  -24.6674  -55.2526 C.3       19 UNK         0.1400 
    106 CB        -3.9695  -25.4255  -56.4410 C.3       19 UNK        -0.1800 
    107 C         -5.9386  -23.9874  -55.6034 C.2       19 UNK         0.5000 
    108 O         -6.4570  -24.1507  -56.7091 O.2       19 UNK        -0.5000 
    109 N         -6.4423  -23.1988  -54.6451 N.am      20 UNK        -0.5000 
    110 CA        -7.6498  -22.3703  -54.6654 C.3       20 UNK         0.1400 
    111 CB        -8.9082  -23.2333  -54.8894 C.3       20 UNK        -0.1800 
    112 C         -7.6092  -21.1548  -55.6165 C.2       20 UNK         0.5000 
    113 O         -8.5915  -20.4114  -55.6570 O.2       20 UNK        -0.5000 
    114 N         -6.5005  -20.9287  -56.3385 N.am      21 UNK        -0.5000 
    115 CA        -6.3508  -19.8330  -57.3032 C.3       21 UNK         0.1400 
    116 CB        -5.0517  -20.0147  -58.1007 C.3       21 UNK        -0.1800 
    117 C         -6.3912  -18.4324  -56.6639 C.2       21 UNK         0.5000 
    118 O         -6.8550  -17.4901  -57.3082 O.2       21 UNK        -0.5000 
    119 N         -5.9303  -18.3283  -55.4130 N.am      22 UNK        -0.5000 
    120 CA        -5.9684  -17.1066  -54.5952 C.3       22 UNK         0.1400 
    121 C         -7.1690  -17.0825  -53.6024 C.2       22 UNK         0.5000 
    122 N         -8.1192  -18.0090  -53.6729 N.am      22 UNK        -0.7600 
    123 O         -7.2555  -16.1942  -52.7591 O.2       22 UNK        -0.5000 
    124 C124       -4.6164  -16.8646  -53.8761 C.3       23 UNK        -0.0398 
    125 S125       -3.2212  -16.7142  -55.0485 S.3       23 UNK        -0.2404 
    126 C126       -2.1644  -15.4731  -54.2216 C.3       23 UNK        -0.0205 
    127 H127        4.7239  -13.4180  -45.1344 H         1 UNK         0.0600 
    128 H128        3.6728  -12.3290  -46.0462 H         1 UNK         0.0600 
    129 H129        5.2752  -12.7368  -46.6689 H         1 UNK         0.0600 
    130 H130        5.1920  -14.2274  -48.3118 H         1 UNK         0.3000 
    131 H131        4.6032  -15.7562  -49.7453 H         1 UNK         0.0600 
    132 H132        2.3090  -16.5753  -50.0708 H         1 UNK         0.0800 
    133 H133        1.8143  -15.9256  -48.5265 H         1 UNK         0.0800 
    134 H134       -0.0027  -14.3038  -48.9227 H         1 UNK         0.0800 
    135 H135       -0.1197  -13.1719  -50.2452 H         1 UNK         0.0800 
    136 H136       -0.9528  -13.8788  -52.4209 H         1 UNK         0.1150 
    137 H137       -1.9648  -18.0048  -53.0417 H         1 UNK         0.1150 
    138 H138       -0.0884  -16.7727  -49.4079 H         1 UNK         0.1150 
    139 H139       -1.9402  -19.2400  -50.2313 H         1 UNK         0.0800 
    140 H140       -0.9837  -19.6616  -51.6314 H         1 UNK         0.0800 
    141 H141       -1.0964  -18.3940  -48.1218 H         1 UNK         0.0800 
    142 H142        0.5371  -18.5019  -47.5418 H         1 UNK         0.0800 
    143 H143        0.1524  -21.0814  -47.3847 H         1 UNK         0.0600 
    144 H144       -0.3677  -19.0646  -45.5206 H         1 UNK         0.3000 
    145 H145       -1.1642  -21.1200  -42.7078 H         1 UNK         0.0600 
    146 H146        0.7450  -19.9371  -41.8141 H         1 UNK         0.0600 
    147 H147        1.3421  -20.9832  -43.0810 H         1 UNK         0.0600 
    148 H148        1.1775  -19.2606  -43.3787 H         1 UNK         0.0600 
    149 H149       -1.0425  -18.2643  -43.4290 H         1 UNK         0.3000 
    150 H150       -4.5103  -17.9727  -43.9729 H         1 UNK         0.0600 
    151 H151       -4.5193  -16.2664  -42.1456 H         1 UNK         0.0600 
    152 H152       -4.6746  -17.9014  -41.5222 H         1 UNK         0.0600 
    153 H153       -3.1391  -17.0615  -41.3916 H         1 UNK         0.0600 
    154 H154       -2.3429  -16.0811  -43.5931 H         1 UNK         0.3000 
    155 H155       -1.1727  -16.2366  -46.9533 H         1 UNK         0.0600 
    156 H156       -2.9600  -14.0616  -45.7452 H         1 UNK         0.0600 
    157 H157       -3.2392  -14.8776  -47.2797 H         1 UNK         0.0600 
    158 H158       -1.8277  -13.8518  -47.0819 H         1 UNK         0.0600 
    159 H159       -0.6258  -14.3644  -44.9022 H         1 UNK         0.3000 
    160 H160        2.2746  -15.8574  -43.8428 H         1 UNK         0.0600 
    161 H161        0.3533  -13.5239  -43.2659 H         1 UNK         0.0600 
    162 H162        1.5014  -13.5600  -44.5954 H         1 UNK         0.0600 
    163 H163        2.0787  -13.5826  -42.9419 H         1 UNK         0.0600 
    164 H164        1.7345  -16.5003  -41.7989 H         1 UNK         0.3000 
    165 H165       -1.0282  -15.8150  -39.6180 H         1 UNK         0.0600 
    166 H166       -0.5225  -18.0836  -38.9130 H         1 UNK         0.0600 
    167 H167       -1.1495  -18.1892  -40.5494 H         1 UNK         0.0600 
    168 H168        0.5824  -18.3291  -40.2594 H         1 UNK         0.0600 
    169 H169        1.6275  -16.5905  -39.0136 H         1 UNK         0.3000 
    170 H170        3.3360  -13.6754  -39.0310 H         1 UNK         0.0600 
    171 H171        1.9190  -12.6516  -37.2818 H         1 UNK         0.0600 
    172 H172        1.8000  -14.1903  -36.4372 H         1 UNK         0.0600 
    173 H173        3.3538  -13.3657  -36.5674 H         1 UNK         0.0600 
    174 H174        3.2811  -15.9332  -37.1807 H         1 UNK         0.3000 
    175 H175        3.7911  -15.2523  -40.7455 H         1 UNK         0.0600 
    176 H176        6.7250  -15.1325  -39.8361 H         1 UNK         0.0600 
    177 H177        6.0369  -14.3016  -41.2304 H         1 UNK         0.0600 
    178 H178        5.5588  -13.8413  -39.6061 H         1 UNK         0.0600 
    179 H179        6.0801  -16.9231  -41.2966 H         1 UNK         0.3000 
    180 H180        6.0191  -18.7497  -42.4207 H         1 UNK         0.0600 
    181 H181        3.6391  -20.5074  -41.6273 H         1 UNK         0.0600 
    182 H182        5.0306  -20.1682  -40.6065 H         1 UNK         0.0600 
    183 H183        5.2437  -21.0693  -42.0992 H         1 UNK         0.0600 
    184 H184        4.1190  -19.9894  -44.0195 H         1 UNK         0.3000 
    185 H185        5.0476  -19.1324  -46.5796 H         1 UNK         0.0600 
    186 H186        3.1884  -20.5042  -45.7079 H         1 UNK         0.0600 
    187 H187        2.1119  -19.1128  -45.6981 H         1 UNK         0.0600 
    188 H188        2.6815  -19.7880  -47.2222 H         1 UNK         0.0600 
    189 H189        3.5134  -16.6322  -46.4798 H         1 UNK         0.3000 
    190 H190       -2.9731  -19.6716  -46.4462 H         1 UNK         0.3000 
    191 H191       -4.6745  -20.8826  -48.2905 H         1 UNK         0.0600 
    192 H192       -5.3716  -19.1039  -46.7270 H         1 UNK         0.0600 
    193 H193       -6.4252  -20.4970  -46.5530 H         1 UNK         0.0600 
    194 H194       -5.1756  -20.1924  -45.3531 H         1 UNK         0.0600 
    195 H195       -2.9777  -22.4166  -45.6325 H         1 UNK         0.3000 
    196 H196       -4.5453  -24.9429  -45.9418 H         1 UNK         0.0600 
    197 H197       -3.3904  -25.6105  -43.8446 H         1 UNK         0.0600 
    198 H198       -4.3136  -24.1332  -43.6149 H         1 UNK         0.0600 
    199 H199       -2.5619  -24.0593  -43.7784 H         1 UNK         0.0600 
    200 H200       -1.1824  -23.6477  -45.7966 H         1 UNK         0.3000 
    201 H201        0.0956  -26.0820  -46.3486 H         1 UNK         0.0600 
    202 H202        1.1653  -24.1676  -45.1948 H         1 UNK         0.0600 
    203 H203        1.1202  -23.2125  -46.6745 H         1 UNK         0.0600 
    204 H204        2.1268  -24.6522  -46.5831 H         1 UNK         0.0600 
    205 H205       -0.8565  -23.4741  -48.6135 H         1 UNK         0.3000 
    206 H206        0.0922  -25.1157  -50.9389 H         1 UNK         0.0600 
    207 H207        1.1379  -22.8242  -50.6554 H         1 UNK         0.0600 
    208 H208        0.2097  -22.9790  -52.1379 H         1 UNK         0.0600 
    209 H209       -0.4689  -22.1106  -50.7683 H         1 UNK         0.0600 
    210 H210       -2.5980  -24.6839  -49.1576 H         1 UNK         0.3000 
    211 H211       -4.8105  -24.6930  -49.3772 H         1 UNK         0.0600 
    212 H212       -4.3032  -25.9791  -52.1097 H         1 UNK         0.0600 
    213 H213       -5.7980  -26.0520  -51.1869 H         1 UNK         0.0600 
    214 H214       -4.3517  -26.8310  -50.5682 H         1 UNK         0.0600 
    215 H215       -3.5992  -22.2450  -49.9590 H         1 UNK         0.3000 
    216 H216       -3.9141  -20.1957  -50.7619 H         1 UNK         0.0600 
    217 H217       -6.7112  -21.0573  -51.6508 H         1 UNK         0.0600 
    218 H218       -6.1373  -19.4120  -51.4441 H         1 UNK         0.0600 
    219 H219       -6.2929  -20.4640  -50.0473 H         1 UNK         0.0600 
    220 H220       -2.4600  -21.9270  -52.2601 H         1 UNK         0.3000 
    221 H221       -1.3929  -22.2652  -54.1610 H         1 UNK         0.0600 
    222 H222       -2.7625  -19.7369  -55.2253 H         1 UNK         0.0600 
    223 H223       -1.2180  -19.7985  -54.3744 H         1 UNK         0.0600 
    224 H224       -1.3840  -20.5458  -55.9525 H         1 UNK         0.0600 
    225 H225       -3.2827  -23.9517  -53.7490 H         1 UNK         0.3000 
    226 H226       -4.8165  -25.3979  -54.4734 H         1 UNK         0.0600 
    227 H227       -3.0392  -25.9130  -56.1497 H         1 UNK         0.0600 
    228 H228       -4.6423  -26.2022  -56.8062 H         1 UNK         0.0600 
    229 H229       -3.7522  -24.7610  -57.2778 H         1 UNK         0.0600 
    230 H230       -5.9497  -23.1795  -53.7541 H         1 UNK         0.3000 
    231 H231       -7.7221  -21.9500  -53.6619 H         1 UNK         0.0600 
    232 H232       -8.9474  -23.6411  -55.8996 H         1 UNK         0.0600 
    233 H233       -9.8161  -22.6474  -54.7414 H         1 UNK         0.0600 
    234 H234       -8.9447  -24.0666  -54.1876 H         1 UNK         0.0600 
    235 H235       -5.7074  -21.5487  -56.2289 H         1 UNK         0.3000 
    236 H236       -7.1865  -19.8989  -58.0028 H         1 UNK         0.0600 
    237 H237       -5.0012  -21.0021  -58.5601 H         1 UNK         0.0600 
    238 H238       -4.9808  -19.2776  -58.9014 H         1 UNK         0.0600 
    239 H239       -4.1730  -19.8909  -57.4668 H         1 UNK         0.0600 
    240 H240       -5.5696  -19.1561  -54.9444 H         1 UNK         0.3000 
    241 H241       -6.1321  -16.2473  -55.2476 H         1 UNK         0.0600 
    242 H242       -8.0991  -18.7236  -54.3886 H         1 UNK         0.3800 
    243 H243       -8.8930  -17.9701  -53.0289 H         1 UNK         0.3800 
    244 H244       -4.4051  -17.6766  -53.1798 H         1 UNK         0.0800 
    245 H245       -4.6630  -15.9536  -53.2771 H         1 UNK         0.0800 
    246 H246       -2.7435  -14.5571  -54.0950 H         1 UNK         0.0800 
    247 H247       -1.3430  -15.2262  -54.8953 H         1 UNK         0.0800 
@<TRIPOS>BOND
     1    1    2 1    
     2    1  127 1    
     3    1  128 1    
     4    1  129 1    
     5    2    3 2    
     6    2    4 am   BACKBONE|DICT|INTERRES
     7    4    5 1    
     8    4  130 1    
     9    5    6 1    
    10    5   65 1    
    11    5  131 1    
    12    6    7 1    
    13    6  132 1    
    14    6  133 1    
    15    7    8 1    
    16    8    9 1    
    17    8  134 1    
    18    8  135 1    
    19    9   10 ar   
    20    9   14 ar   
    21   10   11 ar   
    22   10  136 1    
    23   11   12 ar   
    24   11  126 1    
    25   12   13 ar   
    26   12  137 1    
    27   13   14 ar   
    28   13   15 1    
    29   14  138 1    
    30   15   16 1    
    31   15  139 1    
    32   15  140 1    
    33   16   17 1    
    34   17   18 1    
    35   17  141 1    
    36   17  142 1    
    37   18   19 1    
    38   18   67 1    
    39   18  143 1    
    40   19   20 am   BACKBONE|DICT|INTERRES
    41   19  144 1    
    42   20   21 2    
    43   20   22 1    
    44   22   23 1    
    45   22   24 1    
    46   22  145 1    
    47   23  146 1    
    48   23  147 1    
    49   23  148 1    
    50   24   25 am   BACKBONE|DICT|INTERRES
    51   24  149 1    
    52   25   26 2    
    53   25   27 1    
    54   27   28 1    
    55   27   29 1    
    56   27  150 1    
    57   28  151 1    
    58   28  152 1    
    59   28  153 1    
    60   29   30 am   BACKBONE|DICT|INTERRES
    61   29  154 1    
    62   30   31 2    
    63   30   32 1    
    64   32   33 1    
    65   32   34 1    
    66   32  155 1    
    67   33  156 1    
    68   33  157 1    
    69   33  158 1    
    70   34   35 am   BACKBONE|DICT|INTERRES
    71   34  159 1    
    72   35   36 2    
    73   35   37 1    
    74   37   38 1    
    75   37   39 1    
    76   37  160 1    
    77   38  161 1    
    78   38  162 1    
    79   38  163 1    
    80   39   40 am   BACKBONE|DICT|INTERRES
    81   39  164 1    
    82   40   41 2    
    83   40   42 1    
    84   42   43 1    
    85   42   44 1    
    86   42  165 1    
    87   43  166 1    
    88   43  167 1    
    89   43  168 1    
    90   44   45 am   BACKBONE|DICT|INTERRES
    91   44  169 1    
    92   45   46 2    
    93   45   47 1    
    94   47   48 1    
    95   47   49 1    
    96   47  170 1    
    97   48  171 1    
    98   48  172 1    
    99   48  173 1    
   100   49   50 am   BACKBONE|DICT|INTERRES
   101   49  174 1    
   102   50   51 2    
   103   50   52 1    
   104   52   53 1    
   105   52   54 1    
   106   52  175 1    
   107   53  176 1    
   108   53  177 1    
   109   53  178 1    
   110   54   55 am   BACKBONE|DICT|INTERRES
   111   54  179 1    
   112   55   56 2    
   113   55   57 1    
   114   57   58 1    
   115   57   59 1    
   116   57  180 1    
   117   58  181 1    
   118   58  182 1    
   119   58  183 1    
   120   59   60 am   BACKBONE|DICT|INTERRES
   121   59  184 1    
   122   60   61 2    
   123   60   62 1    
   124   62   63 1    
   125   62   64 1    
   126   62  185 1    
   127   63  186 1    
   128   63  187 1    
   129   63  188 1    
   130   64   65 am   BACKBONE|DICT|INTERRES
   131   64  189 1    
   132   65   66 2    
   133   67   68 2    
   134   67   69 am   BACKBONE|DICT|INTERRES
   135   69   70 1    
   136   69  190 1    
   137   70   71 1    
   138   70   72 1    
   139   70  191 1    
   140   71  192 1    
   141   71  193 1    
   142   71  194 1    
   143   72   73 2    
   144   72   74 am   BACKBONE|DICT|INTERRES
   145   74   75 1    
   146   74  195 1    
   147   75   76 1    
   148   75   77 1    
   149   75  196 1    
   150   76  197 1    
   151   76  198 1    
   152   76  199 1    
   153   77   78 2    
   154   77   79 am   BACKBONE|DICT|INTERRES
   155   79   80 1    
   156   79  200 1    
   157   80   81 1    
   158   80   82 1    
   159   80  201 1    
   160   81  202 1    
   161   81  203 1    
   162   81  204 1    
   163   82   83 2    
   164   82   84 am   BACKBONE|DICT|INTERRES
   165   84   85 1    
   166   84  205 1    
   167   85   86 1    
   168   85   87 1    
   169   85  206 1    
   170   86  207 1    
   171   86  208 1    
   172   86  209 1    
   173   87   88 2    
   174   87   89 am   BACKBONE|DICT|INTERRES
   175   89   90 1    
   176   89  210 1    
   177   90   91 1    
   178   90   92 1    
   179   90  211 1    
   180   91  212 1    
   181   91  213 1    
   182   91  214 1    
   183   92   93 2    
   184   92   94 am   BACKBONE|DICT|INTERRES
   185   94   95 1    
   186   94  215 1    
   187   95   96 1    
   188   95   97 1    
   189   95  216 1    
   190   96  217 1    
   191   96  218 1    
   192   96  219 1    
   193   97   98 2    
   194   97   99 am   BACKBONE|DICT|INTERRES
   195   99  100 1    
   196   99  220 1    
   197  100  101 1    
   198  100  102 1    
   199  100  221 1    
   200  101  222 1    
   201  101  223 1    
   202  101  224 1    
   203  102  103 2    
   204  102  104 am   BACKBONE|DICT|INTERRES
   205  104  105 1    
   206  104  225 1    
   207  105  106 1    
   208  105  107 1    
   209  105  226 1    
   210  106  227 1    
   211  106  228 1    
   212  106  229 1    
   213  107  108 2    
   214  107  109 am   BACKBONE|DICT|INTERRES
   215  109  110 1    
   216  109  230 1    
   217  110  111 1    
   218  110  112 1    
   219  110  231 1    
   220  111  232 1    
   221  111  233 1    
   222  111  234 1    
   223  112  113 2    
   224  112  114 am   BACKBONE|DICT|INTERRES
   225  114  115 1    
   226  114  235 1    
   227  115  116 1    
   228  115  117 1    
   229  115  236 1    
   230  116  237 1    
   231  116  238 1    
   232  116  239 1    
   233  117  118 2    
   234  117  119 am   BACKBONE|DICT|INTERRES
   235  119  120 1    
   236  119  240 1    
   237  120  121 1    
   238  120  124 1    
   239  120  241 1    
   240  121  122 am   BACKBONE|DICT|INTERRES
   241  121  123 2    
   242  122  242 1    
   243  122  243 1    
   244  124  125 1    
   245  124  244 1    
   246  124  245 1    
   247  125  126 1    
   248  126  246 1    
   249  126  247 1    
@<TRIPOS>SUBSTRUCTURE
     1 UNK         1 GROUP             0       ****    0 ROOT    
