@<TRIPOS>MOLECULE
3R540
247   249    1
SMALL
USER_CHARGES


@<TRIPOS>ATOM
      1 CA         -3.5457  -15.4966  -46.3891 C.3       0 UNK        -0.1800 
      2 C          -2.6829  -14.5832  -47.2474 C.2       0 UNK         0.5000 
      3 O          -2.3875  -13.4586  -46.8433 O.2       0 UNK        -0.5000 
      4 N          -2.2595  -15.0666  -48.4239 N.am      1 UNK        -0.5000 
      5 CA         -1.4505  -14.3325  -49.4099 C.3       1 UNK         0.1400 
      6 C6         -1.3791  -15.0791  -50.7660 C.3       23 UNK        -0.0398 
      7 S7         -0.5343  -16.7004  -50.6919 S.3       23 UNK        -0.2404 
      8 C8          1.0397  -16.2723  -51.5011 C.3       23 UNK        -0.0205 
      9 C9          2.0116  -17.4396  -51.4991 C.ar      23 UNK        -0.0193 
     10 C10         1.9663  -18.3898  -52.5233 C.ar      23 UNK        -0.1150 
     11 C11         2.8574  -19.4660  -52.5324 C.ar      23 UNK        -0.0193 
     12 C12         3.8115  -19.5743  -51.5179 C.ar      23 UNK        -0.1150 
     13 C13         3.8598  -18.6385  -50.4797 C.ar      23 UNK        -0.0193 
     14 C14         2.9606  -17.5678  -50.4795 C.ar      23 UNK        -0.1150 
     15 C15         4.8721  -18.8068  -49.3520 C.3       23 UNK        -0.0205 
     16 S16         4.1015  -19.2843  -47.7664 S.3       23 UNK        -0.2404 
     17 C17         3.1155  -20.7501  -48.2225 C.3       23 UNK        -0.0398 
     18 CA          3.5510  -22.0681  -47.5383 C.3       11 UNK         0.1400 
     19 N           3.3368  -22.0393  -46.0858 N.am      11 UNK        -0.5000 
     20 C           3.7788  -22.9699  -45.2273 C.2       10 UNK         0.5000 
     21 O           4.5216  -23.8978  -45.5496 O.2       10 UNK        -0.5000 
     22 CA          3.2635  -22.8828  -43.7766 C.3       10 UNK         0.1400 
     23 CB          4.1394  -21.9490  -42.9275 C.3       10 UNK        -0.1800 
     24 N           1.8625  -22.4584  -43.7059 N.am      10 UNK        -0.5000 
     25 C           0.8277  -23.1991  -44.1298 C.2       9 UNK         0.5000 
     26 O           0.9416  -24.3469  -44.5590 O.2       9 UNK        -0.5000 
     27 CA         -0.5628  -22.5404  -44.1240 C.3       9 UNK         0.1400 
     28 CB         -1.2474  -22.7083  -42.7600 C.3       9 UNK        -0.1800 
     29 N          -0.5202  -21.1233  -44.4890 N.am      9 UNK        -0.5000 
     30 C          -0.2078  -20.6620  -45.7077 C.2       8 UNK         0.5000 
     31 O          -0.0006  -21.3932  -46.6741 O.2       8 UNK        -0.5000 
     32 CA         -0.0476  -19.1385  -45.8712 C.3       8 UNK         0.1400 
     33 CB         -1.3850  -18.4727  -46.2181 C.3       8 UNK        -0.1800 
     34 N           0.5334  -18.5009  -44.6896 N.am      8 UNK        -0.5000 
     35 C           1.7715  -18.7512  -44.2388 C.2       7 UNK         0.5000 
     36 O           2.5524  -19.5217  -44.7932 O.2       7 UNK        -0.5000 
     37 CA          2.1763  -18.0931  -42.9100 C.3       7 UNK         0.1400 
     38 CB          2.6031  -16.6316  -43.1089 C.3       7 UNK        -0.1800 
     39 N           1.0964  -18.1703  -41.9278 N.am      7 UNK        -0.5000 
     40 C           0.7049  -19.3075  -41.3355 C.2       6 UNK         0.5000 
     41 O           1.2557  -20.3939  -41.5129 O.2       6 UNK        -0.5000 
     42 CA         -0.5350  -19.2215  -40.4269 C.3       6 UNK         0.1400 
     43 CB         -0.1368  -18.7900  -39.0077 C.3       6 UNK        -0.1800 
     44 N          -1.5478  -18.3012  -40.9474 N.am      6 UNK        -0.5000 
     45 C          -2.2557  -18.5066  -42.0675 C.2       5 UNK         0.5000 
     46 O          -2.1596  -19.5160  -42.7622 O.2       5 UNK        -0.5000 
     47 CA         -3.1879  -17.3676  -42.5154 C.3       5 UNK         0.1400 
     48 CB         -4.5674  -17.5017  -41.8549 C.3       5 UNK        -0.1800 
     49 N          -2.6329  -16.0409  -42.2342 N.am      5 UNK        -0.5000 
     50 C          -1.5384  -15.5473  -42.8256 C.2       4 UNK         0.5000 
     51 O          -0.8826  -16.1580  -43.6750 O.2       4 UNK        -0.5000 
     52 CA         -1.0790  -14.1584  -42.3747 C.3       4 UNK         0.1400 
     53 CB         -0.0297  -14.2622  -41.2537 C.3       4 UNK        -0.1800 
     54 N          -0.5265  -13.4789  -43.5373 N.am      4 UNK        -0.5000 
     55 C          -0.3755  -12.1587  -43.6792 C.2       3 UNK         0.5000 
     56 O          -0.6037  -11.3503  -42.7777 O.2       3 UNK        -0.5000 
     57 CA          0.0441  -11.6442  -45.0709 C.3       3 UNK         0.1400 
     58 CB          1.0882  -10.5096  -45.0030 C.3       3 UNK        -0.1800 
     59 N           0.4325  -12.7053  -46.0091 N.am      3 UNK        -0.5000 
     60 C           1.5809  -13.3982  -46.0728 C.2       2 UNK         0.5000 
     61 O           2.5217  -13.2327  -45.2967 O.2       2 UNK        -0.5000 
     62 CA          1.6997  -14.4739  -47.1794 C.3       2 UNK         0.1400 
     63 CB          2.1602  -15.8210  -46.6032 C.3       2 UNK        -0.1800 
     64 N           0.4487  -14.7026  -47.9010 N.am      2 UNK        -0.5000 
     65 C          -0.0454  -13.9478  -48.8911 C.2       1 UNK         0.5000 
     66 O           0.5391  -12.9749  -49.3674 O.2       1 UNK        -0.5000 
     67 C           2.8010  -23.2333  -48.2254 C.2       11 UNK         0.5000 
     68 O           3.2453  -23.6916  -49.2781 O.2       11 UNK        -0.5000 
     69 N           1.6603  -23.6392  -47.6463 N.am      12 UNK        -0.5000 
     70 CA          0.6059  -24.4737  -48.2336 C.3       12 UNK         0.1400 
     71 CB          1.1148  -25.8927  -48.5624 C.3       12 UNK        -0.1800 
     72 C          -0.0692  -23.7595  -49.4263 C.2       12 UNK         0.5000 
     73 O          -0.3085  -24.3696  -50.4700 O.2       12 UNK        -0.5000 
     74 N          -0.3354  -22.4618  -49.2352 N.am      13 UNK        -0.5000 
     75 CA         -0.9051  -21.5396  -50.2092 C.3       13 UNK         0.1400 
     76 CB          0.0177  -20.3096  -50.3005 C.3       13 UNK        -0.1800 
     77 C          -2.3531  -21.1940  -49.8104 C.2       13 UNK         0.5000 
     78 O          -3.1272  -22.0976  -49.4890 O.2       13 UNK        -0.5000 
     79 N          -2.7015  -19.8994  -49.8276 N.am      14 UNK        -0.5000 
     80 CA         -4.0482  -19.3477  -49.6436 C.3       14 UNK         0.1400 
     81 CB         -4.0651  -17.9198  -50.2161 C.3       14 UNK        -0.1800 
     82 C          -4.5979  -19.3960  -48.1984 C.2       14 UNK         0.5000 
     83 O          -5.3077  -18.4791  -47.7793 O.2       14 UNK        -0.5000 
     84 N          -4.2739  -20.4563  -47.4505 N.am      15 UNK        -0.5000 
     85 CA         -4.7789  -20.7195  -46.1040 C.3       15 UNK         0.1400 
     86 CB         -4.0515  -21.9405  -45.5301 C.3       15 UNK        -0.1800 
     87 C          -6.2983  -20.9571  -46.1224 C.2       15 UNK         0.5000 
     88 O          -6.7906  -21.6437  -47.0190 O.2       15 UNK        -0.5000 
     89 N          -7.0119  -20.3671  -45.1533 N.am      16 UNK        -0.5000 
     90 CA         -8.4754  -20.4017  -45.0087 C.3       16 UNK         0.1400 
     91 CB         -8.9468  -21.8169  -44.6125 C.3       16 UNK        -0.1800 
     92 C          -9.2295  -19.8402  -46.2383 C.2       16 UNK         0.5000 
     93 O         -10.3276  -20.3017  -46.5531 O.2       16 UNK        -0.5000 
     94 N          -8.6122  -18.8545  -46.9086 N.am      17 UNK        -0.5000 
     95 CA         -9.0717  -18.1795  -48.1271 C.3       17 UNK         0.1400 
     96 CB        -10.3853  -17.4079  -47.8778 C.3       17 UNK        -0.1800 
     97 C          -9.1315  -19.0992  -49.3674 C.2       17 UNK         0.5000 
     98 O          -9.9443  -18.8675  -50.2652 O.2       17 UNK        -0.5000 
     99 N          -8.2501  -20.1085  -49.4168 N.am      18 UNK        -0.5000 
    100 CA        -7.9875  -20.9326  -50.5998 C.3       18 UNK         0.1400 
    101 CB        -7.1899  -22.1744  -50.1653 C.3       18 UNK        -0.1800 
    102 C         -7.2358  -20.1491  -51.6997 C.2       18 UNK         0.5000 
    103 O         -6.8731  -18.9868  -51.5043 O.2       18 UNK        -0.5000 
    104 N         -6.9916  -20.8036  -52.8412 N.am      19 UNK        -0.5000 
    105 CA        -6.1772  -20.2656  -53.9317 C.3       19 UNK         0.1400 
    106 CB        -6.3528  -21.1528  -55.1742 C.3       19 UNK        -0.1800 
    107 C         -4.6878  -20.1763  -53.5441 C.2       19 UNK         0.5000 
    108 O         -4.1751  -21.0677  -52.8652 O.2       19 UNK        -0.5000 
    109 N         -4.0124  -19.1249  -54.0242 N.am      20 UNK        -0.5000 
    110 CA        -2.5761  -18.8953  -53.8299 C.3       20 UNK         0.1400 
    111 CB        -2.2945  -17.3898  -53.9664 C.3       20 UNK        -0.1800 
    112 C         -1.6915  -19.7015  -54.8038 C.2       20 UNK         0.5000 
    113 O         -0.4686  -19.6586  -54.6823 O.2       20 UNK        -0.5000 
    114 N         -2.3077  -20.3965  -55.7690 N.am      21 UNK        -0.5000 
    115 CA        -1.6459  -21.2519  -56.7491 C.3       21 UNK         0.1400 
    116 CB        -2.6374  -21.5626  -57.8839 C.3       21 UNK        -0.1800 
    117 C         -1.1083  -22.5359  -56.0884 C.2       21 UNK         0.5000 
    118 O         -1.8589  -23.4987  -55.9186 O.2       21 UNK        -0.5000 
    119 N          0.1758  -22.5155  -55.7143 N.am      22 UNK        -0.5000 
    120 CA         0.8915  -23.6442  -55.0934 C.3       22 UNK         0.1400 
    121 C          1.1961  -24.8325  -56.0551 C.2       22 UNK         0.5000 
    122 N          1.0612  -24.6845  -57.3677 N.am      22 UNK        -0.7600 
    123 O          1.5587  -25.9137  -55.5996 O.2       22 UNK        -0.5000 
    124 C124        2.1899  -23.1829  -54.3827 C.3       23 UNK        -0.0398 
    125 S125        1.8831  -21.9960  -53.0316 S.3       23 UNK        -0.2404 
    126 C126        2.7839  -20.5270  -53.6191 C.3       23 UNK        -0.0205 
    127 H127       -4.5215  -15.0418  -46.2199 H         1 UNK         0.0600 
    128 H128       -3.0724  -15.6594  -45.4221 H         1 UNK         0.0600 
    129 H129       -3.7005  -16.4677  -46.8588 H         1 UNK         0.0600 
    130 H130       -2.5217  -16.0019  -48.6957 H         1 UNK         0.3000 
    131 H131       -1.9710  -13.3900  -49.5930 H         1 UNK         0.0600 
    132 H132       -2.3898  -15.2483  -51.1395 H         1 UNK         0.0800 
    133 H133       -0.9013  -14.4482  -51.5175 H         1 UNK         0.0800 
    134 H134        1.4913  -15.4165  -50.9976 H         1 UNK         0.0800 
    135 H135        0.8443  -15.9577  -52.5274 H         1 UNK         0.0800 
    136 H136        1.2251  -18.2987  -53.3040 H         1 UNK         0.1150 
    137 H137        4.4956  -20.4114  -51.5207 H         1 UNK         0.1150 
    138 H138        2.9927  -16.8422  -49.6794 H         1 UNK         0.1150 
    139 H139        5.6221  -19.5537  -49.6166 H         1 UNK         0.0800 
    140 H140        5.4121  -17.8694  -49.2127 H         1 UNK         0.0800 
    141 H141        3.1522  -20.8772  -49.3027 H         1 UNK         0.0800 
    142 H142        2.0740  -20.5265  -47.9950 H         1 UNK         0.0800 
    143 H143        4.6178  -22.2148  -47.7194 H         1 UNK         0.0600 
    144 H144        2.8220  -21.2449  -45.7165 H         1 UNK         0.3000 
    145 H145        3.3291  -23.8832  -43.3436 H         1 UNK         0.0600 
    146 H146        3.7873  -21.9074  -41.8965 H         1 UNK         0.0600 
    147 H147        5.1715  -22.3003  -42.9055 H         1 UNK         0.0600 
    148 H148        4.1509  -20.9321  -43.3177 H         1 UNK         0.0600 
    149 H149        1.6826  -21.5358  -43.3281 H         1 UNK         0.3000 
    150 H150       -1.1666  -23.0637  -44.8677 H         1 UNK         0.0600 
    151 H151       -1.3157  -23.7614  -42.4847 H         1 UNK         0.0600 
    152 H152       -2.2622  -22.3107  -42.7772 H         1 UNK         0.0600 
    153 H153       -0.7009  -22.1971  -41.9680 H         1 UNK         0.0600 
    154 H154       -0.7760  -20.4585  -43.7656 H         1 UNK         0.3000 
    155 H155        0.6364  -18.9670  -46.7050 H         1 UNK         0.0600 
    156 H156       -2.1306  -18.6316  -45.4391 H         1 UNK         0.0600 
    157 H157       -1.7864  -18.8751  -47.1479 H         1 UNK         0.0600 
    158 H158       -1.2622  -17.3988  -46.3534 H         1 UNK         0.0600 
    159 H159       -0.0424  -17.8214  -44.2012 H         1 UNK         0.3000 
    160 H160        3.0358  -18.6405  -42.5169 H         1 UNK         0.0600 
    161 H161        1.7910  -16.0156  -43.4942 H         1 UNK         0.0600 
    162 H162        3.4309  -16.5631  -43.8153 H         1 UNK         0.0600 
    163 H163        2.9423  -16.1902  -42.1719 H         1 UNK         0.0600 
    164 H164        0.5672  -17.3283  -41.7627 H         1 UNK         0.3000 
    165 H165       -0.9771  -20.2184  -40.3702 H         1 UNK         0.0600 
    166 H166       -0.9969  -18.7967  -38.3379 H         1 UNK         0.0600 
    167 H167        0.6059  -19.4699  -38.5878 H         1 UNK         0.0600 
    168 H168        0.2917  -17.7870  -38.9950 H         1 UNK         0.0600 
    169 H169       -1.6952  -17.4452  -40.4340 H         1 UNK         0.3000 
    170 H170       -3.3206  -17.4569  -43.5956 H         1 UNK         0.0600 
    171 H171       -5.0066  -18.4783  -42.0634 H         1 UNK         0.0600 
    172 H172       -4.5090  -17.3925  -40.7713 H         1 UNK         0.0600 
    173 H173       -5.2594  -16.7484  -42.2320 H         1 UNK         0.0600 
    174 H174       -3.1196  -15.4830  -41.5471 H         1 UNK         0.3000 
    175 H175       -1.9463  -13.6010  -42.0146 H         1 UNK         0.0600 
    176 H176        0.8726  -14.7712  -41.5913 H         1 UNK         0.0600 
    177 H177        0.2625  -13.2759  -40.8932 H         1 UNK         0.0600 
    178 H178       -0.4209  -14.8146  -40.3985 H         1 UNK         0.0600 
    179 H179       -0.3404  -14.0848  -44.3256 H         1 UNK         0.3000 
    180 H180       -0.8618  -11.2126  -45.4989 H         1 UNK         0.0600 
    181 H181        1.9920  -10.8172  -44.4770 H         1 UNK         0.0600 
    182 H182        0.6876   -9.6445  -44.4734 H         1 UNK         0.0600 
    183 H183        1.3739  -10.1741  -45.9998 H         1 UNK         0.0600 
    184 H184       -0.3005  -12.9636  -46.6595 H         1 UNK         0.3000 
    185 H185        2.4561  -14.1289  -47.8872 H         1 UNK         0.0600 
    186 H186        3.1336  -15.7340  -46.1198 H         1 UNK         0.0600 
    187 H187        1.4512  -16.1900  -45.8639 H         1 UNK         0.0600 
    188 H188        2.2541  -16.5788  -47.3810 H         1 UNK         0.0600 
    189 H189       -0.1119  -15.4797  -47.5856 H         1 UNK         0.3000 
    190 H190        1.3939  -23.1662  -46.7928 H         1 UNK         0.3000 
    191 H191       -0.1613  -24.5728  -47.4643 H         1 UNK         0.0600 
    192 H192        1.8275  -25.8924  -49.3871 H         1 UNK         0.0600 
    193 H193        0.2878  -26.5427  -48.8500 H         1 UNK         0.0600 
    194 H194        1.5996  -26.3464  -47.6980 H         1 UNK         0.0600 
    195 H195       -0.1654  -22.0717  -48.3096 H         1 UNK         0.3000 
    196 H196       -0.9450  -22.0066  -51.1954 H         1 UNK         0.0600 
    197 H197       -0.2832  -19.6546  -51.1182 H         1 UNK         0.0600 
    198 H198        1.0440  -20.6100  -50.5054 H         1 UNK         0.0600 
    199 H199        0.0287  -19.7275  -49.3779 H         1 UNK         0.0600 
    200 H200       -1.9850  -19.2279  -50.0627 H         1 UNK         0.3000 
    201 H201       -4.7247  -19.9550  -50.2441 H         1 UNK         0.0600 
    202 H202       -3.7624  -17.9092  -51.2616 H         1 UNK         0.0600 
    203 H203       -3.3963  -17.2640  -49.6631 H         1 UNK         0.0600 
    204 H204       -5.0633  -17.4827  -50.1720 H         1 UNK         0.0600 
    205 H205       -3.7683  -21.2080  -47.9086 H         1 UNK         0.3000 
    206 H206       -4.5523  -19.8514  -45.4813 H         1 UNK         0.0600 
    207 H207       -4.3390  -22.1189  -44.4934 H         1 UNK         0.0600 
    208 H208       -4.2707  -22.8458  -46.0979 H         1 UNK         0.0600 
    209 H209       -2.9759  -21.7879  -45.5508 H         1 UNK         0.0600 
    210 H210       -6.5230  -19.8147  -44.4629 H         1 UNK         0.3000 
    211 H211       -8.7161  -19.7334  -44.1808 H         1 UNK         0.0600 
    212 H212       -8.8003  -22.5340  -45.4208 H         1 UNK         0.0600 
    213 H213      -10.0080  -21.8207  -44.3611 H         1 UNK         0.0600 
    214 H214       -8.4073  -22.1820  -43.7386 H         1 UNK         0.0600 
    215 H215       -7.6960  -18.5735  -46.5855 H         1 UNK         0.3000 
    216 H216       -8.3036  -17.4392  -48.3559 H         1 UNK         0.0600 
    217 H217      -10.6309  -16.7702  -48.7278 H         1 UNK         0.0600 
    218 H218      -10.3041  -16.7619  -47.0037 H         1 UNK         0.0600 
    219 H219      -11.2292  -18.0803  -47.7223 H         1 UNK         0.0600 
    220 H220       -7.6446  -20.2616  -48.6210 H         1 UNK         0.3000 
    221 H221       -8.9435  -21.2594  -51.0137 H         1 UNK         0.0600 
    222 H222       -6.2102  -21.9065  -49.7675 H         1 UNK         0.0600 
    223 H223       -7.7214  -22.7315  -49.3934 H         1 UNK         0.0600 
    224 H224       -7.0279  -22.8602  -50.9972 H         1 UNK         0.0600 
    225 H225       -7.2837  -21.7655  -52.9313 H         1 UNK         0.3000 
    226 H226       -6.5425  -19.2638  -54.1685 H         1 UNK         0.0600 
    227 H227       -7.3988  -21.2058  -55.4769 H         1 UNK         0.0600 
    228 H228       -5.7915  -20.7573  -56.0216 H         1 UNK         0.0600 
    229 H229       -6.0028  -22.1705  -54.9954 H         1 UNK         0.0600 
    230 H230       -4.5019  -18.4369  -54.5789 H         1 UNK         0.3000 
    231 H231       -2.2999  -19.2011  -52.8186 H         1 UNK         0.0600 
    232 H232       -2.8777  -16.8095  -53.2518 H         1 UNK         0.0600 
    233 H233       -2.5298  -17.0254  -54.9669 H         1 UNK         0.0600 
    234 H234       -1.2432  -17.1697  -53.7762 H         1 UNK         0.0600 
    235 H235       -3.3154  -20.3909  -55.7852 H         1 UNK         0.3000 
    236 H236       -0.8060  -20.7037  -57.1817 H         1 UNK         0.0600 
    237 H237       -2.1826  -22.2141  -58.6311 H         1 UNK         0.0600 
    238 H238       -3.5343  -22.0619  -57.5148 H         1 UNK         0.0600 
    239 H239       -2.9488  -20.6513  -58.3948 H         1 UNK         0.0600 
    240 H240        0.6980  -21.6571  -55.8162 H         1 UNK         0.3000 
    241 H241        0.2330  -24.0541  -54.3247 H         1 UNK         0.0600 
    242 H242        1.2579  -25.4630  -57.9775 H         1 UNK         0.3800 
    243 H243        0.7681  -23.8040  -57.7588 H         1 UNK         0.3800 
    244 H244        2.8859  -22.7550  -55.1059 H         1 UNK         0.0800 
    245 H245        2.7053  -24.0363  -53.9383 H         1 UNK         0.0800 
    246 H246        2.2922  -20.1307  -54.5086 H         1 UNK         0.0800 
    247 H247        3.7942  -20.8097  -53.9183 H         1 UNK         0.0800 
@<TRIPOS>BOND
     1    1    2 1    
     2    1  127 1    
     3    1  128 1    
     4    1  129 1    
     5    2    3 2    
     6    2    4 am   BACKBONE|DICT|INTERRES
     7    4    5 1    
     8    4  130 1    
     9    5    6 1    
    10    5   65 1    
    11    5  131 1    
    12    6    7 1    
    13    6  132 1    
    14    6  133 1    
    15    7    8 1    
    16    8    9 1    
    17    8  134 1    
    18    8  135 1    
    19    9   10 ar   
    20    9   14 ar   
    21   10   11 ar   
    22   10  136 1    
    23   11   12 ar   
    24   11  126 1    
    25   12   13 ar   
    26   12  137 1    
    27   13   14 ar   
    28   13   15 1    
    29   14  138 1    
    30   15   16 1    
    31   15  139 1    
    32   15  140 1    
    33   16   17 1    
    34   17   18 1    
    35   17  141 1    
    36   17  142 1    
    37   18   19 1    
    38   18   67 1    
    39   18  143 1    
    40   19   20 am   BACKBONE|DICT|INTERRES
    41   19  144 1    
    42   20   21 2    
    43   20   22 1    
    44   22   23 1    
    45   22   24 1    
    46   22  145 1    
    47   23  146 1    
    48   23  147 1    
    49   23  148 1    
    50   24   25 am   BACKBONE|DICT|INTERRES
    51   24  149 1    
    52   25   26 2    
    53   25   27 1    
    54   27   28 1    
    55   27   29 1    
    56   27  150 1    
    57   28  151 1    
    58   28  152 1    
    59   28  153 1    
    60   29   30 am   BACKBONE|DICT|INTERRES
    61   29  154 1    
    62   30   31 2    
    63   30   32 1    
    64   32   33 1    
    65   32   34 1    
    66   32  155 1    
    67   33  156 1    
    68   33  157 1    
    69   33  158 1    
    70   34   35 am   BACKBONE|DICT|INTERRES
    71   34  159 1    
    72   35   36 2    
    73   35   37 1    
    74   37   38 1    
    75   37   39 1    
    76   37  160 1    
    77   38  161 1    
    78   38  162 1    
    79   38  163 1    
    80   39   40 am   BACKBONE|DICT|INTERRES
    81   39  164 1    
    82   40   41 2    
    83   40   42 1    
    84   42   43 1    
    85   42   44 1    
    86   42  165 1    
    87   43  166 1    
    88   43  167 1    
    89   43  168 1    
    90   44   45 am   BACKBONE|DICT|INTERRES
    91   44  169 1    
    92   45   46 2    
    93   45   47 1    
    94   47   48 1    
    95   47   49 1    
    96   47  170 1    
    97   48  171 1    
    98   48  172 1    
    99   48  173 1    
   100   49   50 am   BACKBONE|DICT|INTERRES
   101   49  174 1    
   102   50   51 2    
   103   50   52 1    
   104   52   53 1    
   105   52   54 1    
   106   52  175 1    
   107   53  176 1    
   108   53  177 1    
   109   53  178 1    
   110   54   55 am   BACKBONE|DICT|INTERRES
   111   54  179 1    
   112   55   56 2    
   113   55   57 1    
   114   57   58 1    
   115   57   59 1    
   116   57  180 1    
   117   58  181 1    
   118   58  182 1    
   119   58  183 1    
   120   59   60 am   BACKBONE|DICT|INTERRES
   121   59  184 1    
   122   60   61 2    
   123   60   62 1    
   124   62   63 1    
   125   62   64 1    
   126   62  185 1    
   127   63  186 1    
   128   63  187 1    
   129   63  188 1    
   130   64   65 am   BACKBONE|DICT|INTERRES
   131   64  189 1    
   132   65   66 2    
   133   67   68 2    
   134   67   69 am   BACKBONE|DICT|INTERRES
   135   69   70 1    
   136   69  190 1    
   137   70   71 1    
   138   70   72 1    
   139   70  191 1    
   140   71  192 1    
   141   71  193 1    
   142   71  194 1    
   143   72   73 2    
   144   72   74 am   BACKBONE|DICT|INTERRES
   145   74   75 1    
   146   74  195 1    
   147   75   76 1    
   148   75   77 1    
   149   75  196 1    
   150   76  197 1    
   151   76  198 1    
   152   76  199 1    
   153   77   78 2    
   154   77   79 am   BACKBONE|DICT|INTERRES
   155   79   80 1    
   156   79  200 1    
   157   80   81 1    
   158   80   82 1    
   159   80  201 1    
   160   81  202 1    
   161   81  203 1    
   162   81  204 1    
   163   82   83 2    
   164   82   84 am   BACKBONE|DICT|INTERRES
   165   84   85 1    
   166   84  205 1    
   167   85   86 1    
   168   85   87 1    
   169   85  206 1    
   170   86  207 1    
   171   86  208 1    
   172   86  209 1    
   173   87   88 2    
   174   87   89 am   BACKBONE|DICT|INTERRES
   175   89   90 1    
   176   89  210 1    
   177   90   91 1    
   178   90   92 1    
   179   90  211 1    
   180   91  212 1    
   181   91  213 1    
   182   91  214 1    
   183   92   93 2    
   184   92   94 am   BACKBONE|DICT|INTERRES
   185   94   95 1    
   186   94  215 1    
   187   95   96 1    
   188   95   97 1    
   189   95  216 1    
   190   96  217 1    
   191   96  218 1    
   192   96  219 1    
   193   97   98 2    
   194   97   99 am   BACKBONE|DICT|INTERRES
   195   99  100 1    
   196   99  220 1    
   197  100  101 1    
   198  100  102 1    
   199  100  221 1    
   200  101  222 1    
   201  101  223 1    
   202  101  224 1    
   203  102  103 2    
   204  102  104 am   BACKBONE|DICT|INTERRES
   205  104  105 1    
   206  104  225 1    
   207  105  106 1    
   208  105  107 1    
   209  105  226 1    
   210  106  227 1    
   211  106  228 1    
   212  106  229 1    
   213  107  108 2    
   214  107  109 am   BACKBONE|DICT|INTERRES
   215  109  110 1    
   216  109  230 1    
   217  110  111 1    
   218  110  112 1    
   219  110  231 1    
   220  111  232 1    
   221  111  233 1    
   222  111  234 1    
   223  112  113 2    
   224  112  114 am   BACKBONE|DICT|INTERRES
   225  114  115 1    
   226  114  235 1    
   227  115  116 1    
   228  115  117 1    
   229  115  236 1    
   230  116  237 1    
   231  116  238 1    
   232  116  239 1    
   233  117  118 2    
   234  117  119 am   BACKBONE|DICT|INTERRES
   235  119  120 1    
   236  119  240 1    
   237  120  121 1    
   238  120  124 1    
   239  120  241 1    
   240  121  122 am   BACKBONE|DICT|INTERRES
   241  121  123 2    
   242  122  242 1    
   243  122  243 1    
   244  124  125 1    
   245  124  244 1    
   246  124  245 1    
   247  125  126 1    
   248  126  246 1    
   249  126  247 1    
@<TRIPOS>SUBSTRUCTURE
     1 UNK         1 GROUP             0       ****    0 ROOT    
