@<TRIPOS>MOLECULE
3R540
247   249    1
SMALL
USER_CHARGES


@<TRIPOS>ATOM
      1 CA         -2.3595  -10.7907  -48.9080 C.3       0 UNK        -0.1800 
      2 C          -1.4349  -11.9536  -48.5812 C.2       0 UNK         0.5000 
      3 O          -0.6343  -11.8546  -47.6523 O.2       0 UNK        -0.5000 
      4 N          -1.5508  -13.0606  -49.3277 N.am      1 UNK        -0.5000 
      5 CA         -0.7489  -14.2814  -49.1691 C.3       1 UNK         0.1400 
      6 C6         -1.0250  -15.2785  -50.3255 C.3       23 UNK        -0.0398 
      7 S7         -0.2667  -16.9361  -50.1725 S.3       23 UNK        -0.2404 
      8 C8          1.3435  -16.6576  -50.9675 C.3       23 UNK        -0.0205 
      9 C9          2.2034  -17.9101  -50.9062 C.ar      23 UNK        -0.0193 
     10 C10         2.2947  -18.7634  -52.0100 C.ar      23 UNK        -0.1150 
     11 C11         3.0765  -19.9220  -51.9486 C.ar      23 UNK        -0.0193 
     12 C12         3.7699  -20.2220  -50.7735 C.ar      23 UNK        -0.1150 
     13 C13         3.6736  -19.3854  -49.6590 C.ar      23 UNK        -0.0193 
     14 C14         2.9015  -18.2222  -49.7363 C.ar      23 UNK        -0.1150 
     15 C15         4.3914  -19.7529  -48.3692 C.3       23 UNK        -0.0205 
     16 S16         3.5714  -21.1326  -47.5049 S.3       23 UNK        -0.2404 
     17 C17         2.0132  -20.3540  -46.9654 C.3       23 UNK        -0.0398 
     18 CA          0.7972  -21.3032  -47.0663 C.3       11 UNK         0.1400 
     19 N           0.9303  -22.4562  -46.1758 N.am      11 UNK        -0.5000 
     20 C           0.2611  -23.6073  -46.3077 C.2       10 UNK         0.5000 
     21 O          -0.5161  -23.8478  -47.2310 O.2       10 UNK        -0.5000 
     22 CA          0.4798  -24.6558  -45.1996 C.3       10 UNK         0.1400 
     23 CB          1.7127  -25.5182  -45.5088 C.3       10 UNK        -0.1800 
     24 N           0.6276  -24.0615  -43.8678 N.am      10 UNK        -0.5000 
     25 C          -0.3468  -23.4026  -43.2256 C.2       9 UNK         0.5000 
     26 O          -1.4733  -23.2343  -43.6875 O.2       9 UNK        -0.5000 
     27 CA          0.0005  -22.7918  -41.8563 C.3       9 UNK         0.1400 
     28 CB         -0.1704  -23.8362  -40.7434 C.3       9 UNK        -0.1800 
     29 N           1.3392  -22.2041  -41.7631 N.am      9 UNK        -0.5000 
     30 C           1.8583  -21.2788  -42.5799 C.2       8 UNK         0.5000 
     31 O           1.3001  -20.8740  -43.6008 O.2       8 UNK        -0.5000 
     32 CA          3.2126  -20.6842  -42.1504 C.3       8 UNK         0.1400 
     33 CB          3.9810  -20.0709  -43.3344 C.3       8 UNK        -0.1800 
     34 N           3.0170  -19.6685  -41.1140 N.am      8 UNK        -0.5000 
     35 C           2.7173  -19.9314  -39.8323 C.2       7 UNK         0.5000 
     36 O           2.6634  -21.0743  -39.3740 O.2       7 UNK        -0.5000 
     37 CA          2.4293  -18.7410  -38.8945 C.3       7 UNK         0.1400 
     38 CB          3.6419  -18.4639  -37.9926 C.3       7 UNK        -0.1800 
     39 N           2.0708  -17.5054  -39.5907 N.am      7 UNK        -0.5000 
     40 C           0.9202  -17.2794  -40.2392 C.2       6 UNK         0.5000 
     41 O          -0.0014  -18.0936  -40.3019 O.2       6 UNK        -0.5000 
     42 CA          0.7819  -15.9178  -40.9547 C.3       6 UNK         0.1400 
     43 CB          1.6261  -14.7942  -40.3145 C.3       6 UNK        -0.1800 
     44 N           1.0692  -16.0101  -42.3881 N.am      6 UNK        -0.5000 
     45 C           2.1738  -16.5092  -42.9643 C.2       5 UNK         0.5000 
     46 O           3.1349  -16.9688  -42.3461 O.2       5 UNK        -0.5000 
     47 CA          2.2108  -16.4855  -44.4998 C.3       5 UNK         0.1400 
     48 CB          1.1654  -17.4495  -45.0767 C.3       5 UNK        -0.1800 
     49 N           1.9903  -15.1493  -45.0453 N.am      5 UNK        -0.5000 
     50 C           2.8008  -14.0955  -44.8756 C.2       4 UNK         0.5000 
     51 O           3.8765  -14.1415  -44.2780 O.2       4 UNK        -0.5000 
     52 CA          2.3191  -12.7575  -45.4669 C.3       4 UNK         0.1400 
     53 CB          2.6440  -12.6741  -46.9664 C.3       4 UNK        -0.1800 
     54 N           0.8855  -12.5464  -45.2671 N.am      4 UNK        -0.5000 
     55 C           0.3042  -12.3403  -44.0768 C.2       3 UNK         0.5000 
     56 O           0.9256  -12.2193  -43.0212 O.2       3 UNK        -0.5000 
     57 CA         -1.2336  -12.2850  -44.0591 C.3       3 UNK         0.1400 
     58 CB         -1.7382  -10.8745  -44.4007 C.3       3 UNK        -0.1800 
     59 N          -1.8322  -13.2550  -44.9766 N.am      3 UNK        -0.5000 
     60 C          -1.8405  -14.5802  -44.7761 C.2       2 UNK         0.5000 
     61 O          -1.3698  -15.1259  -43.7771 O.2       2 UNK        -0.5000 
     62 CA         -2.4430  -15.4447  -45.9001 C.3       2 UNK         0.1400 
     63 CB         -3.9609  -15.5909  -45.7268 C.3       2 UNK        -0.1800 
     64 N          -2.1456  -14.9372  -47.2418 N.am      2 UNK        -0.5000 
     65 C          -0.9105  -14.9032  -47.7640 C.2       1 UNK         0.5000 
     66 O           0.0891  -15.2856  -47.1588 O.2       1 UNK        -0.5000 
     67 C          -0.5111  -20.5479  -46.7620 C.2       11 UNK         0.5000 
     68 O          -1.2509  -20.2055  -47.6850 O.2       11 UNK        -0.5000 
     69 N          -0.7942  -20.3354  -45.4684 N.am      12 UNK        -0.5000 
     70 CA         -1.9806  -19.6345  -44.9758 C.3       12 UNK         0.1400 
     71 CB         -1.8397  -19.3880  -43.4669 C.3       12 UNK        -0.1800 
     72 C          -3.3029  -20.3553  -45.2975 C.2       12 UNK         0.5000 
     73 O          -4.3144  -19.6880  -45.5073 O.2       12 UNK        -0.5000 
     74 N          -3.2705  -21.6929  -45.3583 N.am      13 UNK        -0.5000 
     75 CA         -4.3915  -22.5331  -45.7796 C.3       13 UNK         0.1400 
     76 CB         -4.1421  -23.9757  -45.3132 C.3       13 UNK        -0.1800 
     77 C          -4.6408  -22.5031  -47.3003 C.2       13 UNK         0.5000 
     78 O          -5.7533  -22.8150  -47.7241 O.2       13 UNK        -0.5000 
     79 N          -3.6159  -22.1559  -48.0906 N.am      14 UNK        -0.5000 
     80 CA         -3.6901  -22.0592  -49.5480 C.3       14 UNK         0.1400 
     81 CB         -2.3343  -22.4581  -50.1438 C.3       14 UNK        -0.1800 
     82 C          -4.1214  -20.6495  -49.9904 C.2       14 UNK         0.5000 
     83 O          -4.9795  -20.5194  -50.8663 O.2       14 UNK        -0.5000 
     84 N          -3.5616  -19.6207  -49.3355 N.am      15 UNK        -0.5000 
     85 CA         -3.9961  -18.2172  -49.3251 C.3       15 UNK         0.1400 
     86 CB         -5.3527  -18.1117  -48.5962 C.3       15 UNK        -0.1800 
     87 C          -4.0605  -17.5005  -50.6929 C.2       15 UNK         0.5000 
     88 O          -4.6523  -16.4224  -50.7661 O.2       15 UNK        -0.5000 
     89 N          -3.4801  -18.0895  -51.7485 N.am      16 UNK        -0.5000 
     90 CA         -3.5575  -17.6617  -53.1502 C.3       16 UNK         0.1400 
     91 CB         -2.8098  -16.3289  -53.3645 C.3       16 UNK        -0.1800 
     92 C          -4.9955  -17.6517  -53.7178 C.2       16 UNK         0.5000 
     93 O          -5.2607  -16.9218  -54.6752 O.2       16 UNK        -0.5000 
     94 N          -5.8990  -18.4562  -53.1353 N.am      17 UNK        -0.5000 
     95 CA         -7.3160  -18.4995  -53.5083 C.3       17 UNK         0.1400 
     96 CB         -8.0372  -17.2191  -53.0396 C.3       17 UNK        -0.1800 
     97 C          -8.0503  -19.7340  -52.9638 C.2       17 UNK         0.5000 
     98 O          -8.9356  -20.2511  -53.6466 O.2       17 UNK        -0.5000 
     99 N          -7.7080  -20.1743  -51.7453 N.am      18 UNK        -0.5000 
    100 CA        -8.3596  -21.2975  -51.0654 C.3       18 UNK         0.1400 
    101 CB        -8.1203  -21.1780  -49.5536 C.3       18 UNK        -0.1800 
    102 C         -7.9081  -22.6709  -51.5992 C.2       18 UNK         0.5000 
    103 O         -8.6644  -23.6377  -51.4939 O.2       18 UNK        -0.5000 
    104 N         -6.7103  -22.7249  -52.1898 N.am      19 UNK        -0.5000 
    105 CA        -6.1879  -23.8499  -52.9571 C.3       19 UNK         0.1400 
    106 CB        -5.0753  -24.5425  -52.1544 C.3       19 UNK        -0.1800 
    107 C         -5.6403  -23.3193  -54.2896 C.2       19 UNK         0.5000 
    108 O         -5.3675  -22.1209  -54.4080 O.2       19 UNK        -0.5000 
    109 N         -5.4776  -24.2239  -55.2636 N.am      20 UNK        -0.5000 
    110 CA        -4.8516  -23.9335  -56.5541 C.3       20 UNK         0.1400 
    111 CB        -5.2615  -25.0001  -57.5826 C.3       20 UNK        -0.1800 
    112 C         -3.3220  -23.8466  -56.4167 C.2       20 UNK         0.5000 
    113 O         -2.7303  -22.8313  -56.7873 O.2       20 UNK        -0.5000 
    114 N         -2.7151  -24.8932  -55.8384 N.am      21 UNK        -0.5000 
    115 CA        -1.2958  -24.9486  -55.4874 C.3       21 UNK         0.1400 
    116 CB        -0.9187  -26.3944  -55.1252 C.3       21 UNK        -0.1800 
    117 C         -1.0153  -23.9814  -54.3253 C.2       21 UNK         0.5000 
    118 O         -1.4683  -24.2372  -53.2084 O.2       21 UNK        -0.5000 
    119 N         -0.3455  -22.8634  -54.6357 N.am      22 UNK        -0.5000 
    120 CA        -0.2073  -21.6804  -53.7644 C.3       22 UNK         0.1400 
    121 C         -1.5634  -20.9692  -53.4700 C.2       22 UNK         0.5000 
    122 N         -2.5657  -21.1068  -54.3291 N.am      22 UNK        -0.7600 
    123 O         -1.7131  -20.2829  -52.4642 O.2       22 UNK        -0.5000 
    124 C124        0.6253  -21.9459  -52.4784 C.3       23 UNK        -0.0398 
    125 S125        2.3388  -22.4618  -52.8397 S.3       23 UNK        -0.2404 
    126 C126        3.1602  -20.8606  -53.1439 C.3       23 UNK        -0.0205 
    127 H127       -2.9664  -10.5395  -48.0381 H         1 UNK         0.0600 
    128 H128       -3.0295  -11.0244  -49.7356 H         1 UNK         0.0600 
    129 H129       -1.7737   -9.9130  -49.1806 H         1 UNK         0.0600 
    130 H130       -2.2309  -13.0740  -50.0744 H         1 UNK         0.3000 
    131 H131        0.2976  -13.9804  -49.2503 H         1 UNK         0.0600 
    132 H132       -0.7124  -14.8362  -51.2723 H         1 UNK         0.0800 
    133 H133       -2.0996  -15.4298  -50.4185 H         1 UNK         0.0800 
    134 H134        1.1900  -16.3508  -52.0032 H         1 UNK         0.0800 
    135 H135        1.8580  -15.8341  -50.4697 H         1 UNK         0.0800 
    136 H136        1.7466  -18.5307  -52.9123 H         1 UNK         0.1150 
    137 H137        4.3630  -21.1243  -50.7169 H         1 UNK         0.1150 
    138 H138        2.8214  -17.5685  -48.8787 H         1 UNK         0.1150 
    139 H139        5.4183  -20.0405  -48.5990 H         1 UNK         0.0800 
    140 H140        4.4570  -18.8933  -47.7002 H         1 UNK         0.0800 
    141 H141        1.8312  -19.4581  -47.5579 H         1 UNK         0.0800 
    142 H142        2.1607  -20.0188  -45.9405 H         1 UNK         0.0800 
    143 H143        0.7344  -21.6625  -48.0962 H         1 UNK         0.0600 
    144 H144        1.5018  -22.3189  -45.3538 H         1 UNK         0.3000 
    145 H145       -0.3973  -25.3065  -45.1831 H         1 UNK         0.0600 
    146 H146        1.8320  -26.3142  -44.7736 H         1 UNK         0.0600 
    147 H147        1.6218  -25.9916  -46.4873 H         1 UNK         0.0600 
    148 H148        2.6283  -24.9252  -45.5150 H         1 UNK         0.0600 
    149 H149        1.5286  -24.1478  -43.4210 H         1 UNK         0.3000 
    150 H150       -0.7120  -21.9868  -41.6703 H         1 UNK         0.0600 
    151 H151       -1.1683  -24.2764  -40.7693 H         1 UNK         0.0600 
    152 H152       -0.0403  -23.3875  -39.7583 H         1 UNK         0.0600 
    153 H153        0.5505  -24.6489  -40.8401 H         1 UNK         0.0600 
    154 H154        1.8516  -22.4029  -40.9124 H         1 UNK         0.3000 
    155 H155        3.8252  -21.4921  -41.7447 H         1 UNK         0.0600 
    156 H156        3.4318  -19.2525  -43.7978 H         1 UNK         0.0600 
    157 H157        4.1651  -20.8175  -44.1080 H         1 UNK         0.0600 
    158 H158        4.9494  -19.6839  -43.0175 H         1 UNK         0.0600 
    159 H159        3.0351  -18.7005  -41.4224 H         1 UNK         0.3000 
    160 H160        1.5891  -19.0263  -38.2581 H         1 UNK         0.0600 
    161 H161        4.5127  -18.1570  -38.5734 H         1 UNK         0.0600 
    162 H162        3.9213  -19.3542  -37.4275 H         1 UNK         0.0600 
    163 H163        3.4251  -17.6773  -37.2696 H         1 UNK         0.0600 
    164 H164        2.7865  -16.7947  -39.6398 H         1 UNK         0.3000 
    165 H165       -0.2670  -15.6299  -40.8692 H         1 UNK         0.0600 
    166 H166        1.3795  -13.8285  -40.7558 H         1 UNK         0.0600 
    167 H167        1.4315  -14.7166  -39.2441 H         1 UNK         0.0600 
    168 H168        2.6970  -14.9488  -40.4495 H         1 UNK         0.0600 
    169 H169        0.3183  -15.6859  -42.9921 H         1 UNK         0.3000 
    170 H170        3.1995  -16.8231  -44.8172 H         1 UNK         0.0600 
    171 H171        1.2467  -18.4317  -44.6151 H         1 UNK         0.0600 
    172 H172        0.1494  -17.0995  -44.9006 H         1 UNK         0.0600 
    173 H173        1.2911  -17.5696  -46.1521 H         1 UNK         0.0600 
    174 H174        1.1668  -15.0367  -45.6306 H         1 UNK         0.3000 
    175 H175        2.8540  -11.9533  -44.9575 H         1 UNK         0.0600 
    176 H176        2.1306  -13.4503  -47.5344 H         1 UNK         0.0600 
    177 H177        2.3505  -11.7091  -47.3800 H         1 UNK         0.0600 
    178 H178        3.7140  -12.7926  -47.1410 H         1 UNK         0.0600 
    179 H179        0.3020  -12.5584  -46.0987 H         1 UNK         0.3000 
    180 H180       -1.5631  -12.5250  -43.0458 H         1 UNK         0.0600 
    181 H181       -2.8247  -10.8174  -44.3339 H         1 UNK         0.0600 
    182 H182       -1.4474  -10.5714  -45.4068 H         1 UNK         0.0600 
    183 H183       -1.3311  -10.1378  -43.7070 H         1 UNK         0.0600 
    184 H184       -2.1924  -12.8935  -45.8471 H         1 UNK         0.3000 
    185 H185       -1.9988  -16.4366  -45.8182 H         1 UNK         0.0600 
    186 H186       -4.3729  -16.2921  -46.4516 H         1 UNK         0.0600 
    187 H187       -4.2048  -15.9745  -44.7351 H         1 UNK         0.0600 
    188 H188       -4.4760  -14.6372  -45.8475 H         1 UNK         0.0600 
    189 H189       -2.9178  -14.5753  -47.7820 H         1 UNK         0.3000 
    190 H190       -0.1215  -20.6368  -44.7666 H         1 UNK         0.3000 
    191 H191       -2.0132  -18.6669  -45.4762 H         1 UNK         0.0600 
    192 H192       -2.6761  -18.7995  -43.0882 H         1 UNK         0.0600 
    193 H193       -0.9264  -18.8397  -43.2341 H         1 UNK         0.0600 
    194 H194       -1.8185  -20.3244  -42.9104 H         1 UNK         0.0600 
    195 H195       -2.4268  -22.1765  -45.0664 H         1 UNK         0.3000 
    196 H196       -5.2984  -22.1707  -45.2912 H         1 UNK         0.0600 
    197 H197       -3.2214  -24.3800  -45.7363 H         1 UNK         0.0600 
    198 H198       -4.0646  -24.0303  -44.2272 H         1 UNK         0.0600 
    199 H199       -4.9594  -24.6331  -45.6125 H         1 UNK         0.0600 
    200 H200       -2.7401  -21.8857  -47.6634 H         1 UNK         0.3000 
    201 H201       -4.4366  -22.7655  -49.9148 H         1 UNK         0.0600 
    202 H202       -2.0024  -23.4248  -49.7648 H         1 UNK         0.0600 
    203 H203       -1.5564  -21.7264  -49.9237 H         1 UNK         0.0600 
    204 H204       -2.4068  -22.5491  -51.2259 H         1 UNK         0.0600 
    205 H205       -2.7970  -19.8349  -48.6991 H         1 UNK         0.3000 
    206 H206       -3.2536  -17.6783  -48.7347 H         1 UNK         0.0600 
    207 H207       -5.3176  -18.5904  -47.6194 H         1 UNK         0.0600 
    208 H208       -5.6377  -17.0720  -48.4322 H         1 UNK         0.0600 
    209 H209       -6.1541  -18.5822  -49.1665 H         1 UNK         0.0600 
    210 H210       -2.9874  -18.9667  -51.6047 H         1 UNK         0.3000 
    211 H211       -3.0271  -18.4117  -53.7329 H         1 UNK         0.0600 
    212 H212       -2.7566  -16.0743  -54.4234 H         1 UNK         0.0600 
    213 H213       -1.7846  -16.3958  -53.0014 H         1 UNK         0.0600 
    214 H214       -3.2979  -15.4989  -52.8540 H         1 UNK         0.0600 
    215 H215       -5.5895  -19.0767  -52.3964 H         1 UNK         0.3000 
    216 H216       -7.3787  -18.5546  -54.5973 H         1 UNK         0.0600 
    217 H217       -7.9281  -17.0714  -51.9645 H         1 UNK         0.0600 
    218 H218       -9.1048  -17.2660  -53.2591 H         1 UNK         0.0600 
    219 H219       -7.6489  -16.3316  -53.5386 H         1 UNK         0.0600 
    220 H220       -6.9304  -19.7564  -51.2529 H         1 UNK         0.3000 
    221 H221       -9.4363  -21.2263  -51.2341 H         1 UNK         0.0600 
    222 H222       -8.5529  -20.2593  -49.1575 H         1 UNK         0.0600 
    223 H223       -7.0583  -21.1754  -49.3140 H         1 UNK         0.0600 
    224 H224       -8.5749  -22.0110  -49.0159 H         1 UNK         0.0600 
    225 H225       -6.1661  -21.8725  -52.2553 H         1 UNK         0.3000 
    226 H226       -6.9826  -24.5671  -53.1728 H         1 UNK         0.0600 
    227 H227       -4.2081  -23.8937  -52.0327 H         1 UNK         0.0600 
    228 H228       -5.4226  -24.8342  -51.1631 H         1 UNK         0.0600 
    229 H229       -4.7326  -25.4464  -52.6590 H         1 UNK         0.0600 
    230 H230       -5.7366  -25.1842  -55.0905 H         1 UNK         0.3000 
    231 H231       -5.2126  -22.9668  -56.9126 H         1 UNK         0.0600 
    232 H232       -4.9639  -26.0028  -57.2739 H         1 UNK         0.0600 
    233 H233       -4.8001  -24.8041  -58.5513 H         1 UNK         0.0600 
    234 H234       -6.3412  -25.0041  -57.7336 H         1 UNK         0.0600 
    235 H235       -3.2817  -25.6653  -55.5219 H         1 UNK         0.3000 
    236 H236       -0.7065  -24.6512  -56.3575 H         1 UNK         0.0600 
    237 H237       -1.0813  -27.0667  -55.9678 H         1 UNK         0.0600 
    238 H238        0.1349  -26.4637  -54.8521 H         1 UNK         0.0600 
    239 H239       -1.5016  -26.7669  -54.2818 H         1 UNK         0.0600 
    240 H240       -0.0378  -22.7358  -55.5891 H         1 UNK         0.3000 
    241 H241        0.3439  -20.9476  -54.3535 H         1 UNK         0.0600 
    242 H242       -3.4765  -20.7364  -54.1113 H         1 UNK         0.3800 
    243 H243       -2.4580  -21.6672  -55.1663 H         1 UNK         0.3800 
    244 H244        0.1578  -22.7208  -51.8710 H         1 UNK         0.0800 
    245 H245        0.6522  -21.0637  -51.8388 H         1 UNK         0.0800 
    246 H246        2.7281  -20.3970  -54.0318 H         1 UNK         0.0800 
    247 H247        4.2096  -21.0438  -53.3789 H         1 UNK         0.0800 
@<TRIPOS>BOND
     1    1    2 1    
     2    1  127 1    
     3    1  128 1    
     4    1  129 1    
     5    2    3 2    
     6    2    4 am   BACKBONE|DICT|INTERRES
     7    4    5 1    
     8    4  130 1    
     9    5    6 1    
    10    5   65 1    
    11    5  131 1    
    12    6    7 1    
    13    6  132 1    
    14    6  133 1    
    15    7    8 1    
    16    8    9 1    
    17    8  134 1    
    18    8  135 1    
    19    9   10 ar   
    20    9   14 ar   
    21   10   11 ar   
    22   10  136 1    
    23   11   12 ar   
    24   11  126 1    
    25   12   13 ar   
    26   12  137 1    
    27   13   14 ar   
    28   13   15 1    
    29   14  138 1    
    30   15   16 1    
    31   15  139 1    
    32   15  140 1    
    33   16   17 1    
    34   17   18 1    
    35   17  141 1    
    36   17  142 1    
    37   18   19 1    
    38   18   67 1    
    39   18  143 1    
    40   19   20 am   BACKBONE|DICT|INTERRES
    41   19  144 1    
    42   20   21 2    
    43   20   22 1    
    44   22   23 1    
    45   22   24 1    
    46   22  145 1    
    47   23  146 1    
    48   23  147 1    
    49   23  148 1    
    50   24   25 am   BACKBONE|DICT|INTERRES
    51   24  149 1    
    52   25   26 2    
    53   25   27 1    
    54   27   28 1    
    55   27   29 1    
    56   27  150 1    
    57   28  151 1    
    58   28  152 1    
    59   28  153 1    
    60   29   30 am   BACKBONE|DICT|INTERRES
    61   29  154 1    
    62   30   31 2    
    63   30   32 1    
    64   32   33 1    
    65   32   34 1    
    66   32  155 1    
    67   33  156 1    
    68   33  157 1    
    69   33  158 1    
    70   34   35 am   BACKBONE|DICT|INTERRES
    71   34  159 1    
    72   35   36 2    
    73   35   37 1    
    74   37   38 1    
    75   37   39 1    
    76   37  160 1    
    77   38  161 1    
    78   38  162 1    
    79   38  163 1    
    80   39   40 am   BACKBONE|DICT|INTERRES
    81   39  164 1    
    82   40   41 2    
    83   40   42 1    
    84   42   43 1    
    85   42   44 1    
    86   42  165 1    
    87   43  166 1    
    88   43  167 1    
    89   43  168 1    
    90   44   45 am   BACKBONE|DICT|INTERRES
    91   44  169 1    
    92   45   46 2    
    93   45   47 1    
    94   47   48 1    
    95   47   49 1    
    96   47  170 1    
    97   48  171 1    
    98   48  172 1    
    99   48  173 1    
   100   49   50 am   BACKBONE|DICT|INTERRES
   101   49  174 1    
   102   50   51 2    
   103   50   52 1    
   104   52   53 1    
   105   52   54 1    
   106   52  175 1    
   107   53  176 1    
   108   53  177 1    
   109   53  178 1    
   110   54   55 am   BACKBONE|DICT|INTERRES
   111   54  179 1    
   112   55   56 2    
   113   55   57 1    
   114   57   58 1    
   115   57   59 1    
   116   57  180 1    
   117   58  181 1    
   118   58  182 1    
   119   58  183 1    
   120   59   60 am   BACKBONE|DICT|INTERRES
   121   59  184 1    
   122   60   61 2    
   123   60   62 1    
   124   62   63 1    
   125   62   64 1    
   126   62  185 1    
   127   63  186 1    
   128   63  187 1    
   129   63  188 1    
   130   64   65 am   BACKBONE|DICT|INTERRES
   131   64  189 1    
   132   65   66 2    
   133   67   68 2    
   134   67   69 am   BACKBONE|DICT|INTERRES
   135   69   70 1    
   136   69  190 1    
   137   70   71 1    
   138   70   72 1    
   139   70  191 1    
   140   71  192 1    
   141   71  193 1    
   142   71  194 1    
   143   72   73 2    
   144   72   74 am   BACKBONE|DICT|INTERRES
   145   74   75 1    
   146   74  195 1    
   147   75   76 1    
   148   75   77 1    
   149   75  196 1    
   150   76  197 1    
   151   76  198 1    
   152   76  199 1    
   153   77   78 2    
   154   77   79 am   BACKBONE|DICT|INTERRES
   155   79   80 1    
   156   79  200 1    
   157   80   81 1    
   158   80   82 1    
   159   80  201 1    
   160   81  202 1    
   161   81  203 1    
   162   81  204 1    
   163   82   83 2    
   164   82   84 am   BACKBONE|DICT|INTERRES
   165   84   85 1    
   166   84  205 1    
   167   85   86 1    
   168   85   87 1    
   169   85  206 1    
   170   86  207 1    
   171   86  208 1    
   172   86  209 1    
   173   87   88 2    
   174   87   89 am   BACKBONE|DICT|INTERRES
   175   89   90 1    
   176   89  210 1    
   177   90   91 1    
   178   90   92 1    
   179   90  211 1    
   180   91  212 1    
   181   91  213 1    
   182   91  214 1    
   183   92   93 2    
   184   92   94 am   BACKBONE|DICT|INTERRES
   185   94   95 1    
   186   94  215 1    
   187   95   96 1    
   188   95   97 1    
   189   95  216 1    
   190   96  217 1    
   191   96  218 1    
   192   96  219 1    
   193   97   98 2    
   194   97   99 am   BACKBONE|DICT|INTERRES
   195   99  100 1    
   196   99  220 1    
   197  100  101 1    
   198  100  102 1    
   199  100  221 1    
   200  101  222 1    
   201  101  223 1    
   202  101  224 1    
   203  102  103 2    
   204  102  104 am   BACKBONE|DICT|INTERRES
   205  104  105 1    
   206  104  225 1    
   207  105  106 1    
   208  105  107 1    
   209  105  226 1    
   210  106  227 1    
   211  106  228 1    
   212  106  229 1    
   213  107  108 2    
   214  107  109 am   BACKBONE|DICT|INTERRES
   215  109  110 1    
   216  109  230 1    
   217  110  111 1    
   218  110  112 1    
   219  110  231 1    
   220  111  232 1    
   221  111  233 1    
   222  111  234 1    
   223  112  113 2    
   224  112  114 am   BACKBONE|DICT|INTERRES
   225  114  115 1    
   226  114  235 1    
   227  115  116 1    
   228  115  117 1    
   229  115  236 1    
   230  116  237 1    
   231  116  238 1    
   232  116  239 1    
   233  117  118 2    
   234  117  119 am   BACKBONE|DICT|INTERRES
   235  119  120 1    
   236  119  240 1    
   237  120  121 1    
   238  120  124 1    
   239  120  241 1    
   240  121  122 am   BACKBONE|DICT|INTERRES
   241  121  123 2    
   242  122  242 1    
   243  122  243 1    
   244  124  125 1    
   245  124  244 1    
   246  124  245 1    
   247  125  126 1    
   248  126  246 1    
   249  126  247 1    
@<TRIPOS>SUBSTRUCTURE
     1 UNK         1 GROUP             0       ****    0 ROOT    
