@<TRIPOS>MOLECULE
3R540
247   249    1
SMALL
USER_CHARGES


@<TRIPOS>ATOM
      1 CA          5.9233  -14.5311  -44.6260 C.3       0 UNK        -0.1800 
      2 C           5.3182  -14.7002  -46.0124 C.2       0 UNK         0.5000 
      3 O           4.5176  -15.6085  -46.2191 O.2       0 UNK        -0.5000 
      4 N           5.6941  -13.8269  -46.9544 N.am      1 UNK        -0.5000 
      5 CA          5.2092  -13.8268  -48.3436 C.3       1 UNK         0.1400 
      6 C6          6.3296  -13.4442  -49.3434 C.3       23 UNK        -0.0398 
      7 S7          7.7601  -14.5756  -49.2667 S.3       23 UNK        -0.2404 
      8 C8          7.5011  -15.6052  -50.7461 C.3       23 UNK        -0.0205 
      9 C9          6.3169  -16.5497  -50.5946 C.ar      23 UNK        -0.0193 
     10 C10         5.1196  -16.3019  -51.2732 C.ar      23 UNK        -0.1150 
     11 C11         4.0481  -17.1923  -51.1626 C.ar      23 UNK        -0.0193 
     12 C12         4.1801  -18.3330  -50.3672 C.ar      23 UNK        -0.1150 
     13 C13         5.3661  -18.5904  -49.6709 C.ar      23 UNK        -0.0193 
     14 C14         6.4311  -17.6917  -49.7955 C.ar      23 UNK        -0.1150 
     15 C15         5.5355  -19.8479  -48.8190 C.3       23 UNK        -0.0205 
     16 S16         4.1391  -20.1727  -47.6870 S.3       23 UNK        -0.2404 
     17 C17         3.0320  -21.2032  -48.7153 C.3       23 UNK        -0.0398 
     18 CA          2.4132  -22.3853  -47.9319 C.3       11 UNK         0.1400 
     19 N           1.5959  -21.9395  -46.7953 N.am      11 UNK        -0.5000 
     20 C           1.1236  -22.7513  -45.8372 C.2       10 UNK         0.5000 
     21 O           1.4144  -23.9458  -45.7704 O.2       10 UNK        -0.5000 
     22 CA          0.1262  -22.1718  -44.8118 C.3       10 UNK         0.1400 
     23 CB          0.8041  -21.9907  -43.4455 C.3       10 UNK        -0.1800 
     24 N          -0.5038  -20.9119  -45.2112 N.am      10 UNK        -0.5000 
     25 C          -1.2915  -20.7318  -46.2820 C.2       9 UNK         0.5000 
     26 O          -1.6032  -21.6363  -47.0578 O.2       9 UNK        -0.5000 
     27 CA         -1.7394  -19.2831  -46.5696 C.3       9 UNK         0.1400 
     28 CB         -3.0303  -18.9431  -45.8126 C.3       9 UNK        -0.1800 
     29 N          -0.7065  -18.2925  -46.2473 N.am      9 UNK        -0.5000 
     30 C           0.5053  -18.2573  -46.8222 C.2       8 UNK         0.5000 
     31 O           0.8497  -19.0273  -47.7142 O.2       8 UNK        -0.5000 
     32 CA          1.5081  -17.2255  -46.2902 C.3       8 UNK         0.1400 
     33 CB          1.2322  -15.8410  -46.8868 C.3       8 UNK        -0.1800 
     34 N           1.4619  -17.1567  -44.8321 N.am      8 UNK        -0.5000 
     35 C           2.0755  -18.0326  -44.0238 C.2       7 UNK         0.5000 
     36 O           2.7868  -18.9538  -44.4224 O.2       7 UNK        -0.5000 
     37 CA          1.8388  -17.8715  -42.5097 C.3       7 UNK         0.1400 
     38 CB          2.9031  -16.9476  -41.8976 C.3       7 UNK        -0.1800 
     39 N           0.5105  -17.3515  -42.1837 N.am      7 UNK        -0.5000 
     40 C          -0.6460  -17.9842  -42.4298 C.2       6 UNK         0.5000 
     41 O          -0.7204  -19.1083  -42.9223 O.2       6 UNK        -0.5000 
     42 CA         -1.9367  -17.1975  -42.1314 C.3       6 UNK         0.1400 
     43 CB         -2.3924  -17.4348  -40.6843 C.3       6 UNK        -0.1800 
     44 N          -1.7917  -15.7578  -42.3676 N.am      6 UNK        -0.5000 
     45 C          -1.5120  -15.2114  -43.5583 C.2       5 UNK         0.5000 
     46 O          -1.3661  -15.8686  -44.5923 O.2       5 UNK        -0.5000 
     47 CA         -1.2634  -13.6944  -43.5629 C.3       5 UNK         0.1400 
     48 CB          0.2288  -13.4097  -43.3260 C.3       5 UNK        -0.1800 
     49 N          -1.6781  -13.0794  -44.8219 N.am      5 UNK        -0.5000 
     50 C          -2.9548  -12.8647  -45.1702 C.2       4 UNK         0.5000 
     51 O          -3.9091  -13.1420  -44.4414 O.2       4 UNK        -0.5000 
     52 CA         -3.2329  -12.2038  -46.5372 C.3       4 UNK         0.1400 
     53 CB         -3.6111  -10.7260  -46.3507 C.3       4 UNK        -0.1800 
     54 N          -2.1192  -12.2832  -47.4818 N.am      4 UNK        -0.5000 
     55 C          -1.7246  -13.4023  -48.0998 C.2       3 UNK         0.5000 
     56 O          -2.2710  -14.4951  -47.9532 O.2       3 UNK        -0.5000 
     57 CA         -0.5130  -13.2902  -49.0439 C.3       3 UNK         0.1400 
     58 CB         -0.9845  -12.9623  -50.4686 C.3       3 UNK        -0.1800 
     59 N           0.5331  -12.3311  -48.6693 N.am      3 UNK        -0.5000 
     60 C           1.1095  -12.1837  -47.4693 C.2       2 UNK         0.5000 
     61 O           0.7063  -12.7129  -46.4350 O.2       2 UNK        -0.5000 
     62 CA          2.3894  -11.3320  -47.4285 C.3       2 UNK         0.1400 
     63 CB          2.4492  -10.4572  -46.1647 C.3       2 UNK        -0.1800 
     64 N           3.5666  -12.1987  -47.4628 N.am      2 UNK        -0.5000 
     65 C           3.9847  -12.9006  -48.5272 C.2       1 UNK         0.5000 
     66 O           3.4542  -12.8174  -49.6355 O.2       1 UNK        -0.5000 
     67 C           1.6233  -23.3001  -48.8975 C.2       11 UNK         0.5000 
     68 O           2.2437  -24.0628  -49.6393 O.2       11 UNK        -0.5000 
     69 N           0.2852  -23.2228  -48.8657 N.am      12 UNK        -0.5000 
     70 CA         -0.6311  -24.0215  -49.6737 C.3       12 UNK         0.1400 
     71 CB         -1.3524  -23.0950  -50.6667 C.3       12 UNK        -0.1800 
     72 C          -1.6179  -24.7886  -48.7750 C.2       12 UNK         0.5000 
     73 O          -2.7669  -24.9893  -49.1690 O.2       12 UNK        -0.5000 
     74 N          -1.1661  -25.2241  -47.5879 N.am      13 UNK        -0.5000 
     75 CA         -1.9728  -25.9025  -46.5623 C.3       13 UNK         0.1400 
     76 CB         -1.0952  -26.1919  -45.3349 C.3       13 UNK        -0.1800 
     77 C          -2.6785  -27.1967  -47.0201 C.2       13 UNK         0.5000 
     78 O          -3.6984  -27.5626  -46.4361 O.2       13 UNK        -0.5000 
     79 N          -2.1433  -27.8559  -48.0573 N.am      14 UNK        -0.5000 
     80 CA         -2.7491  -29.0240  -48.7008 C.3       14 UNK         0.1400 
     81 CB         -1.7129  -29.6787  -49.6269 C.3       14 UNK        -0.1800 
     82 C          -4.0352  -28.6854  -49.4835 C.2       14 UNK         0.5000 
     83 O          -4.9235  -29.5330  -49.5806 O.2       14 UNK        -0.5000 
     84 N          -4.1118  -27.4603  -50.0195 N.am      15 UNK        -0.5000 
     85 CA         -5.2826  -26.9164  -50.7066 C.3       15 UNK         0.1400 
     86 CB         -4.8078  -26.0358  -51.8720 C.3       15 UNK        -0.1800 
     87 C          -6.1623  -26.1052  -49.7406 C.2       15 UNK         0.5000 
     88 O          -7.3885  -26.1518  -49.8502 O.2       15 UNK        -0.5000 
     89 N          -5.5188  -25.3819  -48.8117 N.am      16 UNK        -0.5000 
     90 CA         -6.1070  -24.5320  -47.7768 C.3       16 UNK         0.1400 
     91 CB         -6.7874  -25.3972  -46.6929 C.3       16 UNK        -0.1800 
     92 C          -7.0182  -23.4563  -48.3985 C.2       16 UNK         0.5000 
     93 O          -6.5286  -22.6318  -49.1714 O.2       16 UNK        -0.5000 
     94 N          -8.3228  -23.5029  -48.0997 N.am      17 UNK        -0.5000 
     95 CA         -9.3491  -22.5890  -48.6067 C.3       17 UNK         0.1400 
     96 CB        -10.6826  -22.9098  -47.9148 C.3       17 UNK        -0.1800 
     97 C          -9.5216  -22.5983  -50.1400 C.2       17 UNK         0.5000 
     98 O         -10.0218  -21.6147  -50.6860 O.2       17 UNK        -0.5000 
     99 N          -9.0987  -23.6803  -50.8128 N.am      18 UNK        -0.5000 
    100 CA        -9.0908  -23.7744  -52.2747 C.3       18 UNK         0.1400 
    101 CB        -8.9624  -25.2451  -52.6987 C.3       18 UNK        -0.1800 
    102 C         -7.9851  -22.9164  -52.9228 C.2       18 UNK         0.5000 
    103 O         -8.1569  -22.4823  -54.0625 O.2       18 UNK        -0.5000 
    104 N         -6.8871  -22.6751  -52.1922 N.am      19 UNK        -0.5000 
    105 CA        -5.8190  -21.7568  -52.5890 C.3       19 UNK         0.1400 
    106 CB        -4.4627  -22.3102  -52.1285 C.3       19 UNK        -0.1800 
    107 C         -6.0571  -20.3541  -52.0082 C.2       19 UNK         0.5000 
    108 O         -5.8746  -19.3666  -52.7203 O.2       19 UNK        -0.5000 
    109 N         -6.4801  -20.3036  -50.7363 N.am      20 UNK        -0.5000 
    110 CA        -6.7361  -19.1121  -49.9290 C.3       20 UNK         0.1400 
    111 CB        -7.9451  -18.3213  -50.4787 C.3       20 UNK        -0.1800 
    112 C         -5.4507  -18.2815  -49.7328 C.2       20 UNK         0.5000 
    113 O         -4.4637  -18.8201  -49.2247 O.2       20 UNK        -0.5000 
    114 N         -5.4813  -16.9960  -50.1107 N.am      21 UNK        -0.5000 
    115 CA        -4.3749  -16.0480  -49.9844 C.3       21 UNK         0.1400 
    116 CB        -4.8316  -14.6690  -50.4864 C.3       21 UNK        -0.1800 
    117 C         -3.1098  -16.5276  -50.7240 C.2       21 UNK         0.5000 
    118 O         -3.1579  -16.7663  -51.9320 O.2       21 UNK        -0.5000 
    119 N         -2.0169  -16.6785  -49.9689 N.am      22 UNK        -0.5000 
    120 CA        -0.7362  -17.2704  -50.3915 C.3       22 UNK         0.1400 
    121 C         -0.7848  -18.7983  -50.7160 C.2       22 UNK         0.5000 
    122 N         -1.8569  -19.5181  -50.4052 N.am      22 UNK        -0.7600 
    123 O          0.1750  -19.3546  -51.2412 O.2       22 UNK        -0.5000 
    124 C124       -0.0061  -16.4285  -51.4859 C.3       23 UNK        -0.0398 
    125 S125        1.6430  -15.8726  -50.9340 S.3       23 UNK        -0.2404 
    126 C126        2.7471  -16.9386  -51.9065 C.3       23 UNK        -0.0205 
    127 H127        5.1346  -14.3665  -43.8905 H         1 UNK         0.0600 
    128 H128        6.6123  -13.6862  -44.5831 H         1 UNK         0.0600 
    129 H129        6.4703  -15.4317  -44.3447 H         1 UNK         0.0600 
    130 H130        6.3753  -13.1154  -46.7294 H         1 UNK         0.3000 
    131 H131        4.8684  -14.8311  -48.6052 H         1 UNK         0.0600 
    132 H132        5.9485  -13.4293  -50.3661 H         1 UNK         0.0800 
    133 H133        6.6889  -12.4334  -49.1435 H         1 UNK         0.0800 
    134 H134        8.4031  -16.1924  -50.9243 H         1 UNK         0.0800 
    135 H135        7.3810  -14.9659  -51.6222 H         1 UNK         0.0800 
    136 H136        5.0203  -15.4206  -51.8913 H         1 UNK         0.1150 
    137 H137        3.3486  -19.0160  -50.2957 H         1 UNK         0.1150 
    138 H138        7.3597  -17.8818  -49.2755 H         1 UNK         0.1150 
    139 H139        5.7093  -20.7053  -49.4697 H         1 UNK         0.0800 
    140 H140        6.4315  -19.7557  -48.2035 H         1 UNK         0.0800 
    141 H141        3.5971  -21.5786  -49.5699 H         1 UNK         0.0800 
    142 H142        2.2444  -20.5765  -49.1340 H         1 UNK         0.0800 
    143 H143        3.2330  -22.9854  -47.5311 H         1 UNK         0.0600 
    144 H144        1.3218  -20.9638  -46.8040 H         1 UNK         0.3000 
    145 H145       -0.6737  -22.9048  -44.6965 H         1 UNK         0.0600 
    146 H146        1.5798  -21.2258  -43.4811 H         1 UNK         0.0600 
    147 H147        0.0821  -21.7028  -42.6814 H         1 UNK         0.0600 
    148 H148        1.2721  -22.9181  -43.1126 H         1 UNK         0.0600 
    149 H149       -0.3538  -20.1226  -44.5902 H         1 UNK         0.3000 
    150 H150       -1.9459  -19.2070  -47.6380 H         1 UNK         0.0600 
    151 H151       -3.8365  -19.6191  -46.1002 H         1 UNK         0.0600 
    152 H152       -3.3622  -17.9284  -46.0347 H         1 UNK         0.0600 
    153 H153       -2.8982  -19.0271  -44.7340 H         1 UNK         0.0600 
    154 H154       -0.9376  -17.5916  -45.5501 H         1 UNK         0.3000 
    155 H155        2.5102  -17.5305  -46.6011 H         1 UNK         0.0600 
    156 H156        1.3837  -15.8524  -47.9650 H         1 UNK         0.0600 
    157 H157        0.2125  -15.5059  -46.6970 H         1 UNK         0.0600 
    158 H158        1.9112  -15.0951  -46.4756 H         1 UNK         0.0600 
    159 H159        0.8452  -16.4635  -44.4333 H         1 UNK         0.3000 
    160 H160        1.9346  -18.8586  -42.0523 H         1 UNK         0.0600 
    161 H161        3.9076  -17.3198  -42.1037 H         1 UNK         0.0600 
    162 H162        2.8395  -15.9365  -42.3022 H         1 UNK         0.0600 
    163 H163        2.7968  -16.8848  -40.8144 H         1 UNK         0.0600 
    164 H164        0.4727  -16.4306  -41.7734 H         1 UNK         0.3000 
    165 H165       -2.7149  -17.5693  -42.8004 H         1 UNK         0.0600 
    166 H166       -3.3462  -16.9457  -40.4858 H         1 UNK         0.0600 
    167 H167       -2.5278  -18.4994  -40.4882 H         1 UNK         0.0600 
    168 H168       -1.6645  -17.0583  -39.9646 H         1 UNK         0.0600 
    169 H169       -1.8881  -15.1577  -41.5610 H         1 UNK         0.3000 
    170 H170       -1.8349  -13.2372  -42.7524 H         1 UNK         0.0600 
    171 H171        0.5444  -13.7622  -42.3435 H         1 UNK         0.0600 
    172 H172        0.8572  -13.9052  -44.0674 H         1 UNK         0.0600 
    173 H173        0.4400  -12.3411  -43.3711 H         1 UNK         0.0600 
    174 H174       -0.9373  -12.8856  -45.4911 H         1 UNK         0.3000 
    175 H175       -4.0884  -12.7205  -46.9776 H         1 UNK         0.0600 
    176 H176       -2.7871  -10.1514  -45.9257 H         1 UNK         0.0600 
    177 H177       -3.8884  -10.2663  -47.2996 H         1 UNK         0.0600 
    178 H178       -4.4647  -10.6214  -45.6796 H         1 UNK         0.0600 
    179 H179       -1.5960  -11.4355  -47.6438 H         1 UNK         0.3000 
    180 H180       -0.0428  -14.2731  -49.0636 H         1 UNK         0.0600 
    181 H181       -1.7454  -13.6659  -50.8050 H         1 UNK         0.0600 
    182 H182       -0.1595  -13.0174  -51.1792 H         1 UNK         0.0600 
    183 H183       -1.4142  -11.9617  -50.5288 H         1 UNK         0.0600 
    184 H184        0.9840  -11.8725  -49.4484 H         1 UNK         0.3000 
    185 H185        2.4078  -10.6726  -48.2988 H         1 UNK         0.0600 
    186 H186        3.3302   -9.8152  -46.1716 H         1 UNK         0.0600 
    187 H187        1.5747   -9.8087  -46.0986 H         1 UNK         0.0600 
    188 H188        2.4806  -11.0584  -45.2548 H         1 UNK         0.0600 
    189 H189        4.0394  -12.3494  -46.5843 H         1 UNK         0.3000 
    190 H190       -0.1582  -22.5866  -48.2095 H         1 UNK         0.3000 
    191 H191       -0.0855  -24.7739  -50.2458 H         1 UNK         0.0600 
    192 H192       -2.0170  -22.4033  -50.1483 H         1 UNK         0.0600 
    193 H193       -1.9558  -23.6713  -51.3687 H         1 UNK         0.0600 
    194 H194       -0.6428  -22.5105  -51.2529 H         1 UNK         0.0600 
    195 H195       -0.2081  -25.0189  -47.3379 H         1 UNK         0.3000 
    196 H196       -2.7585  -25.2067  -46.2607 H         1 UNK         0.0600 
    197 H197       -1.6527  -26.7340  -44.5696 H         1 UNK         0.0600 
    198 H198       -0.7407  -25.2716  -44.8746 H         1 UNK         0.0600 
    199 H199       -0.2248  -26.7948  -45.5964 H         1 UNK         0.0600 
    200 H200       -1.2933  -27.4973  -48.4663 H         1 UNK         0.3000 
    201 H201       -3.0145  -29.7433  -47.9230 H         1 UNK         0.0600 
    202 H202       -0.8274  -29.9890  -49.0718 H         1 UNK         0.0600 
    203 H203       -1.3935  -28.9993  -50.4183 H         1 UNK         0.0600 
    204 H204       -2.1239  -30.5690  -50.1048 H         1 UNK         0.0600 
    205 H205       -3.3606  -26.8047  -49.8388 H         1 UNK         0.3000 
    206 H206       -5.8908  -27.7252  -51.1170 H         1 UNK         0.0600 
    207 H207       -4.2681  -26.6249  -52.6134 H         1 UNK         0.0600 
    208 H208       -5.6460  -25.5604  -52.3814 H         1 UNK         0.0600 
    209 H209       -4.1414  -25.2459  -51.5268 H         1 UNK         0.0600 
    210 H210       -4.5045  -25.3309  -48.8790 H         1 UNK         0.3000 
    211 H211       -5.2795  -23.9981  -47.3074 H         1 UNK         0.0600 
    212 H212       -7.6092  -25.9926  -47.0921 H         1 UNK         0.0600 
    213 H213       -7.1801  -24.7805  -45.8835 H         1 UNK         0.0600 
    214 H214       -6.0722  -26.0883  -46.2469 H         1 UNK         0.0600 
    215 H215       -8.6430  -24.2393  -47.4877 H         1 UNK         0.3000 
    216 H216       -9.0530  -21.5763  -48.3252 H         1 UNK         0.0600 
    217 H217      -11.4681  -22.2272  -48.2421 H         1 UNK         0.0600 
    218 H218      -10.6002  -22.8113  -46.8323 H         1 UNK         0.0600 
    219 H219      -11.0158  -23.9244  -48.1368 H         1 UNK         0.0600 
    220 H220       -8.6942  -24.4568  -50.3014 H         1 UNK         0.3000 
    221 H221      -10.0500  -23.4061  -52.6451 H         1 UNK         0.0600 
    222 H222       -8.0100  -25.6745  -52.3920 H         1 UNK         0.0600 
    223 H223       -9.7583  -25.8518  -52.2666 H         1 UNK         0.0600 
    224 H224       -9.0300  -25.3441  -53.7827 H         1 UNK         0.0600 
    225 H225       -6.8505  -23.0218  -51.2419 H         1 UNK         0.3000 
    226 H226       -5.7857  -21.6646  -53.6767 H         1 UNK         0.0600 
    227 H227       -4.2081  -23.2147  -52.6789 H         1 UNK         0.0600 
    228 H228       -3.6636  -21.5901  -52.3098 H         1 UNK         0.0600 
    229 H229       -4.4582  -22.5468  -51.0637 H         1 UNK         0.0600 
    230 H230       -6.5228  -21.1791  -50.2184 H         1 UNK         0.3000 
    231 H231       -7.0098  -19.4764  -48.9379 H         1 UNK         0.0600 
    232 H232       -8.2109  -17.4965  -49.8164 H         1 UNK         0.0600 
    233 H233       -8.8232  -18.9630  -50.5547 H         1 UNK         0.0600 
    234 H234       -7.7559  -17.9075  -51.4695 H         1 UNK         0.0600 
    235 H235       -6.3176  -16.6509  -50.5575 H         1 UNK         0.3000 
    236 H236       -4.1561  -15.9659  -48.9185 H         1 UNK         0.0600 
    237 H237       -4.0505  -13.9229  -50.3424 H         1 UNK         0.0600 
    238 H238       -5.7100  -14.3215  -49.9424 H         1 UNK         0.0600 
    239 H239       -5.0786  -14.6881  -51.5486 H         1 UNK         0.0600 
    240 H240       -2.0734  -16.4021  -48.9958 H         1 UNK         0.3000 
    241 H241       -0.1391  -17.2296  -49.4824 H         1 UNK         0.0600 
    242 H242       -1.8495  -20.5006  -50.6155 H         1 UNK         0.3800 
    243 H243       -2.6786  -19.1020  -49.9779 H         1 UNK         0.3800 
    244 H244        0.0731  -16.9639  -52.4335 H         1 UNK         0.0800 
    245 H245       -0.5720  -15.5305  -51.7296 H         1 UNK         0.0800 
    246 H246        2.9453  -16.4703  -52.8717 H         1 UNK         0.0800 
    247 H247        2.2584  -17.8900  -52.1204 H         1 UNK         0.0800 
@<TRIPOS>BOND
     1    1    2 1    
     2    1  127 1    
     3    1  128 1    
     4    1  129 1    
     5    2    3 2    
     6    2    4 am   BACKBONE|DICT|INTERRES
     7    4    5 1    
     8    4  130 1    
     9    5    6 1    
    10    5   65 1    
    11    5  131 1    
    12    6    7 1    
    13    6  132 1    
    14    6  133 1    
    15    7    8 1    
    16    8    9 1    
    17    8  134 1    
    18    8  135 1    
    19    9   10 ar   
    20    9   14 ar   
    21   10   11 ar   
    22   10  136 1    
    23   11   12 ar   
    24   11  126 1    
    25   12   13 ar   
    26   12  137 1    
    27   13   14 ar   
    28   13   15 1    
    29   14  138 1    
    30   15   16 1    
    31   15  139 1    
    32   15  140 1    
    33   16   17 1    
    34   17   18 1    
    35   17  141 1    
    36   17  142 1    
    37   18   19 1    
    38   18   67 1    
    39   18  143 1    
    40   19   20 am   BACKBONE|DICT|INTERRES
    41   19  144 1    
    42   20   21 2    
    43   20   22 1    
    44   22   23 1    
    45   22   24 1    
    46   22  145 1    
    47   23  146 1    
    48   23  147 1    
    49   23  148 1    
    50   24   25 am   BACKBONE|DICT|INTERRES
    51   24  149 1    
    52   25   26 2    
    53   25   27 1    
    54   27   28 1    
    55   27   29 1    
    56   27  150 1    
    57   28  151 1    
    58   28  152 1    
    59   28  153 1    
    60   29   30 am   BACKBONE|DICT|INTERRES
    61   29  154 1    
    62   30   31 2    
    63   30   32 1    
    64   32   33 1    
    65   32   34 1    
    66   32  155 1    
    67   33  156 1    
    68   33  157 1    
    69   33  158 1    
    70   34   35 am   BACKBONE|DICT|INTERRES
    71   34  159 1    
    72   35   36 2    
    73   35   37 1    
    74   37   38 1    
    75   37   39 1    
    76   37  160 1    
    77   38  161 1    
    78   38  162 1    
    79   38  163 1    
    80   39   40 am   BACKBONE|DICT|INTERRES
    81   39  164 1    
    82   40   41 2    
    83   40   42 1    
    84   42   43 1    
    85   42   44 1    
    86   42  165 1    
    87   43  166 1    
    88   43  167 1    
    89   43  168 1    
    90   44   45 am   BACKBONE|DICT|INTERRES
    91   44  169 1    
    92   45   46 2    
    93   45   47 1    
    94   47   48 1    
    95   47   49 1    
    96   47  170 1    
    97   48  171 1    
    98   48  172 1    
    99   48  173 1    
   100   49   50 am   BACKBONE|DICT|INTERRES
   101   49  174 1    
   102   50   51 2    
   103   50   52 1    
   104   52   53 1    
   105   52   54 1    
   106   52  175 1    
   107   53  176 1    
   108   53  177 1    
   109   53  178 1    
   110   54   55 am   BACKBONE|DICT|INTERRES
   111   54  179 1    
   112   55   56 2    
   113   55   57 1    
   114   57   58 1    
   115   57   59 1    
   116   57  180 1    
   117   58  181 1    
   118   58  182 1    
   119   58  183 1    
   120   59   60 am   BACKBONE|DICT|INTERRES
   121   59  184 1    
   122   60   61 2    
   123   60   62 1    
   124   62   63 1    
   125   62   64 1    
   126   62  185 1    
   127   63  186 1    
   128   63  187 1    
   129   63  188 1    
   130   64   65 am   BACKBONE|DICT|INTERRES
   131   64  189 1    
   132   65   66 2    
   133   67   68 2    
   134   67   69 am   BACKBONE|DICT|INTERRES
   135   69   70 1    
   136   69  190 1    
   137   70   71 1    
   138   70   72 1    
   139   70  191 1    
   140   71  192 1    
   141   71  193 1    
   142   71  194 1    
   143   72   73 2    
   144   72   74 am   BACKBONE|DICT|INTERRES
   145   74   75 1    
   146   74  195 1    
   147   75   76 1    
   148   75   77 1    
   149   75  196 1    
   150   76  197 1    
   151   76  198 1    
   152   76  199 1    
   153   77   78 2    
   154   77   79 am   BACKBONE|DICT|INTERRES
   155   79   80 1    
   156   79  200 1    
   157   80   81 1    
   158   80   82 1    
   159   80  201 1    
   160   81  202 1    
   161   81  203 1    
   162   81  204 1    
   163   82   83 2    
   164   82   84 am   BACKBONE|DICT|INTERRES
   165   84   85 1    
   166   84  205 1    
   167   85   86 1    
   168   85   87 1    
   169   85  206 1    
   170   86  207 1    
   171   86  208 1    
   172   86  209 1    
   173   87   88 2    
   174   87   89 am   BACKBONE|DICT|INTERRES
   175   89   90 1    
   176   89  210 1    
   177   90   91 1    
   178   90   92 1    
   179   90  211 1    
   180   91  212 1    
   181   91  213 1    
   182   91  214 1    
   183   92   93 2    
   184   92   94 am   BACKBONE|DICT|INTERRES
   185   94   95 1    
   186   94  215 1    
   187   95   96 1    
   188   95   97 1    
   189   95  216 1    
   190   96  217 1    
   191   96  218 1    
   192   96  219 1    
   193   97   98 2    
   194   97   99 am   BACKBONE|DICT|INTERRES
   195   99  100 1    
   196   99  220 1    
   197  100  101 1    
   198  100  102 1    
   199  100  221 1    
   200  101  222 1    
   201  101  223 1    
   202  101  224 1    
   203  102  103 2    
   204  102  104 am   BACKBONE|DICT|INTERRES
   205  104  105 1    
   206  104  225 1    
   207  105  106 1    
   208  105  107 1    
   209  105  226 1    
   210  106  227 1    
   211  106  228 1    
   212  106  229 1    
   213  107  108 2    
   214  107  109 am   BACKBONE|DICT|INTERRES
   215  109  110 1    
   216  109  230 1    
   217  110  111 1    
   218  110  112 1    
   219  110  231 1    
   220  111  232 1    
   221  111  233 1    
   222  111  234 1    
   223  112  113 2    
   224  112  114 am   BACKBONE|DICT|INTERRES
   225  114  115 1    
   226  114  235 1    
   227  115  116 1    
   228  115  117 1    
   229  115  236 1    
   230  116  237 1    
   231  116  238 1    
   232  116  239 1    
   233  117  118 2    
   234  117  119 am   BACKBONE|DICT|INTERRES
   235  119  120 1    
   236  119  240 1    
   237  120  121 1    
   238  120  124 1    
   239  120  241 1    
   240  121  122 am   BACKBONE|DICT|INTERRES
   241  121  123 2    
   242  122  242 1    
   243  122  243 1    
   244  124  125 1    
   245  124  244 1    
   246  124  245 1    
   247  125  126 1    
   248  126  246 1    
   249  126  247 1    
@<TRIPOS>SUBSTRUCTURE
     1 UNK         1 GROUP             0       ****    0 ROOT    
