@<TRIPOS>MOLECULE
3R540
247   249    1
SMALL
USER_CHARGES


@<TRIPOS>ATOM
      1 CA          3.4817  -15.6371  -48.2657 C.3       0 UNK        -0.1800 
      2 C           2.4064  -15.1564  -47.3047 C.2       0 UNK         0.5000 
      3 O           2.6923  -14.3706  -46.4001 O.2       0 UNK        -0.5000 
      4 N           1.1578  -15.6000  -47.5021 N.am      1 UNK        -0.5000 
      5 CA          0.0153  -15.2348  -46.6550 C.3       1 UNK         0.1400 
      6 C6         -1.1874  -16.1899  -46.8347 C.3       23 UNK        -0.0398 
      7 S7         -1.9524  -16.1449  -48.4943 S.3       23 UNK        -0.2404 
      8 C8         -1.6414  -17.8271  -49.1091 C.3       23 UNK        -0.0205 
      9 C9         -0.2745  -17.9567  -49.7607 C.ar      23 UNK        -0.0193 
     10 C10        -0.0843  -17.4744  -51.0583 C.ar      23 UNK        -0.1150 
     11 C11         1.1454  -17.6306  -51.7109 C.ar      23 UNK        -0.0193 
     12 C12         2.1895  -18.2625  -51.0307 C.ar      23 UNK        -0.1150 
     13 C13         2.0228  -18.7316  -49.7246 C.ar      23 UNK        -0.0193 
     14 C14         0.7850  -18.5766  -49.0915 C.ar      23 UNK        -0.1150 
     15 C15         3.1966  -19.3811  -49.0063 C.3       23 UNK        -0.0205 
     16 S16         3.0184  -21.1898  -48.8943 S.3       23 UNK        -0.2404 
     17 C17         2.4186  -21.3671  -47.1836 C.3       23 UNK        -0.0398 
     18 CA          1.4431  -22.5493  -46.9847 C.3       11 UNK         0.1400 
     19 N           1.3871  -22.9505  -45.5788 N.am      11 UNK        -0.5000 
     20 C           0.8370  -24.0805  -45.1172 C.2       10 UNK         0.5000 
     21 O           0.3529  -24.9515  -45.8391 O.2       10 UNK        -0.5000 
     22 CA          0.7881  -24.2377  -43.5857 C.3       10 UNK         0.1400 
     23 CB          2.0825  -24.8811  -43.0672 C.3       10 UNK        -0.1800 
     24 N           0.5726  -22.9605  -42.8998 N.am      10 UNK        -0.5000 
     25 C          -0.5738  -22.2668  -42.9468 C.2       9 UNK         0.5000 
     26 O          -1.5796  -22.6547  -43.5408 O.2       9 UNK        -0.5000 
     27 CA         -0.5759  -20.8864  -42.2635 C.3       9 UNK         0.1400 
     28 CB         -0.8184  -21.0248  -40.7533 C.3       9 UNK        -0.1800 
     29 N           0.6543  -20.1223  -42.4882 N.am      9 UNK        -0.5000 
     30 C           1.1063  -19.7261  -43.6855 C.2       8 UNK         0.5000 
     31 O           0.5482  -20.0250  -44.7405 O.2       8 UNK        -0.5000 
     32 CA          2.3848  -18.8636  -43.7309 C.3       8 UNK         0.1400 
     33 CB          2.3434  -17.8542  -44.8907 C.3       8 UNK        -0.1800 
     34 N           2.6226  -18.1254  -42.4926 N.am      8 UNK        -0.5000 
     35 C           3.2537  -18.5883  -41.4073 C.2       7 UNK         0.5000 
     36 O           3.6866  -19.7358  -41.3043 O.2       7 UNK        -0.5000 
     37 CA          3.3791  -17.6093  -40.2297 C.3       7 UNK         0.1400 
     38 CB          4.5115  -16.6010  -40.4786 C.3       7 UNK        -0.1800 
     39 N           2.1251  -16.8878  -40.0133 N.am      7 UNK        -0.5000 
     40 C           1.0910  -17.3637  -39.3058 C.2       6 UNK         0.5000 
     41 O           1.1027  -18.4480  -38.7227 O.2       6 UNK        -0.5000 
     42 CA         -0.1725  -16.4838  -39.2450 C.3       6 UNK         0.1400 
     43 CB         -0.0747  -15.4798  -38.0863 C.3       6 UNK        -0.1800 
     44 N          -0.4145  -15.7563  -40.4917 N.am      6 UNK        -0.5000 
     45 C          -0.8227  -16.3300  -41.6320 C.2       5 UNK         0.5000 
     46 O          -1.1081  -17.5221  -41.7301 O.2       5 UNK        -0.5000 
     47 CA         -0.9182  -15.4308  -42.8801 C.3       5 UNK         0.1400 
     48 CB         -2.3651  -14.9525  -43.0750 C.3       5 UNK        -0.1800 
     49 N          -0.0193  -14.2677  -42.8697 N.am      5 UNK        -0.5000 
     50 C           1.3172  -14.3259  -42.7984 C.2       4 UNK         0.5000 
     51 O           1.9463  -15.3834  -42.7539 O.2       4 UNK        -0.5000 
     52 CA          2.0661  -12.9884  -42.7358 C.3       4 UNK         0.1400 
     53 CB          3.3829  -13.1054  -41.9405 C.3       4 UNK        -0.1800 
     54 N           2.3362  -12.4952  -44.0844 N.am      4 UNK        -0.5000 
     55 C           2.5946  -11.2113  -44.3721 C.2       3 UNK         0.5000 
     56 O           2.5673  -10.3056  -43.5374 O.2       3 UNK        -0.5000 
     57 CA          2.9349  -10.8711  -45.8315 C.3       3 UNK         0.1400 
     58 CB          4.3499  -11.3494  -46.1961 C.3       3 UNK        -0.1800 
     59 N           1.9622  -11.4592  -46.7479 N.am      3 UNK        -0.5000 
     60 C           0.8423  -10.8460  -47.1592 C.2       2 UNK         0.5000 
     61 O           0.5431   -9.6913  -46.8523 O.2       2 UNK        -0.5000 
     62 CA         -0.1112  -11.6510  -48.0666 C.3       2 UNK         0.1400 
     63 CB          0.1505  -11.3280  -49.5455 C.3       2 UNK        -0.1800 
     64 N           0.0019  -13.0952  -47.8708 N.am      2 UNK        -0.5000 
     65 C          -0.3807  -13.7456  -46.7633 C.2       1 UNK         0.5000 
     66 O          -0.9728  -13.2056  -45.8294 O.2       1 UNK        -0.5000 
     67 C           0.0306  -22.2415  -47.5209 C.2       11 UNK         0.5000 
     68 O          -0.3348  -22.7317  -48.5870 O.2       11 UNK        -0.5000 
     69 N          -0.7614  -21.4946  -46.7378 N.am      12 UNK        -0.5000 
     70 CA         -2.1668  -21.1968  -47.0085 C.3       12 UNK         0.1400 
     71 CB         -2.6891  -20.1858  -45.9768 C.3       12 UNK        -0.1800 
     72 C          -3.0500  -22.4550  -47.0429 C.2       12 UNK         0.5000 
     73 O          -3.9165  -22.5540  -47.9112 O.2       12 UNK        -0.5000 
     74 N          -2.7929  -23.4073  -46.1352 N.am      13 UNK        -0.5000 
     75 CA         -3.4433  -24.7175  -46.1094 C.3       13 UNK         0.1400 
     76 CB         -3.0725  -25.4622  -44.8184 C.3       13 UNK        -0.1800 
     77 C          -3.1107  -25.5612  -47.3540 C.2       13 UNK         0.5000 
     78 O          -4.0231  -26.1181  -47.9644 O.2       13 UNK        -0.5000 
     79 N          -1.8268  -25.5984  -47.7416 N.am      14 UNK        -0.5000 
     80 CA         -1.3410  -26.2665  -48.9537 C.3       14 UNK         0.1400 
     81 CB          0.1951  -26.2743  -48.9555 C.3       14 UNK        -0.1800 
     82 C          -1.8878  -25.6365  -50.2505 C.2       14 UNK         0.5000 
     83 O          -2.2085  -26.3608  -51.1930 O.2       14 UNK        -0.5000 
     84 N          -2.0263  -24.3046  -50.2550 N.am      15 UNK        -0.5000 
     85 CA         -2.6403  -23.5115  -51.3214 C.3       15 UNK         0.1400 
     86 CB         -2.1844  -22.0505  -51.1696 C.3       15 UNK        -0.1800 
     87 C          -4.1817  -23.5970  -51.3536 C.2       15 UNK         0.5000 
     88 O          -4.7839  -23.0236  -52.2599 O.2       15 UNK        -0.5000 
     89 N          -4.7890  -24.2790  -50.3690 N.am      16 UNK        -0.5000 
     90 CA         -6.2270  -24.4895  -50.1700 C.3       16 UNK         0.1400 
     91 CB         -6.8118  -25.3622  -51.2997 C.3       16 UNK        -0.1800 
     92 C          -7.0041  -23.1739  -49.9533 C.2       16 UNK         0.5000 
     93 O          -8.0963  -23.0047  -50.4972 O.2       16 UNK        -0.5000 
     94 N          -6.4137  -22.2710  -49.1548 N.am      17 UNK        -0.5000 
     95 CA         -6.8592  -20.9009  -48.8731 C.3       17 UNK         0.1400 
     96 CB         -8.2300  -20.8812  -48.1642 C.3       17 UNK        -0.1800 
     97 C          -6.7942  -19.9934  -50.1205 C.2       17 UNK         0.5000 
     98 O          -7.6356  -19.1094  -50.2924 O.2       17 UNK        -0.5000 
     99 N          -5.7685  -20.2359  -50.9484 N.am      18 UNK        -0.5000 
    100 CA        -5.4735  -19.6181  -52.2423 C.3       18 UNK         0.1400 
    101 CB        -5.2915  -18.0899  -52.1135 C.3       18 UNK        -0.1800 
    102 C         -6.4745  -20.0258  -53.3460 C.2       18 UNK         0.5000 
    103 O         -7.3043  -20.9139  -53.1411 O.2       18 UNK        -0.5000 
    104 N         -6.3473  -19.4037  -54.5262 N.am      19 UNK        -0.5000 
    105 CA        -7.1328  -19.5880  -55.7549 C.3       19 UNK         0.1400 
    106 CB        -8.6416  -19.3783  -55.5210 C.3       19 UNK        -0.1800 
    107 C         -6.8491  -20.9083  -56.4969 C.2       19 UNK         0.5000 
    108 O         -6.7538  -20.8912  -57.7250 O.2       19 UNK        -0.5000 
    109 N         -6.6818  -22.0181  -55.7637 N.am      20 UNK        -0.5000 
    110 CA        -6.2032  -23.2980  -56.2979 C.3       20 UNK         0.1400 
    111 CB        -6.4324  -24.4075  -55.2619 C.3       20 UNK        -0.1800 
    112 C         -4.7171  -23.2193  -56.6998 C.2       20 UNK         0.5000 
    113 O         -4.3207  -23.7843  -57.7197 O.2       20 UNK        -0.5000 
    114 N         -3.9450  -22.4685  -55.9104 N.am      21 UNK        -0.5000 
    115 CA        -2.6018  -21.9913  -56.1980 C.3       21 UNK         0.1400 
    116 CB        -1.5609  -22.9921  -55.6707 C.3       21 UNK        -0.1800 
    117 C         -2.4837  -20.6347  -55.4942 C.2       21 UNK         0.5000 
    118 O         -3.0022  -20.4969  -54.3858 O.2       21 UNK        -0.5000 
    119 N         -1.8276  -19.6586  -56.1313 N.am      22 UNK        -0.5000 
    120 CA        -1.7225  -18.2670  -55.6525 C.3       22 UNK         0.1400 
    121 C         -3.0886  -17.5034  -55.6236 C.2       22 UNK         0.5000 
    122 N         -3.1136  -16.2685  -55.1437 N.am      22 UNK        -0.7600 
    123 O         -4.1293  -18.0015  -56.0474 O.2       22 UNK        -0.5000 
    124 C124       -0.9453  -18.1752  -54.3047 C.3       23 UNK        -0.0398 
    125 S125       -0.0469  -16.5978  -54.0944 S.3       23 UNK        -0.2404 
    126 C126        1.4135  -17.1263  -53.1322 C.3       23 UNK        -0.0205 
    127 H127        4.0970  -16.3990  -47.7878 H         1 UNK         0.0600 
    128 H128        4.1264  -14.8070  -48.5544 H         1 UNK         0.0600 
    129 H129        3.0497  -16.0585  -49.1729 H         1 UNK         0.0600 
    130 H130        0.9575  -16.2270  -48.2699 H         1 UNK         0.3000 
    131 H131        0.3565  -15.3560  -45.6275 H         1 UNK         0.0600 
    132 H132       -0.8717  -17.2070  -46.6002 H         1 UNK         0.0800 
    133 H133       -1.9633  -15.9549  -46.1042 H         1 UNK         0.0800 
    134 H134       -1.7544  -18.5426  -48.2974 H         1 UNK         0.0800 
    135 H135       -2.4104  -18.0796  -49.8409 H         1 UNK         0.0800 
    136 H136       -0.9099  -16.9813  -51.5494 H         1 UNK         0.1150 
    137 H137        3.1455  -18.3817  -51.5215 H         1 UNK         0.1150 
    138 H138        0.6425  -18.9453  -48.0858 H         1 UNK         0.1150 
    139 H139        4.1254  -19.1659  -49.5368 H         1 UNK         0.0800 
    140 H140        3.3185  -18.9395  -48.0169 H         1 UNK         0.0800 
    141 H141        1.9655  -20.4358  -46.8495 H         1 UNK         0.0800 
    142 H142        3.3033  -21.5067  -46.5607 H         1 UNK         0.0800 
    143 H143        1.8279  -23.4055  -47.5434 H         1 UNK         0.0600 
    144 H144        1.7070  -22.2716  -44.9054 H         1 UNK         0.3000 
    145 H145       -0.0441  -24.9022  -43.3444 H         1 UNK         0.0600 
    146 H146        2.0302  -25.0610  -41.9933 H         1 UNK         0.0600 
    147 H147        2.2589  -25.8439  -43.5487 H         1 UNK         0.0600 
    148 H148        2.9526  -24.2525  -43.2609 H         1 UNK         0.0600 
    149 H149        1.3528  -22.5728  -42.3896 H         1 UNK         0.3000 
    150 H150       -1.4010  -20.3108  -42.6883 H         1 UNK         0.0600 
    151 H151       -1.7362  -21.5795  -40.5537 H         1 UNK         0.0600 
    152 H152       -0.9217  -20.0471  -40.2818 H         1 UNK         0.0600 
    153 H153       -0.0005  -21.5501  -40.2588 H         1 UNK         0.0600 
    154 H154        1.1652  -19.8318  -41.6678 H         1 UNK         0.3000 
    155 H155        3.2220  -19.5418  -43.9067 H         1 UNK         0.0600 
    156 H156        1.4841  -17.1915  -44.8007 H         1 UNK         0.0600 
    157 H157        2.2725  -18.3499  -45.8576 H         1 UNK         0.0600 
    158 H158        3.2405  -17.2349  -44.9107 H         1 UNK         0.0600 
    159 H159        2.3115  -17.1560  -42.4956 H         1 UNK         0.3000 
    160 H160        3.6275  -18.1823  -39.3336 H         1 UNK         0.0600 
    161 H161        4.3361  -16.0076  -41.3764 H         1 UNK         0.0600 
    162 H162        5.4664  -17.1125  -40.6062 H         1 UNK         0.0600 
    163 H163        4.6199  -15.9143  -39.6390 H         1 UNK         0.0600 
    164 H164        2.0130  -16.0172  -40.5129 H         1 UNK         0.3000 
    165 H165       -1.0258  -17.1391  -39.0568 H         1 UNK         0.0600 
    166 H166       -0.9923  -14.8993  -37.9890 H         1 UNK         0.0600 
    167 H167        0.0853  -15.9938  -37.1375 H         1 UNK         0.0600 
    168 H168        0.7520  -14.7818  -38.2249 H         1 UNK         0.0600 
    169 H169       -0.2272  -14.7648  -40.4895 H         1 UNK         0.3000 
    170 H170       -0.6490  -16.0574  -43.7307 H         1 UNK         0.0600 
    171 H171       -3.0554  -15.7966  -43.1082 H         1 UNK         0.0600 
    172 H172       -2.6846  -14.2992  -42.2622 H         1 UNK         0.0600 
    173 H173       -2.4829  -14.4057  -44.0096 H         1 UNK         0.0600 
    174 H174       -0.4629  -13.3626  -42.9396 H         1 UNK         0.3000 
    175 H175        1.4186  -12.2788  -42.2162 H         1 UNK         0.0600 
    176 H176        4.1094  -13.7326  -42.4586 H         1 UNK         0.0600 
    177 H177        3.8407  -12.1290  -41.7821 H         1 UNK         0.0600 
    178 H178        3.2107  -13.5429  -40.9563 H         1 UNK         0.0600 
    179 H179        2.3881  -13.1952  -44.8203 H         1 UNK         0.3000 
    180 H180        2.9230   -9.7837  -45.9342 H         1 UNK         0.0600 
    181 H181        4.4566  -12.4300  -46.1007 H         1 UNK         0.0600 
    182 H182        5.0939  -10.8902  -45.5440 H         1 UNK         0.0600 
    183 H183        4.6045  -11.0780  -47.2207 H         1 UNK         0.0600 
    184 H184        2.1119  -12.4296  -46.9939 H         1 UNK         0.3000 
    185 H185       -1.1330  -11.3510  -47.8246 H         1 UNK         0.0600 
    186 H186        0.0465  -10.2589  -49.7358 H         1 UNK         0.0600 
    187 H187        1.1567  -11.6192  -49.8496 H         1 UNK         0.0600 
    188 H188       -0.5592  -11.8428  -50.1935 H         1 UNK         0.0600 
    189 H189        0.4712  -13.6195  -48.5945 H         1 UNK         0.3000 
    190 H190       -0.3669  -21.0904  -45.8908 H         1 UNK         0.3000 
    191 H191       -2.2203  -20.7407  -47.9973 H         1 UNK         0.0600 
    192 H192       -2.0801  -19.2824  -45.9615 H         1 UNK         0.0600 
    193 H193       -3.7125  -19.8872  -46.2072 H         1 UNK         0.0600 
    194 H194       -2.6869  -20.6014  -44.9691 H         1 UNK         0.0600 
    195 H195       -2.1149  -23.2163  -45.4047 H         1 UNK         0.3000 
    196 H196       -4.5225  -24.5505  -46.1014 H         1 UNK         0.0600 
    197 H197       -3.5853  -26.4231  -44.7626 H         1 UNK         0.0600 
    198 H198       -3.3591  -24.8887  -43.9367 H         1 UNK         0.0600 
    199 H199       -2.0027  -25.6584  -44.7558 H         1 UNK         0.0600 
    200 H200       -1.1262  -25.1451  -47.1628 H         1 UNK         0.3000 
    201 H201       -1.6842  -27.3026  -48.9209 H         1 UNK         0.0600 
    202 H202        0.5874  -26.7862  -48.0766 H         1 UNK         0.0600 
    203 H203        0.6039  -25.2637  -48.9631 H         1 UNK         0.0600 
    204 H204        0.5823  -26.7920  -49.8340 H         1 UNK         0.0600 
    205 H205       -1.6487  -23.7796  -49.4700 H         1 UNK         0.3000 
    206 H206       -2.2765  -23.8841  -52.2807 H         1 UNK         0.0600 
    207 H207       -1.0973  -21.9702  -51.1897 H         1 UNK         0.0600 
    208 H208       -2.5656  -21.4320  -51.9808 H         1 UNK         0.0600 
    209 H209       -2.5353  -21.6157  -50.2342 H         1 UNK         0.0600 
    210 H210       -4.1993  -24.6896  -49.6560 H         1 UNK         0.3000 
    211 H211       -6.3227  -25.0523  -49.2406 H         1 UNK         0.0600 
    212 H212       -6.8288  -24.8315  -52.2512 H         1 UNK         0.0600 
    213 H213       -7.8370  -25.6570  -51.0735 H         1 UNK         0.0600 
    214 H214       -6.2329  -26.2761  -51.4335 H         1 UNK         0.0600 
    215 H215       -5.5093  -22.5134  -48.7503 H         1 UNK         0.3000 
    216 H216       -6.1295  -20.4932  -48.1719 H         1 UNK         0.0600 
    217 H217       -8.4693  -19.8779  -47.8101 H         1 UNK         0.0600 
    218 H218       -8.2350  -21.5406  -47.2965 H         1 UNK         0.0600 
    219 H219       -9.0373  -21.1911  -48.8280 H         1 UNK         0.0600 
    220 H220       -5.2106  -21.0518  -50.7425 H         1 UNK         0.3000 
    221 H221       -4.5123  -20.0379  -52.5245 H         1 UNK         0.0600 
    222 H222       -6.2427  -17.5782  -51.9651 H         1 UNK         0.0600 
    223 H223       -4.6407  -17.8389  -51.2759 H         1 UNK         0.0600 
    224 H224       -4.8316  -17.6705  -53.0083 H         1 UNK         0.0600 
    225 H225       -5.5700  -18.7625  -54.6421 H         1 UNK         0.3000 
    226 H226       -6.8020  -18.7889  -56.4201 H         1 UNK         0.0600 
    227 H227       -8.8361  -18.4254  -55.0290 H         1 UNK         0.0600 
    228 H228       -9.1809  -19.3712  -56.4689 H         1 UNK         0.0600 
    229 H229       -9.0772  -20.1686  -54.9095 H         1 UNK         0.0600 
    230 H230       -6.8144  -21.9459  -54.7591 H         1 UNK         0.3000 
    231 H231       -6.7843  -23.5383  -57.1906 H         1 UNK         0.0600 
    232 H232       -5.8460  -24.2387  -54.3593 H         1 UNK         0.0600 
    233 H233       -6.1428  -25.3797  -55.6625 H         1 UNK         0.0600 
    234 H234       -7.4819  -24.4717  -54.9743 H         1 UNK         0.0600 
    235 H235       -4.3571  -22.0350  -55.0927 H         1 UNK         0.3000 
    236 H236       -2.4785  -21.8544  -57.2743 H         1 UNK         0.0600 
    237 H237       -1.6723  -23.9657  -56.1482 H         1 UNK         0.0600 
    238 H238       -0.5479  -22.6425  -55.8725 H         1 UNK         0.0600 
    239 H239       -1.6521  -23.1348  -54.5933 H         1 UNK         0.0600 
    240 H240       -1.4492  -19.8372  -57.0505 H         1 UNK         0.3000 
    241 H241       -1.1322  -17.7671  -56.4212 H         1 UNK         0.0600 
    242 H242       -3.9810  -15.7560  -55.1369 H         1 UNK         0.3800 
    243 H243       -2.2724  -15.8374  -54.7885 H         1 UNK         0.3800 
    244 H244       -1.6144  -18.3300  -53.4565 H         1 UNK         0.0800 
    245 H245       -0.2114  -18.9804  -54.2491 H         1 UNK         0.0800 
    246 H246        2.0961  -16.2783  -53.0660 H         1 UNK         0.0800 
    247 H247        1.9389  -17.8977  -53.6975 H         1 UNK         0.0800 
@<TRIPOS>BOND
     1    1    2 1    
     2    1  127 1    
     3    1  128 1    
     4    1  129 1    
     5    2    3 2    
     6    2    4 am   BACKBONE|DICT|INTERRES
     7    4    5 1    
     8    4  130 1    
     9    5    6 1    
    10    5   65 1    
    11    5  131 1    
    12    6    7 1    
    13    6  132 1    
    14    6  133 1    
    15    7    8 1    
    16    8    9 1    
    17    8  134 1    
    18    8  135 1    
    19    9   10 ar   
    20    9   14 ar   
    21   10   11 ar   
    22   10  136 1    
    23   11   12 ar   
    24   11  126 1    
    25   12   13 ar   
    26   12  137 1    
    27   13   14 ar   
    28   13   15 1    
    29   14  138 1    
    30   15   16 1    
    31   15  139 1    
    32   15  140 1    
    33   16   17 1    
    34   17   18 1    
    35   17  141 1    
    36   17  142 1    
    37   18   19 1    
    38   18   67 1    
    39   18  143 1    
    40   19   20 am   BACKBONE|DICT|INTERRES
    41   19  144 1    
    42   20   21 2    
    43   20   22 1    
    44   22   23 1    
    45   22   24 1    
    46   22  145 1    
    47   23  146 1    
    48   23  147 1    
    49   23  148 1    
    50   24   25 am   BACKBONE|DICT|INTERRES
    51   24  149 1    
    52   25   26 2    
    53   25   27 1    
    54   27   28 1    
    55   27   29 1    
    56   27  150 1    
    57   28  151 1    
    58   28  152 1    
    59   28  153 1    
    60   29   30 am   BACKBONE|DICT|INTERRES
    61   29  154 1    
    62   30   31 2    
    63   30   32 1    
    64   32   33 1    
    65   32   34 1    
    66   32  155 1    
    67   33  156 1    
    68   33  157 1    
    69   33  158 1    
    70   34   35 am   BACKBONE|DICT|INTERRES
    71   34  159 1    
    72   35   36 2    
    73   35   37 1    
    74   37   38 1    
    75   37   39 1    
    76   37  160 1    
    77   38  161 1    
    78   38  162 1    
    79   38  163 1    
    80   39   40 am   BACKBONE|DICT|INTERRES
    81   39  164 1    
    82   40   41 2    
    83   40   42 1    
    84   42   43 1    
    85   42   44 1    
    86   42  165 1    
    87   43  166 1    
    88   43  167 1    
    89   43  168 1    
    90   44   45 am   BACKBONE|DICT|INTERRES
    91   44  169 1    
    92   45   46 2    
    93   45   47 1    
    94   47   48 1    
    95   47   49 1    
    96   47  170 1    
    97   48  171 1    
    98   48  172 1    
    99   48  173 1    
   100   49   50 am   BACKBONE|DICT|INTERRES
   101   49  174 1    
   102   50   51 2    
   103   50   52 1    
   104   52   53 1    
   105   52   54 1    
   106   52  175 1    
   107   53  176 1    
   108   53  177 1    
   109   53  178 1    
   110   54   55 am   BACKBONE|DICT|INTERRES
   111   54  179 1    
   112   55   56 2    
   113   55   57 1    
   114   57   58 1    
   115   57   59 1    
   116   57  180 1    
   117   58  181 1    
   118   58  182 1    
   119   58  183 1    
   120   59   60 am   BACKBONE|DICT|INTERRES
   121   59  184 1    
   122   60   61 2    
   123   60   62 1    
   124   62   63 1    
   125   62   64 1    
   126   62  185 1    
   127   63  186 1    
   128   63  187 1    
   129   63  188 1    
   130   64   65 am   BACKBONE|DICT|INTERRES
   131   64  189 1    
   132   65   66 2    
   133   67   68 2    
   134   67   69 am   BACKBONE|DICT|INTERRES
   135   69   70 1    
   136   69  190 1    
   137   70   71 1    
   138   70   72 1    
   139   70  191 1    
   140   71  192 1    
   141   71  193 1    
   142   71  194 1    
   143   72   73 2    
   144   72   74 am   BACKBONE|DICT|INTERRES
   145   74   75 1    
   146   74  195 1    
   147   75   76 1    
   148   75   77 1    
   149   75  196 1    
   150   76  197 1    
   151   76  198 1    
   152   76  199 1    
   153   77   78 2    
   154   77   79 am   BACKBONE|DICT|INTERRES
   155   79   80 1    
   156   79  200 1    
   157   80   81 1    
   158   80   82 1    
   159   80  201 1    
   160   81  202 1    
   161   81  203 1    
   162   81  204 1    
   163   82   83 2    
   164   82   84 am   BACKBONE|DICT|INTERRES
   165   84   85 1    
   166   84  205 1    
   167   85   86 1    
   168   85   87 1    
   169   85  206 1    
   170   86  207 1    
   171   86  208 1    
   172   86  209 1    
   173   87   88 2    
   174   87   89 am   BACKBONE|DICT|INTERRES
   175   89   90 1    
   176   89  210 1    
   177   90   91 1    
   178   90   92 1    
   179   90  211 1    
   180   91  212 1    
   181   91  213 1    
   182   91  214 1    
   183   92   93 2    
   184   92   94 am   BACKBONE|DICT|INTERRES
   185   94   95 1    
   186   94  215 1    
   187   95   96 1    
   188   95   97 1    
   189   95  216 1    
   190   96  217 1    
   191   96  218 1    
   192   96  219 1    
   193   97   98 2    
   194   97   99 am   BACKBONE|DICT|INTERRES
   195   99  100 1    
   196   99  220 1    
   197  100  101 1    
   198  100  102 1    
   199  100  221 1    
   200  101  222 1    
   201  101  223 1    
   202  101  224 1    
   203  102  103 2    
   204  102  104 am   BACKBONE|DICT|INTERRES
   205  104  105 1    
   206  104  225 1    
   207  105  106 1    
   208  105  107 1    
   209  105  226 1    
   210  106  227 1    
   211  106  228 1    
   212  106  229 1    
   213  107  108 2    
   214  107  109 am   BACKBONE|DICT|INTERRES
   215  109  110 1    
   216  109  230 1    
   217  110  111 1    
   218  110  112 1    
   219  110  231 1    
   220  111  232 1    
   221  111  233 1    
   222  111  234 1    
   223  112  113 2    
   224  112  114 am   BACKBONE|DICT|INTERRES
   225  114  115 1    
   226  114  235 1    
   227  115  116 1    
   228  115  117 1    
   229  115  236 1    
   230  116  237 1    
   231  116  238 1    
   232  116  239 1    
   233  117  118 2    
   234  117  119 am   BACKBONE|DICT|INTERRES
   235  119  120 1    
   236  119  240 1    
   237  120  121 1    
   238  120  124 1    
   239  120  241 1    
   240  121  122 am   BACKBONE|DICT|INTERRES
   241  121  123 2    
   242  122  242 1    
   243  122  243 1    
   244  124  125 1    
   245  124  244 1    
   246  124  245 1    
   247  125  126 1    
   248  126  246 1    
   249  126  247 1    
@<TRIPOS>SUBSTRUCTURE
     1 UNK         1 GROUP             0       ****    0 ROOT    
