@<TRIPOS>MOLECULE
3R540
247   249    1
SMALL
USER_CHARGES


@<TRIPOS>ATOM
      1 CA          0.5787  -12.6370  -49.3558 C.3       0 UNK        -0.1800 
      2 C           1.8465  -12.2159  -50.1015 C.2       0 UNK         0.5000 
      3 O           1.7253  -11.4851  -51.0826 O.2       0 UNK        -0.5000 
      4 N           3.0713  -12.6211  -49.7259 N.am      1 UNK        -0.5000 
      5 CA          3.5190  -13.4662  -48.6065 C.3       1 UNK         0.1400 
      6 C6          3.0293  -14.9402  -48.6941 C.3       23 UNK        -0.0398 
      7 S7          3.7871  -15.8131  -50.1061 S.3       23 UNK        -0.2404 
      8 C8          2.4174  -15.8954  -51.3042 C.3       23 UNK        -0.0205 
      9 C9          1.3759  -16.9323  -50.9127 C.ar      23 UNK        -0.0193 
     10 C10         0.1184  -16.5366  -50.4488 C.ar      23 UNK        -0.1150 
     11 C11        -0.8433  -17.4896  -50.1022 C.ar      23 UNK        -0.0193 
     12 C12        -0.5319  -18.8482  -50.2084 C.ar      23 UNK        -0.1150 
     13 C13         0.7169  -19.2570  -50.6842 C.ar      23 UNK        -0.0193 
     14 C14         1.6644  -18.2938  -51.0393 C.ar      23 UNK        -0.1150 
     15 C15         1.0362  -20.7383  -50.8261 C.3       23 UNK        -0.0205 
     16 S16         2.3537  -21.2925  -49.6904 S.3       23 UNK        -0.2404 
     17 C17         1.6953  -20.8223  -48.0524 C.3       23 UNK        -0.0398 
     18 CA          0.9795  -21.9703  -47.3037 C.3       11 UNK         0.1400 
     19 N           0.7663  -21.6365  -45.8945 N.am      11 UNK        -0.5000 
     20 C           0.2924  -22.4754  -44.9631 C.2       10 UNK         0.5000 
     21 O           0.0313  -23.6590  -45.1753 O.2       10 UNK        -0.5000 
     22 CA          0.0127  -21.8759  -43.5731 C.3       10 UNK         0.1400 
     23 CB          1.3089  -21.7478  -42.7593 C.3       10 UNK        -0.1800 
     24 N          -0.6510  -20.5737  -43.6495 N.am      10 UNK        -0.5000 
     25 C          -1.8654  -20.3709  -44.1808 C.2       9 UNK         0.5000 
     26 O          -2.5817  -21.2718  -44.6160 O.2       9 UNK        -0.5000 
     27 CA         -2.3376  -18.9113  -44.2944 C.3       9 UNK         0.1400 
     28 CB         -2.8701  -18.3944  -42.9492 C.3       9 UNK        -0.1800 
     29 N          -1.2829  -18.0227  -44.7823 N.am      9 UNK        -0.5000 
     30 C          -0.7468  -18.0837  -46.0101 C.2       8 UNK         0.5000 
     31 O          -1.0927  -18.8938  -46.8672 O.2       8 UNK        -0.5000 
     32 CA          0.4069  -17.1072  -46.3044 C.3       8 UNK         0.1400 
     33 CB         -0.1328  -15.7035  -46.6196 C.3       8 UNK        -0.1800 
     34 N           1.3425  -17.0204  -45.1833 N.am      8 UNK        -0.5000 
     35 C           2.0938  -18.0385  -44.7395 C.2       7 UNK         0.5000 
     36 O           2.1186  -19.1532  -45.2582 O.2       7 UNK        -0.5000 
     37 CA          2.9092  -17.7739  -43.4650 C.3       7 UNK         0.1400 
     38 CB          4.2347  -17.0837  -43.8117 C.3       7 UNK        -0.1800 
     39 N           2.1648  -16.9616  -42.5005 N.am      7 UNK        -0.5000 
     40 C           1.0842  -17.3921  -41.8314 C.2       6 UNK         0.5000 
     41 O           0.5933  -18.5085  -42.0035 O.2       6 UNK        -0.5000 
     42 CA          0.4089  -16.4128  -40.8479 C.3       6 UNK         0.1400 
     43 CB         -0.1693  -17.1247  -39.6077 C.3       6 UNK        -0.1800 
     44 N           1.2531  -15.2762  -40.4657 N.am      6 UNK        -0.5000 
     45 C           2.3973  -15.2902  -39.7622 C.2       5 UNK         0.5000 
     46 O           2.8813  -16.3068  -39.2638 O.2       5 UNK        -0.5000 
     47 CA          3.1508  -13.9510  -39.6177 C.3       5 UNK         0.1400 
     48 CB          4.5859  -14.0766  -40.1576 C.3       5 UNK        -0.1800 
     49 N           2.4804  -12.8642  -40.3349 N.am      5 UNK        -0.5000 
     50 C           1.6245  -11.9884  -39.7903 C.2       4 UNK         0.5000 
     51 O           1.3609  -11.9468  -38.5884 O.2       4 UNK        -0.5000 
     52 CA          0.9228  -11.0078  -40.7540 C.3       4 UNK         0.1400 
     53 CB          1.6677   -9.6648  -40.7878 C.3       4 UNK        -0.1800 
     54 N           0.8019  -11.5185  -42.1232 N.am      4 UNK        -0.5000 
     55 C           0.0607  -12.5740  -42.4898 C.2       3 UNK         0.5000 
     56 O          -0.6437  -13.2157  -41.7118 O.2       3 UNK        -0.5000 
     57 CA          0.1873  -13.0403  -43.9527 C.3       3 UNK         0.1400 
     58 CB         -0.8794  -12.3745  -44.8336 C.3       3 UNK        -0.1800 
     59 N           1.5109  -12.7915  -44.5290 N.am      3 UNK        -0.5000 
     60 C           2.6627  -13.3087  -44.0857 C.2       2 UNK         0.5000 
     61 O           2.7275  -14.1110  -43.1516 O.2       2 UNK        -0.5000 
     62 CA          3.9371  -12.8456  -44.8185 C.3       2 UNK         0.1400 
     63 CB          5.2294  -13.2480  -44.0863 C.3       2 UNK        -0.1800 
     64 N           3.9824  -13.3405  -46.1969 N.am      2 UNK        -0.5000 
     65 C           3.2862  -12.8226  -47.2186 C.2       1 UNK         0.5000 
     66 O           2.5170  -11.8677  -47.0819 O.2       1 UNK        -0.5000 
     67 C          -0.3378  -22.3792  -47.9936 C.2       11 UNK         0.5000 
     68 O          -0.3793  -23.4273  -48.6368 O.2       11 UNK        -0.5000 
     69 N          -1.3971  -21.5755  -47.8184 N.am      12 UNK        -0.5000 
     70 CA         -2.7334  -21.8415  -48.3526 C.3       12 UNK         0.1400 
     71 CB         -3.6549  -20.6460  -48.0721 C.3       12 UNK        -0.1800 
     72 C          -3.3482  -23.1424  -47.8077 C.2       12 UNK         0.5000 
     73 O          -3.9250  -23.9044  -48.5818 O.2       12 UNK        -0.5000 
     74 N          -3.1820  -23.3944  -46.5020 N.am      13 UNK        -0.5000 
     75 CA         -3.6148  -24.6225  -45.8347 C.3       13 UNK         0.1400 
     76 CB         -3.4683  -24.4613  -44.3141 C.3       13 UNK        -0.1800 
     77 C          -2.8599  -25.8715  -46.3270 C.2       13 UNK         0.5000 
     78 O          -3.4817  -26.9188  -46.5084 O.2       13 UNK        -0.5000 
     79 N          -1.5441  -25.7378  -46.5457 N.am      14 UNK        -0.5000 
     80 CA         -0.6819  -26.7929  -47.0779 C.3       14 UNK         0.1400 
     81 CB          0.7914  -26.4009  -46.8860 C.3       14 UNK        -0.1800 
     82 C          -0.9758  -27.1099  -48.5554 C.2       14 UNK         0.5000 
     83 O          -1.0248  -28.2844  -48.9238 O.2       14 UNK        -0.5000 
     84 N          -1.1677  -26.0635  -49.3702 N.am      15 UNK        -0.5000 
     85 CA         -1.5018  -26.1657  -50.7908 C.3       15 UNK         0.1400 
     86 CB         -1.3284  -24.7914  -51.4547 C.3       15 UNK        -0.1800 
     87 C          -2.9224  -26.7082  -51.0291 C.2       15 UNK         0.5000 
     88 O          -3.1083  -27.5471  -51.9124 O.2       15 UNK        -0.5000 
     89 N          -3.8821  -26.2292  -50.2242 N.am      16 UNK        -0.5000 
     90 CA         -5.3116  -26.5397  -50.2587 C.3       16 UNK         0.1400 
     91 CB         -5.5553  -28.0037  -49.8276 C.3       16 UNK        -0.1800 
     92 C          -5.9633  -26.1536  -51.6064 C.2       16 UNK         0.5000 
     93 O          -5.5632  -25.1569  -52.2116 O.2       16 UNK        -0.5000 
     94 N          -6.9646  -26.9335  -52.0367 N.am      17 UNK        -0.5000 
     95 CA         -7.7668  -26.8073  -53.2583 C.3       17 UNK         0.1400 
     96 CB         -6.8967  -26.8758  -54.5303 C.3       17 UNK        -0.1800 
     97 C          -8.7015  -25.5833  -53.2638 C.2       17 UNK         0.5000 
     98 O          -9.9206  -25.7608  -53.2559 O.2       17 UNK        -0.5000 
     99 N          -8.1310  -24.3746  -53.2778 N.am      18 UNK        -0.5000 
    100 CA        -8.8363  -23.0986  -53.3575 C.3       18 UNK         0.1400 
    101 CB        -9.4259  -22.9068  -54.7709 C.3       18 UNK        -0.1800 
    102 C         -7.8708  -21.9519  -53.0282 C.2       18 UNK         0.5000 
    103 O         -6.6520  -22.1380  -53.0597 O.2       18 UNK        -0.5000 
    104 N         -8.4336  -20.7577  -52.7942 N.am      19 UNK        -0.5000 
    105 CA        -7.7078  -19.5019  -52.5560 C.3       19 UNK         0.1400 
    106 CB        -8.7178  -18.4033  -52.1918 C.3       19 UNK        -0.1800 
    107 C         -6.8185  -19.0485  -53.7344 C.2       19 UNK         0.5000 
    108 O         -5.9142  -18.2374  -53.5356 O.2       19 UNK        -0.5000 
    109 N         -7.0502  -19.6182  -54.9269 N.am      20 UNK        -0.5000 
    110 CA        -6.2188  -19.4880  -56.1260 C.3       20 UNK         0.1400 
    111 CB        -6.8705  -20.2828  -57.2675 C.3       20 UNK        -0.1800 
    112 C         -4.7541  -19.9343  -55.9267 C.2       20 UNK         0.5000 
    113 O         -3.8812  -19.4656  -56.6588 O.2       20 UNK        -0.5000 
    114 N         -4.4950  -20.7764  -54.9121 N.am      21 UNK        -0.5000 
    115 CA        -3.1594  -21.1645  -54.4478 C.3       21 UNK         0.1400 
    116 CB        -3.3018  -22.1651  -53.2910 C.3       21 UNK        -0.1800 
    117 C         -2.2748  -19.9762  -54.0126 C.2       21 UNK         0.5000 
    118 O         -1.0501  -20.0858  -54.0785 O.2       21 UNK        -0.5000 
    119 N         -2.9027  -18.8641  -53.6070 N.am      22 UNK        -0.5000 
    120 CA        -2.2376  -17.5901  -53.2979 C.3       22 UNK         0.1400 
    121 C         -1.8193  -16.7661  -54.5526 C.2       22 UNK         0.5000 
    122 N         -2.1666  -17.1628  -55.7725 N.am      22 UNK        -0.7600 
    123 O         -1.1554  -15.7420  -54.4187 O.2       22 UNK        -0.5000 
    124 C124       -3.0741  -16.7211  -52.3204 C.3       23 UNK        -0.0398 
    125 S125       -3.5367  -17.5954  -50.7836 S.3       23 UNK        -0.2404 
    126 C126       -2.2266  -17.0516  -49.6409 C.3       23 UNK        -0.0205 
    127 H127        0.7557  -13.2213  -48.4583 H         1 UNK         0.0600 
    128 H128       -0.0655  -13.2148  -50.0167 H         1 UNK         0.0600 
    129 H129        0.0267  -11.7476  -49.0523 H         1 UNK         0.0600 
    130 H130        3.8397  -12.2708  -50.2796 H         1 UNK         0.3000 
    131 H131        4.6054  -13.4876  -48.7094 H         1 UNK         0.0600 
    132 H132        3.3079  -15.4991  -47.7993 H         1 UNK         0.0800 
    133 H133        1.9469  -15.0166  -48.7596 H         1 UNK         0.0800 
    134 H134        1.9658  -14.9095  -51.4187 H         1 UNK         0.0800 
    135 H135        2.8244  -16.1557  -52.2822 H         1 UNK         0.0800 
    136 H136       -0.1179  -15.4863  -50.3717 H         1 UNK         0.1150 
    137 H137       -1.2748  -19.5853  -49.9402 H         1 UNK         0.1150 
    138 H138        2.6326  -18.6052  -51.4059 H         1 UNK         0.1150 
    139 H139        0.1426  -21.3442  -50.6708 H         1 UNK         0.0800 
    140 H140        1.3524  -20.9324  -51.8519 H         1 UNK         0.0800 
    141 H141        1.0571  -19.9425  -48.1250 H         1 UNK         0.0800 
    142 H142        2.5588  -20.5017  -47.4692 H         1 UNK         0.0800 
    143 H143        1.6380  -22.8414  -47.3204 H         1 UNK         0.0600 
    144 H144        1.0015  -20.6871  -45.6191 H         1 UNK         0.3000 
    145 H145       -0.6548  -22.5592  -43.0443 H         1 UNK         0.0600 
    146 H146        1.1061  -21.3871  -41.7506 H         1 UNK         0.0600 
    147 H147        1.8086  -22.7128  -42.6665 H         1 UNK         0.0600 
    148 H148        2.0115  -21.0566  -43.2252 H         1 UNK         0.0600 
    149 H149       -0.1459  -19.7822  -43.2612 H         1 UNK         0.3000 
    150 H150       -3.1575  -18.8836  -45.0153 H         1 UNK         0.0600 
    151 H151       -3.6848  -19.0231  -42.5876 H         1 UNK         0.0600 
    152 H152       -3.2597  -17.3806  -43.0421 H         1 UNK         0.0600 
    153 H153       -2.0975  -18.3882  -42.1805 H         1 UNK         0.0600 
    154 H154       -0.9105  -17.3569  -44.1243 H         1 UNK         0.3000 
    155 H155        0.9538  -17.4730  -47.1764 H         1 UNK         0.0600 
    156 H156       -0.8211  -15.3517  -45.8511 H         1 UNK         0.0600 
    157 H157       -0.6747  -15.6989  -47.5646 H         1 UNK         0.0600 
    158 H158        0.6725  -14.9745  -46.7024 H         1 UNK         0.0600 
    159 H159        1.3892  -16.1449  -44.6845 H         1 UNK         0.3000 
    160 H160        3.1344  -18.7346  -42.9974 H         1 UNK         0.0600 
    161 H161        4.0694  -16.1739  -44.3873 H         1 UNK         0.0600 
    162 H162        4.8662  -17.7383  -44.4135 H         1 UNK         0.0600 
    163 H163        4.7955  -16.8213  -42.9144 H         1 UNK         0.0600 
    164 H164        2.4795  -16.0067  -42.3673 H         1 UNK         0.3000 
    165 H165       -0.4324  -15.9850  -41.3943 H         1 UNK         0.0600 
    166 H166        0.5999  -17.6585  -39.0493 H         1 UNK         0.0600 
    167 H167       -0.6449  -16.4144  -38.9315 H         1 UNK         0.0600 
    168 H168       -0.9272  -17.8551  -39.8931 H         1 UNK         0.0600 
    169 H169        0.9319  -14.3814  -40.8131 H         1 UNK         0.3000 
    170 H170        3.2070  -13.7188  -38.5523 H         1 UNK         0.0600 
    171 H171        4.5984  -14.3973  -41.1996 H         1 UNK         0.0600 
    172 H172        5.1187  -13.1279  -40.0909 H         1 UNK         0.0600 
    173 H173        5.1568  -14.8086  -39.5852 H         1 UNK         0.0600 
    174 H174        2.6144  -12.8568  -41.3377 H         1 UNK         0.3000 
    175 H175       -0.0840  -10.8327  -40.3691 H         1 UNK         0.0600 
    176 H176        1.1410   -8.9363  -41.4045 H         1 UNK         0.0600 
    177 H177        1.7525   -9.2396  -39.7867 H         1 UNK         0.0600 
    178 H178        2.6779   -9.7744  -41.1843 H         1 UNK         0.0600 
    179 H179        1.3491  -11.0506  -42.8308 H         1 UNK         0.3000 
    180 H180        0.0187  -14.1183  -43.9617 H         1 UNK         0.0600 
    181 H181       -0.7542  -11.2915  -44.8667 H         1 UNK         0.0600 
    182 H182       -1.8820  -12.5790  -44.4556 H         1 UNK         0.0600 
    183 H183       -0.8360  -12.7465  -45.8574 H         1 UNK         0.0600 
    184 H184        1.5540  -12.1830  -45.3407 H         1 UNK         0.3000 
    185 H185        3.9121  -11.7539  -44.8395 H         1 UNK         0.0600 
    186 H186        5.3572  -14.3280  -44.0334 H         1 UNK         0.0600 
    187 H187        6.1063  -12.8344  -44.5845 H         1 UNK         0.0600 
    188 H188        5.2323  -12.8668  -43.0645 H         1 UNK         0.0600 
    189 H189        4.6025  -14.1193  -46.3657 H         1 UNK         0.3000 
    190 H190       -1.2807  -20.7054  -47.3037 H         1 UNK         0.3000 
    191 H191       -2.6391  -21.9486  -49.4353 H         1 UNK         0.0600 
    192 H192       -3.2686  -19.7361  -48.5282 H         1 UNK         0.0600 
    193 H193       -4.6513  -20.8155  -48.4818 H         1 UNK         0.0600 
    194 H194       -3.7637  -20.4624  -47.0031 H         1 UNK         0.0600 
    195 H195       -2.7420  -22.6884  -45.9177 H         1 UNK         0.3000 
    196 H196       -4.6737  -24.7671  -46.0586 H         1 UNK         0.0600 
    197 H197       -3.7998  -25.3594  -43.7915 H         1 UNK         0.0600 
    198 H198       -4.0703  -23.6300  -43.9467 H         1 UNK         0.0600 
    199 H199       -2.4330  -24.2760  -44.0266 H         1 UNK         0.0600 
    200 H200       -1.0954  -24.8560  -46.3176 H         1 UNK         0.3000 
    201 H201       -0.8653  -27.7014  -46.5005 H         1 UNK         0.0600 
    202 H202        1.0264  -26.2603  -45.8309 H         1 UNK         0.0600 
    203 H203        1.0343  -25.4748  -47.4078 H         1 UNK         0.0600 
    204 H204        1.4557  -27.1776  -47.2668 H         1 UNK         0.0600 
    205 H205       -1.0474  -25.1237  -48.9983 H         1 UNK         0.3000 
    206 H206       -0.7965  -26.8576  -51.2560 H         1 UNK         0.0600 
    207 H207       -1.5591  -24.8413  -52.5195 H         1 UNK         0.0600 
    208 H208       -1.9873  -24.0458  -51.0076 H         1 UNK         0.0600 
    209 H209       -0.3038  -24.4317  -51.3582 H         1 UNK         0.0600 
    210 H210       -3.6358  -25.4852  -49.5766 H         1 UNK         0.3000 
    211 H211       -5.7716  -25.8954  -49.5084 H         1 UNK         0.0600 
    212 H212       -5.2082  -28.7136  -50.5793 H         1 UNK         0.0600 
    213 H213       -6.6132  -28.1964  -49.6470 H         1 UNK         0.0600 
    214 H214       -5.0315  -28.2260  -48.8973 H         1 UNK         0.0600 
    215 H215       -7.2233  -27.7105  -51.4450 H         1 UNK         0.3000 
    216 H216       -8.4117  -27.6875  -53.2717 H         1 UNK         0.0600 
    217 H217       -6.2139  -26.0301  -54.6134 H         1 UNK         0.0600 
    218 H218       -6.3004  -27.7880  -54.5488 H         1 UNK         0.0600 
    219 H219       -7.5200  -26.8765  -55.4252 H         1 UNK         0.0600 
    220 H220       -7.1194  -24.3048  -53.1822 H         1 UNK         0.3000 
    221 H221       -9.6389  -23.0921  -52.6174 H         1 UNK         0.0600 
    222 H222      -10.1549  -23.6805  -55.0108 H         1 UNK         0.0600 
    223 H223       -9.9414  -21.9502  -54.8619 H         1 UNK         0.0600 
    224 H224       -8.6479  -22.9353  -55.5350 H         1 UNK         0.0600 
    225 H225       -9.4414  -20.6890  -52.8000 H         1 UNK         0.3000 
    226 H226       -7.0474  -19.6581  -51.7004 H         1 UNK         0.0600 
    227 H227       -9.2911  -18.6719  -51.3044 H         1 UNK         0.0600 
    228 H228       -8.2105  -17.4620  -51.9755 H         1 UNK         0.0600 
    229 H229       -9.4209  -18.2182  -53.0048 H         1 UNK         0.0600 
    230 H230       -7.8200  -20.2667  -54.9887 H         1 UNK         0.3000 
    231 H231       -6.2026  -18.4322  -56.4033 H         1 UNK         0.0600 
    232 H232       -6.2951  -20.1866  -58.1892 H         1 UNK         0.0600 
    233 H233       -7.8778  -19.9218  -57.4763 H         1 UNK         0.0600 
    234 H234       -6.9359  -21.3456  -57.0305 H         1 UNK         0.0600 
    235 H235       -5.2719  -21.1235  -54.3603 H         1 UNK         0.3000 
    236 H236       -2.6534  -21.6636  -55.2764 H         1 UNK         0.0600 
    237 H237       -2.3228  -22.4775  -52.9277 H         1 UNK         0.0600 
    238 H238       -3.8410  -21.7311  -52.4478 H         1 UNK         0.0600 
    239 H239       -3.8369  -23.0625  -53.6028 H         1 UNK         0.0600 
    240 H240       -3.9159  -18.8459  -53.5787 H         1 UNK         0.3000 
    241 H241       -1.2989  -17.8300  -52.7983 H         1 UNK         0.0600 
    242 H242       -1.8789  -16.6140  -56.5669 H         1 UNK         0.3800 
    243 H243       -2.7097  -18.0062  -55.9215 H         1 UNK         0.3800 
    244 H244       -3.9946  -16.3936  -52.8062 H         1 UNK         0.0800 
    245 H245       -2.5341  -15.8102  -52.0565 H         1 UNK         0.0800 
    246 H246       -2.4254  -17.4677  -48.6538 H         1 UNK         0.0800 
    247 H247       -2.2784  -15.9675  -49.5311 H         1 UNK         0.0800 
@<TRIPOS>BOND
     1    1    2 1    
     2    1  127 1    
     3    1  128 1    
     4    1  129 1    
     5    2    3 2    
     6    2    4 am   BACKBONE|DICT|INTERRES
     7    4    5 1    
     8    4  130 1    
     9    5    6 1    
    10    5   65 1    
    11    5  131 1    
    12    6    7 1    
    13    6  132 1    
    14    6  133 1    
    15    7    8 1    
    16    8    9 1    
    17    8  134 1    
    18    8  135 1    
    19    9   10 ar   
    20    9   14 ar   
    21   10   11 ar   
    22   10  136 1    
    23   11   12 ar   
    24   11  126 1    
    25   12   13 ar   
    26   12  137 1    
    27   13   14 ar   
    28   13   15 1    
    29   14  138 1    
    30   15   16 1    
    31   15  139 1    
    32   15  140 1    
    33   16   17 1    
    34   17   18 1    
    35   17  141 1    
    36   17  142 1    
    37   18   19 1    
    38   18   67 1    
    39   18  143 1    
    40   19   20 am   BACKBONE|DICT|INTERRES
    41   19  144 1    
    42   20   21 2    
    43   20   22 1    
    44   22   23 1    
    45   22   24 1    
    46   22  145 1    
    47   23  146 1    
    48   23  147 1    
    49   23  148 1    
    50   24   25 am   BACKBONE|DICT|INTERRES
    51   24  149 1    
    52   25   26 2    
    53   25   27 1    
    54   27   28 1    
    55   27   29 1    
    56   27  150 1    
    57   28  151 1    
    58   28  152 1    
    59   28  153 1    
    60   29   30 am   BACKBONE|DICT|INTERRES
    61   29  154 1    
    62   30   31 2    
    63   30   32 1    
    64   32   33 1    
    65   32   34 1    
    66   32  155 1    
    67   33  156 1    
    68   33  157 1    
    69   33  158 1    
    70   34   35 am   BACKBONE|DICT|INTERRES
    71   34  159 1    
    72   35   36 2    
    73   35   37 1    
    74   37   38 1    
    75   37   39 1    
    76   37  160 1    
    77   38  161 1    
    78   38  162 1    
    79   38  163 1    
    80   39   40 am   BACKBONE|DICT|INTERRES
    81   39  164 1    
    82   40   41 2    
    83   40   42 1    
    84   42   43 1    
    85   42   44 1    
    86   42  165 1    
    87   43  166 1    
    88   43  167 1    
    89   43  168 1    
    90   44   45 am   BACKBONE|DICT|INTERRES
    91   44  169 1    
    92   45   46 2    
    93   45   47 1    
    94   47   48 1    
    95   47   49 1    
    96   47  170 1    
    97   48  171 1    
    98   48  172 1    
    99   48  173 1    
   100   49   50 am   BACKBONE|DICT|INTERRES
   101   49  174 1    
   102   50   51 2    
   103   50   52 1    
   104   52   53 1    
   105   52   54 1    
   106   52  175 1    
   107   53  176 1    
   108   53  177 1    
   109   53  178 1    
   110   54   55 am   BACKBONE|DICT|INTERRES
   111   54  179 1    
   112   55   56 2    
   113   55   57 1    
   114   57   58 1    
   115   57   59 1    
   116   57  180 1    
   117   58  181 1    
   118   58  182 1    
   119   58  183 1    
   120   59   60 am   BACKBONE|DICT|INTERRES
   121   59  184 1    
   122   60   61 2    
   123   60   62 1    
   124   62   63 1    
   125   62   64 1    
   126   62  185 1    
   127   63  186 1    
   128   63  187 1    
   129   63  188 1    
   130   64   65 am   BACKBONE|DICT|INTERRES
   131   64  189 1    
   132   65   66 2    
   133   67   68 2    
   134   67   69 am   BACKBONE|DICT|INTERRES
   135   69   70 1    
   136   69  190 1    
   137   70   71 1    
   138   70   72 1    
   139   70  191 1    
   140   71  192 1    
   141   71  193 1    
   142   71  194 1    
   143   72   73 2    
   144   72   74 am   BACKBONE|DICT|INTERRES
   145   74   75 1    
   146   74  195 1    
   147   75   76 1    
   148   75   77 1    
   149   75  196 1    
   150   76  197 1    
   151   76  198 1    
   152   76  199 1    
   153   77   78 2    
   154   77   79 am   BACKBONE|DICT|INTERRES
   155   79   80 1    
   156   79  200 1    
   157   80   81 1    
   158   80   82 1    
   159   80  201 1    
   160   81  202 1    
   161   81  203 1    
   162   81  204 1    
   163   82   83 2    
   164   82   84 am   BACKBONE|DICT|INTERRES
   165   84   85 1    
   166   84  205 1    
   167   85   86 1    
   168   85   87 1    
   169   85  206 1    
   170   86  207 1    
   171   86  208 1    
   172   86  209 1    
   173   87   88 2    
   174   87   89 am   BACKBONE|DICT|INTERRES
   175   89   90 1    
   176   89  210 1    
   177   90   91 1    
   178   90   92 1    
   179   90  211 1    
   180   91  212 1    
   181   91  213 1    
   182   91  214 1    
   183   92   93 2    
   184   92   94 am   BACKBONE|DICT|INTERRES
   185   94   95 1    
   186   94  215 1    
   187   95   96 1    
   188   95   97 1    
   189   95  216 1    
   190   96  217 1    
   191   96  218 1    
   192   96  219 1    
   193   97   98 2    
   194   97   99 am   BACKBONE|DICT|INTERRES
   195   99  100 1    
   196   99  220 1    
   197  100  101 1    
   198  100  102 1    
   199  100  221 1    
   200  101  222 1    
   201  101  223 1    
   202  101  224 1    
   203  102  103 2    
   204  102  104 am   BACKBONE|DICT|INTERRES
   205  104  105 1    
   206  104  225 1    
   207  105  106 1    
   208  105  107 1    
   209  105  226 1    
   210  106  227 1    
   211  106  228 1    
   212  106  229 1    
   213  107  108 2    
   214  107  109 am   BACKBONE|DICT|INTERRES
   215  109  110 1    
   216  109  230 1    
   217  110  111 1    
   218  110  112 1    
   219  110  231 1    
   220  111  232 1    
   221  111  233 1    
   222  111  234 1    
   223  112  113 2    
   224  112  114 am   BACKBONE|DICT|INTERRES
   225  114  115 1    
   226  114  235 1    
   227  115  116 1    
   228  115  117 1    
   229  115  236 1    
   230  116  237 1    
   231  116  238 1    
   232  116  239 1    
   233  117  118 2    
   234  117  119 am   BACKBONE|DICT|INTERRES
   235  119  120 1    
   236  119  240 1    
   237  120  121 1    
   238  120  124 1    
   239  120  241 1    
   240  121  122 am   BACKBONE|DICT|INTERRES
   241  121  123 2    
   242  122  242 1    
   243  122  243 1    
   244  124  125 1    
   245  124  244 1    
   246  124  245 1    
   247  125  126 1    
   248  126  246 1    
   249  126  247 1    
@<TRIPOS>SUBSTRUCTURE
     1 UNK         1 GROUP             0       ****    0 ROOT    
