@<TRIPOS>MOLECULE
3R540
247   249    1
SMALL
USER_CHARGES


@<TRIPOS>ATOM
      1 CA          4.2796  -12.9585  -45.3967 C.3       0 UNK        -0.1800 
      2 C           2.7894  -13.0757  -45.1174 C.2       0 UNK         0.5000 
      3 O           2.3788  -13.0093  -43.9584 O.2       0 UNK        -0.5000 
      4 N           1.9774  -13.2489  -46.1695 N.am      1 UNK        -0.5000 
      5 CA          0.5184  -13.4058  -46.0899 C.3       1 UNK         0.1400 
      6 C6         -0.1240  -13.7851  -47.4483 C.3       23 UNK        -0.0398 
      7 S7          0.6371  -15.2338  -48.2576 S.3       23 UNK        -0.2404 
      8 C8         -0.4615  -16.5846  -47.7220 C.3       23 UNK        -0.0205 
      9 C9         -0.2973  -17.8265  -48.5892 C.ar      23 UNK        -0.0193 
     10 C10        -1.3839  -18.3223  -49.3151 C.ar      23 UNK        -0.1150 
     11 C11        -1.2510  -19.4646  -50.1098 C.ar      23 UNK        -0.0193 
     12 C12        -0.0117  -20.1063  -50.1893 C.ar      23 UNK        -0.1150 
     13 C13         1.0835  -19.6242  -49.4651 C.ar      23 UNK        -0.0193 
     14 C14         0.9311  -18.4905  -48.6599 C.ar      23 UNK        -0.1150 
     15 C15         2.4394  -20.3090  -49.5745 C.3       23 UNK        -0.0205 
     16 S16         2.4757  -21.9512  -48.7865 S.3       23 UNK        -0.2404 
     17 C17         2.2046  -21.5373  -47.0286 C.3       23 UNK        -0.0398 
     18 CA          1.1422  -22.4350  -46.3522 C.3       11 UNK         0.1400 
     19 N           1.1660  -22.3005  -44.8940 N.am      11 UNK        -0.5000 
     20 C           0.4771  -23.0730  -44.0420 C.2       10 UNK         0.5000 
     21 O          -0.2224  -24.0225  -44.3929 O.2       10 UNK        -0.5000 
     22 CA          0.5329  -22.6857  -42.5538 C.3       10 UNK         0.1400 
     23 CB          1.8396  -23.1696  -41.9082 C.3       10 UNK        -0.1800 
     24 N           0.3815  -21.2443  -42.3523 N.am      10 UNK        -0.5000 
     25 C          -0.7231  -20.5502  -42.6643 C.2       9 UNK         0.5000 
     26 O          -1.7594  -21.0687  -43.0812 O.2       9 UNK        -0.5000 
     27 CA         -0.6393  -19.0174  -42.5390 C.3       9 UNK         0.1400 
     28 CB         -0.8450  -18.5711  -41.0839 C.3       9 UNK        -0.1800 
     29 N           0.6265  -18.4809  -43.0399 N.am      9 UNK        -0.5000 
     30 C           1.0433  -18.5664  -44.3103 C.2       8 UNK         0.5000 
     31 O           0.3792  -19.0678  -45.2135 O.2       8 UNK        -0.5000 
     32 CA          2.4619  -18.0606  -44.6153 C.3       8 UNK         0.1400 
     33 CB          2.4844  -16.5373  -44.7900 C.3       8 UNK        -0.1800 
     34 N           3.4130  -18.4546  -43.5781 N.am      8 UNK        -0.5000 
     35 C           3.8280  -19.7129  -43.3778 C.2       7 UNK         0.5000 
     36 O           3.4711  -20.6675  -44.0677 O.2       7 UNK        -0.5000 
     37 CA          4.7691  -19.9471  -42.1828 C.3       7 UNK         0.1400 
     38 CB          6.2241  -19.6471  -42.5722 C.3       7 UNK        -0.1800 
     39 N           4.4024  -19.1432  -41.0161 N.am      7 UNK        -0.5000 
     40 C           3.2795  -19.3160  -40.3052 C.2       6 UNK         0.5000 
     41 O           2.4478  -20.1920  -40.5410 O.2       6 UNK        -0.5000 
     42 CA          3.0199  -18.3058  -39.1728 C.3       6 UNK         0.1400 
     43 CB          3.7647  -18.7209  -37.8953 C.3       6 UNK        -0.1800 
     44 N           3.3787  -16.9268  -39.5221 N.am      6 UNK        -0.5000 
     45 C           2.8274  -16.2320  -40.5257 C.2       5 UNK         0.5000 
     46 O           2.0160  -16.7099  -41.3206 O.2       5 UNK        -0.5000 
     47 CA          3.2813  -14.7710  -40.6932 C.3       5 UNK         0.1400 
     48 CB          4.4348  -14.6809  -41.7040 C.3       5 UNK        -0.1800 
     49 N           2.1847  -13.9179  -41.1495 N.am      5 UNK        -0.5000 
     50 C           1.0790  -13.6476  -40.4402 C.2       4 UNK         0.5000 
     51 O           0.8962  -14.0361  -39.2842 O.2       4 UNK        -0.5000 
     52 CA          0.0175  -12.7805  -41.1476 C.3       4 UNK         0.1400 
     53 CB         -1.1092  -12.2977  -40.2106 C.3       4 UNK        -0.1800 
     54 N           0.6192  -11.6583  -41.8704 N.am      4 UNK        -0.5000 
     55 C           1.3466  -10.6488  -41.3669 C.2       3 UNK         0.5000 
     56 O           1.5390  -10.4682  -40.1640 O.2       3 UNK        -0.5000 
     57 CA          1.9909   -9.6826  -42.3816 C.3       3 UNK         0.1400 
     58 CB          3.5087   -9.9173  -42.4537 C.3       3 UNK        -0.1800 
     59 N           1.4309   -9.8207  -43.7271 N.am      3 UNK        -0.5000 
     60 C           0.2732   -9.2825  -44.1336 C.2       2 UNK         0.5000 
     61 O          -0.4182   -8.5387  -43.4372 O.2       2 UNK        -0.5000 
     62 CA         -0.1999   -9.6545  -45.5517 C.3       2 UNK         0.1400 
     63 CB          0.2498   -8.5908  -46.5649 C.3       2 UNK        -0.1800 
     64 N           0.2840  -10.9667  -45.9902 N.am      2 UNK        -0.5000 
     65 C          -0.1621  -12.1425  -45.5230 C.2       1 UNK         0.5000 
     66 O          -1.0358  -12.2513  -44.6629 O.2       1 UNK        -0.5000 
     67 C          -0.2750  -22.2216  -46.9270 C.2       11 UNK         0.5000 
     68 O          -0.7192  -23.0375  -47.7312 O.2       11 UNK        -0.5000 
     69 N          -0.9828  -21.1843  -46.4585 N.am      12 UNK        -0.5000 
     70 CA         -2.3609  -20.8715  -46.8430 C.3       12 UNK         0.1400 
     71 CB         -2.7818  -19.5374  -46.2076 C.3       12 UNK        -0.1800 
     72 C          -3.3717  -21.9762  -46.4862 C.2       12 UNK         0.5000 
     73 O          -4.3336  -22.1776  -47.2281 O.2       12 UNK        -0.5000 
     74 N          -3.1390  -22.6712  -45.3656 N.am      13 UNK        -0.5000 
     75 CA         -3.9241  -23.8283  -44.9454 C.3       13 UNK         0.1400 
     76 CB         -3.7019  -24.0761  -43.4451 C.3       13 UNK        -0.1800 
     77 C          -3.5891  -25.0877  -45.7669 C.2       13 UNK         0.5000 
     78 O          -4.5010  -25.8243  -46.1450 O.2       13 UNK        -0.5000 
     79 N          -2.2927  -25.3246  -46.0055 N.am      14 UNK        -0.5000 
     80 CA         -1.7779  -26.5228  -46.6647 C.3       14 UNK         0.1400 
     81 CB         -0.2909  -26.6927  -46.3143 C.3       14 UNK        -0.1800 
     82 C          -1.9739  -26.5280  -48.1910 C.2       14 UNK         0.5000 
     83 O          -2.4240  -27.5366  -48.7372 O.2       14 UNK        -0.5000 
     84 N          -1.5938  -25.4327  -48.8586 N.am      15 UNK        -0.5000 
     85 CA         -1.5550  -25.3297  -50.3138 C.3       15 UNK         0.1400 
     86 CB         -0.3826  -24.4238  -50.7279 C.3       15 UNK        -0.1800 
     87 C          -2.8756  -24.7761  -50.8653 C.2       15 UNK         0.5000 
     88 O          -3.3317  -23.7188  -50.4264 O.2       15 UNK        -0.5000 
     89 N          -3.4326  -25.4731  -51.8634 N.am      16 UNK        -0.5000 
     90 CA         -4.5681  -25.0013  -52.6603 C.3       16 UNK         0.1400 
     91 CB         -5.2664  -26.2089  -53.3044 C.3       16 UNK        -0.1800 
     92 C          -4.1429  -23.9870  -53.7412 C.2       16 UNK         0.5000 
     93 O          -4.9766  -23.1977  -54.1809 O.2       16 UNK        -0.5000 
     94 N          -2.8603  -24.0276  -54.1362 N.am      17 UNK        -0.5000 
     95 CA         -2.2195  -23.2091  -55.1683 C.3       17 UNK         0.1400 
     96 CB         -2.1776  -21.7242  -54.7406 C.3       17 UNK        -0.1800 
     97 C          -2.8246  -23.4567  -56.5691 C.2       17 UNK         0.5000 
     98 O          -3.0727  -24.6113  -56.9258 O.2       17 UNK        -0.5000 
     99 N          -3.0039  -22.3853  -57.3514 N.am      18 UNK        -0.5000 
    100 CA        -3.5671  -22.3931  -58.7021 C.3       18 UNK         0.1400 
    101 CB        -3.2504  -21.0340  -59.3523 C.3       18 UNK        -0.1800 
    102 C         -5.0859  -22.6661  -58.7194 C.2       18 UNK         0.5000 
    103 O         -5.7244  -22.7352  -57.6672 O.2       18 UNK        -0.5000 
    104 N         -5.6575  -22.7475  -59.9300 N.am      19 UNK        -0.5000 
    105 CA        -7.0915  -22.9392  -60.1962 C.3       19 UNK         0.1400 
    106 CB        -7.3003  -23.0661  -61.7131 C.3       19 UNK        -0.1800 
    107 C         -8.0123  -21.8416  -59.6153 C.2       19 UNK         0.5000 
    108 O         -9.2083  -22.0797  -59.4456 O.2       19 UNK        -0.5000 
    109 N         -7.4346  -20.6784  -59.2845 N.am      20 UNK        -0.5000 
    110 CA        -8.0641  -19.5852  -58.5405 C.3       20 UNK         0.1400 
    111 CB        -7.2088  -18.3209  -58.7275 C.3       20 UNK        -0.1800 
    112 C         -8.2646  -19.8844  -57.0359 C.2       20 UNK         0.5000 
    113 O         -8.8227  -19.0419  -56.3311 O.2       20 UNK        -0.5000 
    114 N         -7.7803  -21.0419  -56.5560 N.am      21 UNK        -0.5000 
    115 CA        -7.8492  -21.5409  -55.1771 C.3       21 UNK         0.1400 
    116 CB        -9.3093  -21.8271  -54.7681 C.3       21 UNK        -0.1800 
    117 C         -7.1062  -20.6303  -54.1782 C.2       21 UNK         0.5000 
    118 O         -7.5450  -20.4668  -53.0381 O.2       21 UNK        -0.5000 
    119 N         -6.0032  -20.0318  -54.6483 N.am      22 UNK        -0.5000 
    120 CA        -5.1833  -19.0377  -53.9391 C.3       22 UNK         0.1400 
    121 C         -5.8739  -17.6478  -53.7510 C.2       22 UNK         0.5000 
    122 N         -7.0035  -17.3685  -54.3937 N.am      22 UNK        -0.7600 
    123 O         -5.3671  -16.7881  -53.0363 O.2       22 UNK        -0.5000 
    124 C124       -4.5682  -19.6106  -52.6280 C.3       23 UNK        -0.0398 
    125 S125       -2.8891  -18.9871  -52.2866 S.3       23 UNK        -0.2404 
    126 C126       -2.4611  -20.0144  -50.8488 C.3       23 UNK        -0.0205 
    127 H127        4.8207  -13.7453  -44.8714 H         1 UNK         0.0600 
    128 H128        4.6515  -11.9957  -45.0468 H         1 UNK         0.0600 
    129 H129        4.5005  -13.0447  -46.4607 H         1 UNK         0.0600 
    130 H130        2.3727  -13.3210  -47.0964 H         1 UNK         0.3000 
    131 H131        0.3202  -14.2200  -45.3893 H         1 UNK         0.0600 
    132 H132       -0.0424  -12.9529  -48.1501 H         1 UNK         0.0800 
    133 H133       -1.1938  -13.9632  -47.3261 H         1 UNK         0.0800 
    134 H134       -1.4971  -16.2433  -47.7523 H         1 UNK         0.0800 
    135 H135       -0.2508  -16.8370  -46.6829 H         1 UNK         0.0800 
    136 H136       -2.3422  -17.8255  -49.2584 H         1 UNK         0.1150 
    137 H137        0.1011  -20.9874  -50.8051 H         1 UNK         0.1150 
    138 H138        1.7713  -18.1108  -48.0960 H         1 UNK         0.1150 
    139 H139        2.6933  -20.4223  -50.6293 H         1 UNK         0.0800 
    140 H140        3.2239  -19.6880  -49.1392 H         1 UNK         0.0800 
    141 H141        1.9454  -20.4851  -46.9159 H         1 UNK         0.0800 
    142 H142        3.1642  -21.6625  -46.5262 H         1 UNK         0.0800 
    143 H143        1.4143  -23.4717  -46.5626 H         1 UNK         0.0600 
    144 H144        1.7550  -21.5638  -44.5191 H         1 UNK         0.3000 
    145 H145       -0.2984  -23.1832  -42.0500 H         1 UNK         0.0600 
    146 H146        1.8468  -22.9683  -40.8369 H         1 UNK         0.0600 
    147 H147        1.9641  -24.2454  -42.0381 H         1 UNK         0.0600 
    148 H148        2.7115  -22.6824  -42.3449 H         1 UNK         0.0600 
    149 H149        1.1752  -20.7529  -41.9526 H         1 UNK         0.3000 
    150 H150       -1.4425  -18.5903  -43.1428 H         1 UNK         0.0600 
    151 H151       -1.8002  -18.9283  -40.6973 H         1 UNK         0.0600 
    152 H152       -0.8449  -17.4839  -41.0015 H         1 UNK         0.0600 
    153 H153       -0.0611  -18.9546  -40.4305 H         1 UNK         0.0600 
    154 H154        1.2153  -17.9952  -42.3665 H         1 UNK         0.3000 
    155 H155        2.7823  -18.5097  -45.5578 H         1 UNK         0.0600 
    156 H156        2.1248  -16.0165  -43.9022 H         1 UNK         0.0600 
    157 H157        1.8508  -16.2365  -45.6232 H         1 UNK         0.0600 
    158 H158        3.4910  -16.1799  -45.0066 H         1 UNK         0.0600 
    159 H159        3.7003  -17.7389  -42.9281 H         1 UNK         0.3000 
    160 H160        4.6998  -21.0013  -41.9060 H         1 UNK         0.0600 
    161 H161        6.3642  -18.5983  -42.8368 H         1 UNK         0.0600 
    162 H162        6.5288  -20.2462  -43.4315 H         1 UNK         0.0600 
    163 H163        6.9070  -19.8818  -41.7555 H         1 UNK         0.0600 
    164 H164        5.0297  -18.3968  -40.7552 H         1 UNK         0.3000 
    165 H165        1.9489  -18.3224  -38.9606 H         1 UNK         0.0600 
    166 H166        3.5079  -18.0695  -37.0596 H         1 UNK         0.0600 
    167 H167        3.5024  -19.7389  -37.6039 H         1 UNK         0.0600 
    168 H168        4.8466  -18.6861  -38.0288 H         1 UNK         0.0600 
    169 H169        4.0473  -16.4702  -38.9184 H         1 UNK         0.3000 
    170 H170        3.6267  -14.3927  -39.7290 H         1 UNK         0.0600 
    171 H171        5.2911  -15.2721  -41.3776 H         1 UNK         0.0600 
    172 H172        4.1374  -15.0467  -42.6871 H         1 UNK         0.0600 
    173 H173        4.7753  -13.6519  -41.8223 H         1 UNK         0.0600 
    174 H174        2.2449  -13.5745  -42.1044 H         1 UNK         0.3000 
    175 H175       -0.4379  -13.4193  -41.9059 H         1 UNK         0.0600 
    176 H176       -1.6412  -13.1436  -39.7739 H         1 UNK         0.0600 
    177 H177       -0.7250  -11.6943  -39.3878 H         1 UNK         0.0600 
    178 H178       -1.8414  -11.6992  -40.7526 H         1 UNK         0.0600 
    179 H179        0.5587  -11.7220  -42.8776 H         1 UNK         0.3000 
    180 H180        1.8186   -8.6644  -42.0265 H         1 UNK         0.0600 
    181 H181        3.7459  -10.9333  -42.7709 H         1 UNK         0.0600 
    182 H182        3.9737   -9.7637  -41.4791 H         1 UNK         0.0600 
    183 H183        3.9833   -9.2270  -43.1513 H         1 UNK         0.0600 
    184 H184        1.9238  -10.4349  -44.3582 H         1 UNK         0.3000 
    185 H185       -1.2918   -9.6762  -45.5409 H         1 UNK         0.0600 
    186 H186       -0.1161   -7.6028  -46.2820 H         1 UNK         0.0600 
    187 H187        1.3369   -8.5314  -46.6318 H         1 UNK         0.0600 
    188 H188       -0.1375   -8.8060  -47.5610 H         1 UNK         0.0600 
    189 H189        1.0166  -10.9701  -46.6853 H         1 UNK         0.3000 
    190 H190       -0.5254  -20.5187  -45.8387 H         1 UNK         0.3000 
    191 H191       -2.3776  -20.7591  -47.9267 H         1 UNK         0.0600 
    192 H192       -2.0966  -18.7351  -46.4761 H         1 UNK         0.0600 
    193 H193       -3.7764  -19.2423  -46.5436 H         1 UNK         0.0600 
    194 H194       -2.8071  -19.6007  -45.1199 H         1 UNK         0.0600 
    195 H195       -2.3548  -22.4061  -44.7820 H         1 UNK         0.3000 
    196 H196       -4.9826  -23.6032  -45.0931 H         1 UNK         0.0600 
    197 H197       -4.2994  -24.9193  -43.0964 H         1 UNK         0.0600 
    198 H198       -3.9908  -23.2055  -42.8559 H         1 UNK         0.0600 
    199 H199       -2.6584  -24.2978  -43.2204 H         1 UNK         0.0600 
    200 H200       -1.6009  -24.6853  -45.6255 H         1 UNK         0.3000 
    201 H201       -2.3110  -27.3868  -46.2621 H         1 UNK         0.0600 
    202 H202       -0.1495  -26.7951  -45.2382 H         1 UNK         0.0600 
    203 H203        0.3012  -25.8397  -46.6483 H         1 UNK         0.0600 
    204 H204        0.1236  -27.5859  -46.7835 H         1 UNK         0.0600 
    205 H205       -1.2985  -24.6019  -48.3459 H         1 UNK         0.3000 
    206 H206       -1.3715  -26.3180  -50.7413 H         1 UNK         0.0600 
    207 H207        0.5633  -24.7950  -50.3332 H         1 UNK         0.0600 
    208 H208       -0.2885  -24.3773  -51.8134 H         1 UNK         0.0600 
    209 H209       -0.5143  -23.4024  -50.3689 H         1 UNK         0.0600 
    210 H210       -3.0157  -26.3485  -52.1465 H         1 UNK         0.3000 
    211 H211       -5.2850  -24.5050  -52.0024 H         1 UNK         0.0600 
    212 H212       -4.6003  -26.7476  -53.9796 H         1 UNK         0.0600 
    213 H213       -6.1347  -25.8927  -53.8843 H         1 UNK         0.0600 
    214 H214       -5.6196  -26.9103  -52.5482 H         1 UNK         0.0600 
    215 H215       -2.2757  -24.7428  -53.7312 H         1 UNK         0.3000 
    216 H216       -1.1874  -23.5573  -55.2262 H         1 UNK         0.0600 
    217 H217       -1.5346  -21.1379  -55.3976 H         1 UNK         0.0600 
    218 H218       -1.7766  -21.6207  -53.7322 H         1 UNK         0.0600 
    219 H219       -3.1680  -21.2694  -54.7496 H         1 UNK         0.0600 
    220 H220       -2.7878  -21.4785  -56.9661 H         1 UNK         0.3000 
    221 H221       -3.0771  -23.1821  -59.2761 H         1 UNK         0.0600 
    222 H222       -3.7470  -20.2134  -58.8326 H         1 UNK         0.0600 
    223 H223       -2.1786  -20.8341  -59.3431 H         1 UNK         0.0600 
    224 H224       -3.5682  -21.0029  -60.3950 H         1 UNK         0.0600 
    225 H225       -5.0679  -22.6696  -60.7463 H         1 UNK         0.3000 
    226 H226       -7.3867  -23.8815  -59.7304 H         1 UNK         0.0600 
    227 H227       -6.7322  -23.9019  -62.1221 H         1 UNK         0.0600 
    228 H228       -8.3501  -23.2431  -61.9511 H         1 UNK         0.0600 
    229 H229       -6.9931  -22.1606  -62.2379 H         1 UNK         0.0600 
    230 H230       -6.4497  -20.5766  -59.4773 H         1 UNK         0.3000 
    231 H231       -9.0515  -19.3997  -58.9680 H         1 UNK         0.0600 
    232 H232       -7.1029  -18.0684  -59.7827 H         1 UNK         0.0600 
    233 H233       -6.2092  -18.4459  -58.3093 H         1 UNK         0.0600 
    234 H234       -7.6646  -17.4605  -58.2356 H         1 UNK         0.0600 
    235 H235       -7.2562  -21.6406  -57.1877 H         1 UNK         0.3000 
    236 H236       -7.3191  -22.4936  -55.1762 H         1 UNK         0.0600 
    237 H237       -9.3517  -22.3330  -53.8030 H         1 UNK         0.0600 
    238 H238       -9.8944  -20.9110  -54.6827 H         1 UNK         0.0600 
    239 H239       -9.8016  -22.4739  -55.4943 H         1 UNK         0.0600 
    240 H240       -5.7291  -20.2374  -55.5974 H         1 UNK         0.3000 
    241 H241       -4.3628  -18.8409  -54.6299 H         1 UNK         0.0600 
    242 H242       -7.4271  -16.4629  -54.2675 H         1 UNK         0.3800 
    243 H243       -7.4649  -18.0559  -54.9759 H         1 UNK         0.3800 
    244 H244       -5.2145  -19.4110  -51.7716 H         1 UNK         0.0800 
    245 H245       -4.4914  -20.6973  -52.6929 H         1 UNK         0.0800 
    246 H246       -3.3084  -20.0536  -50.1626 H         1 UNK         0.0800 
    247 H247       -2.2839  -21.0408  -51.1752 H         1 UNK         0.0800 
@<TRIPOS>BOND
     1    1    2 1    
     2    1  127 1    
     3    1  128 1    
     4    1  129 1    
     5    2    3 2    
     6    2    4 am   BACKBONE|DICT|INTERRES
     7    4    5 1    
     8    4  130 1    
     9    5    6 1    
    10    5   65 1    
    11    5  131 1    
    12    6    7 1    
    13    6  132 1    
    14    6  133 1    
    15    7    8 1    
    16    8    9 1    
    17    8  134 1    
    18    8  135 1    
    19    9   10 ar   
    20    9   14 ar   
    21   10   11 ar   
    22   10  136 1    
    23   11   12 ar   
    24   11  126 1    
    25   12   13 ar   
    26   12  137 1    
    27   13   14 ar   
    28   13   15 1    
    29   14  138 1    
    30   15   16 1    
    31   15  139 1    
    32   15  140 1    
    33   16   17 1    
    34   17   18 1    
    35   17  141 1    
    36   17  142 1    
    37   18   19 1    
    38   18   67 1    
    39   18  143 1    
    40   19   20 am   BACKBONE|DICT|INTERRES
    41   19  144 1    
    42   20   21 2    
    43   20   22 1    
    44   22   23 1    
    45   22   24 1    
    46   22  145 1    
    47   23  146 1    
    48   23  147 1    
    49   23  148 1    
    50   24   25 am   BACKBONE|DICT|INTERRES
    51   24  149 1    
    52   25   26 2    
    53   25   27 1    
    54   27   28 1    
    55   27   29 1    
    56   27  150 1    
    57   28  151 1    
    58   28  152 1    
    59   28  153 1    
    60   29   30 am   BACKBONE|DICT|INTERRES
    61   29  154 1    
    62   30   31 2    
    63   30   32 1    
    64   32   33 1    
    65   32   34 1    
    66   32  155 1    
    67   33  156 1    
    68   33  157 1    
    69   33  158 1    
    70   34   35 am   BACKBONE|DICT|INTERRES
    71   34  159 1    
    72   35   36 2    
    73   35   37 1    
    74   37   38 1    
    75   37   39 1    
    76   37  160 1    
    77   38  161 1    
    78   38  162 1    
    79   38  163 1    
    80   39   40 am   BACKBONE|DICT|INTERRES
    81   39  164 1    
    82   40   41 2    
    83   40   42 1    
    84   42   43 1    
    85   42   44 1    
    86   42  165 1    
    87   43  166 1    
    88   43  167 1    
    89   43  168 1    
    90   44   45 am   BACKBONE|DICT|INTERRES
    91   44  169 1    
    92   45   46 2    
    93   45   47 1    
    94   47   48 1    
    95   47   49 1    
    96   47  170 1    
    97   48  171 1    
    98   48  172 1    
    99   48  173 1    
   100   49   50 am   BACKBONE|DICT|INTERRES
   101   49  174 1    
   102   50   51 2    
   103   50   52 1    
   104   52   53 1    
   105   52   54 1    
   106   52  175 1    
   107   53  176 1    
   108   53  177 1    
   109   53  178 1    
   110   54   55 am   BACKBONE|DICT|INTERRES
   111   54  179 1    
   112   55   56 2    
   113   55   57 1    
   114   57   58 1    
   115   57   59 1    
   116   57  180 1    
   117   58  181 1    
   118   58  182 1    
   119   58  183 1    
   120   59   60 am   BACKBONE|DICT|INTERRES
   121   59  184 1    
   122   60   61 2    
   123   60   62 1    
   124   62   63 1    
   125   62   64 1    
   126   62  185 1    
   127   63  186 1    
   128   63  187 1    
   129   63  188 1    
   130   64   65 am   BACKBONE|DICT|INTERRES
   131   64  189 1    
   132   65   66 2    
   133   67   68 2    
   134   67   69 am   BACKBONE|DICT|INTERRES
   135   69   70 1    
   136   69  190 1    
   137   70   71 1    
   138   70   72 1    
   139   70  191 1    
   140   71  192 1    
   141   71  193 1    
   142   71  194 1    
   143   72   73 2    
   144   72   74 am   BACKBONE|DICT|INTERRES
   145   74   75 1    
   146   74  195 1    
   147   75   76 1    
   148   75   77 1    
   149   75  196 1    
   150   76  197 1    
   151   76  198 1    
   152   76  199 1    
   153   77   78 2    
   154   77   79 am   BACKBONE|DICT|INTERRES
   155   79   80 1    
   156   79  200 1    
   157   80   81 1    
   158   80   82 1    
   159   80  201 1    
   160   81  202 1    
   161   81  203 1    
   162   81  204 1    
   163   82   83 2    
   164   82   84 am   BACKBONE|DICT|INTERRES
   165   84   85 1    
   166   84  205 1    
   167   85   86 1    
   168   85   87 1    
   169   85  206 1    
   170   86  207 1    
   171   86  208 1    
   172   86  209 1    
   173   87   88 2    
   174   87   89 am   BACKBONE|DICT|INTERRES
   175   89   90 1    
   176   89  210 1    
   177   90   91 1    
   178   90   92 1    
   179   90  211 1    
   180   91  212 1    
   181   91  213 1    
   182   91  214 1    
   183   92   93 2    
   184   92   94 am   BACKBONE|DICT|INTERRES
   185   94   95 1    
   186   94  215 1    
   187   95   96 1    
   188   95   97 1    
   189   95  216 1    
   190   96  217 1    
   191   96  218 1    
   192   96  219 1    
   193   97   98 2    
   194   97   99 am   BACKBONE|DICT|INTERRES
   195   99  100 1    
   196   99  220 1    
   197  100  101 1    
   198  100  102 1    
   199  100  221 1    
   200  101  222 1    
   201  101  223 1    
   202  101  224 1    
   203  102  103 2    
   204  102  104 am   BACKBONE|DICT|INTERRES
   205  104  105 1    
   206  104  225 1    
   207  105  106 1    
   208  105  107 1    
   209  105  226 1    
   210  106  227 1    
   211  106  228 1    
   212  106  229 1    
   213  107  108 2    
   214  107  109 am   BACKBONE|DICT|INTERRES
   215  109  110 1    
   216  109  230 1    
   217  110  111 1    
   218  110  112 1    
   219  110  231 1    
   220  111  232 1    
   221  111  233 1    
   222  111  234 1    
   223  112  113 2    
   224  112  114 am   BACKBONE|DICT|INTERRES
   225  114  115 1    
   226  114  235 1    
   227  115  116 1    
   228  115  117 1    
   229  115  236 1    
   230  116  237 1    
   231  116  238 1    
   232  116  239 1    
   233  117  118 2    
   234  117  119 am   BACKBONE|DICT|INTERRES
   235  119  120 1    
   236  119  240 1    
   237  120  121 1    
   238  120  124 1    
   239  120  241 1    
   240  121  122 am   BACKBONE|DICT|INTERRES
   241  121  123 2    
   242  122  242 1    
   243  122  243 1    
   244  124  125 1    
   245  124  244 1    
   246  124  245 1    
   247  125  126 1    
   248  126  246 1    
   249  126  247 1    
@<TRIPOS>SUBSTRUCTURE
     1 UNK         1 GROUP             0       ****    0 ROOT    
