@<TRIPOS>MOLECULE
3R540
247   249    1
SMALL
USER_CHARGES


@<TRIPOS>ATOM
      1 CA         -0.8602  -10.8753  -45.8584 C.3       0 UNK        -0.1800 
      2 C          -1.6526  -12.1799  -45.9237 C.2       0 UNK         0.5000 
      3 O          -2.4300  -12.4511  -45.0127 O.2       0 UNK        -0.5000 
      4 N          -1.5000  -13.0195  -46.9598 N.am      1 UNK        -0.5000 
      5 CA         -0.5870  -12.8913  -48.1085 C.3       1 UNK         0.1400 
      6 C6         -0.8698  -13.9493  -49.2057 C.3       23 UNK        -0.0398 
      7 S7         -2.5589  -13.8148  -49.8810 S.3       23 UNK        -0.2404 
      8 C8         -3.2233  -15.4890  -49.6016 C.3       23 UNK        -0.0205 
      9 C9         -2.6002  -16.5372  -50.5160 C.ar      23 UNK        -0.0193 
     10 C10        -2.7172  -16.4128  -51.9034 C.ar      23 UNK        -0.1150 
     11 C11        -2.2221  -17.4064  -52.7507 C.ar      23 UNK        -0.0193 
     12 C12        -1.5848  -18.5227  -52.2028 C.ar      23 UNK        -0.1150 
     13 C13        -1.4714  -18.6696  -50.8180 C.ar      23 UNK        -0.0193 
     14 C14        -1.9778  -17.6707  -49.9814 C.ar      23 UNK        -0.1150 
     15 C15        -0.9016  -19.9558  -50.2357 C.3       23 UNK        -0.0205 
     16 S16         0.7158  -19.7330  -49.4181 S.3       23 UNK        -0.2404 
     17 C17         0.2722  -19.7305  -47.6440 C.3       23 UNK        -0.0398 
     18 CA          0.2885  -21.1478  -47.0069 C.3       11 UNK         0.1400 
     19 N           0.4350  -21.1186  -45.5467 N.am      11 UNK        -0.5000 
     20 C           0.6252  -22.2035  -44.7770 C.2       10 UNK         0.5000 
     21 O           0.7805  -23.3396  -45.2214 O.2       10 UNK        -0.5000 
     22 CA          0.5796  -21.9996  -43.2526 C.3       10 UNK         0.1400 
     23 CB          1.9778  -21.6920  -42.6984 C.3       10 UNK        -0.1800 
     24 N          -0.3553  -20.9424  -42.8685 N.am      10 UNK        -0.5000 
     25 C          -1.6889  -21.0639  -42.9418 C.2       9 UNK         0.5000 
     26 O          -2.2608  -22.0931  -43.3026 O.2       9 UNK        -0.5000 
     27 CA         -2.5185  -19.8082  -42.6173 C.3       9 UNK         0.1400 
     28 CB         -2.7221  -19.6669  -41.1030 C.3       9 UNK        -0.1800 
     29 N          -1.9186  -18.5850  -43.1551 N.am      9 UNK        -0.5000 
     30 C          -1.7700  -18.3393  -44.4638 C.2       8 UNK         0.5000 
     31 O          -2.1455  -19.1261  -45.3341 O.2       8 UNK        -0.5000 
     32 CA         -1.0237  -17.0599  -44.8968 C.3       8 UNK         0.1400 
     33 CB         -1.6836  -16.3775  -46.1068 C.3       8 UNK        -0.1800 
     34 N          -0.7483  -16.0847  -43.8400 N.am      8 UNK        -0.5000 
     35 C          -1.6272  -15.3877  -43.1062 C.2       7 UNK         0.5000 
     36 O          -2.8510  -15.4826  -43.2101 O.2       7 UNK        -0.5000 
     37 CA         -0.9910  -14.4694  -42.0427 C.3       7 UNK         0.1400 
     38 CB         -2.0237  -13.7747  -41.1318 C.3       7 UNK        -0.1800 
     39 N           0.0163  -15.1886  -41.2507 N.am      7 UNK        -0.5000 
     40 C          -0.1838  -16.2827  -40.4994 C.2       6 UNK         0.5000 
     41 O          -1.2858  -16.7978  -40.3097 O.2       6 UNK        -0.5000 
     42 CA          1.0870  -16.9255  -39.9118 C.3       6 UNK         0.1400 
     43 CB          0.8161  -18.2402  -39.1500 C.3       6 UNK        -0.1800 
     44 N           2.1208  -17.1209  -40.9328 N.am      6 UNK        -0.5000 
     45 C           2.0432  -17.8745  -42.0412 C.2       5 UNK         0.5000 
     46 O           1.0460  -18.5268  -42.3526 O.2       5 UNK        -0.5000 
     47 CA          3.2735  -17.8849  -42.9734 C.3       5 UNK         0.1400 
     48 CB          2.8717  -18.0204  -44.4527 C.3       5 UNK        -0.1800 
     49 N           4.0780  -16.6736  -42.8156 N.am      5 UNK        -0.5000 
     50 C           5.1385  -16.5413  -42.0071 C.2       4 UNK         0.5000 
     51 O           5.6113  -17.4651  -41.3454 O.2       4 UNK        -0.5000 
     52 CA          5.7535  -15.1317  -41.8852 C.3       4 UNK         0.1400 
     53 CB          7.0240  -15.0265  -42.7425 C.3       4 UNK        -0.1800 
     54 N           4.8364  -14.0532  -42.2655 N.am      4 UNK        -0.5000 
     55 C           3.7094  -13.7211  -41.6184 C.2       3 UNK         0.5000 
     56 O           3.3081  -14.2841  -40.6000 O.2       3 UNK        -0.5000 
     57 CA          2.8487  -12.6235  -42.2708 C.3       3 UNK         0.1400 
     58 CB          3.3076  -11.2308  -41.8155 C.3       3 UNK        -0.1800 
     59 N           2.8673  -12.6896  -43.7354 N.am      3 UNK        -0.5000 
     60 C           2.3785  -13.7067  -44.4559 C.2       2 UNK         0.5000 
     61 O           1.8215  -14.6914  -43.9632 O.2       2 UNK        -0.5000 
     62 CA          2.5417  -13.6146  -45.9753 C.3       2 UNK         0.1400 
     63 CB          3.3333  -14.8076  -46.5370 C.3       2 UNK        -0.1800 
     64 N           1.2132  -13.5678  -46.5684 N.am      2 UNK        -0.5000 
     65 C           0.9041  -12.9377  -47.7082 C.2       1 UNK         0.5000 
     66 O           1.7354  -12.3799  -48.4251 O.2       1 UNK        -0.5000 
     67 C          -0.9638  -21.9530  -47.3983 C.2       11 UNK         0.5000 
     68 O          -0.8596  -22.8970  -48.1800 O.2       11 UNK        -0.5000 
     69 N          -2.1116  -21.5827  -46.8116 N.am      12 UNK        -0.5000 
     70 CA         -3.4087  -22.2205  -47.0280 C.3       12 UNK         0.1400 
     71 CB         -4.4862  -21.4576  -46.2436 C.3       12 UNK        -0.1800 
     72 C          -3.4161  -23.7125  -46.6543 C.2       12 UNK         0.5000 
     73 O          -4.0097  -24.5108  -47.3774 O.2       12 UNK        -0.5000 
     74 N          -2.7320  -24.0646  -45.5570 N.am      13 UNK        -0.5000 
     75 CA         -2.5417  -25.4433  -45.1125 C.3       13 UNK         0.1400 
     76 CB         -1.9611  -25.4483  -43.6902 C.3       13 UNK        -0.1800 
     77 C          -1.6536  -26.2623  -46.0683 C.2       13 UNK         0.5000 
     78 O          -2.0151  -27.3889  -46.4094 O.2       13 UNK        -0.5000 
     79 N          -0.5118  -25.6916  -46.4778 N.am      14 UNK        -0.5000 
     80 CA          0.4787  -26.3530  -47.3280 C.3       14 UNK         0.1400 
     81 CB          1.8085  -25.5859  -47.2640 C.3       14 UNK        -0.1800 
     82 C           0.0196  -26.5100  -48.7870 C.2       14 UNK         0.5000 
     83 O           0.1681  -27.5923  -49.3562 O.2       14 UNK        -0.5000 
     84 N          -0.5139  -25.4296  -49.3708 N.am      15 UNK        -0.5000 
     85 CA         -0.9231  -25.3742  -50.7752 C.3       15 UNK         0.1400 
     86 CB         -0.8012  -23.9258  -51.2703 C.3       15 UNK        -0.1800 
     87 C          -2.3471  -25.9086  -51.0147 C.2       15 UNK         0.5000 
     88 O          -2.7066  -26.1502  -52.1671 O.2       15 UNK        -0.5000 
     89 N          -3.1312  -26.0630  -49.9367 N.am      16 UNK        -0.5000 
     90 CA         -4.5340  -26.4987  -49.8982 C.3       16 UNK         0.1400 
     91 CB         -4.6921  -27.9249  -50.4663 C.3       16 UNK        -0.1800 
     92 C          -5.5229  -25.4932  -50.5318 C.2       16 UNK         0.5000 
     93 O          -6.6733  -25.8520  -50.7898 O.2       16 UNK        -0.5000 
     94 N          -5.0765  -24.2517  -50.7520 N.am      17 UNK        -0.5000 
     95 CA         -5.8334  -23.1402  -51.3130 C.3       17 UNK         0.1400 
     96 CB         -6.0177  -23.3272  -52.8319 C.3       17 UNK        -0.1800 
     97 C          -5.0774  -21.8391  -51.0124 C.2       17 UNK         0.5000 
     98 O          -3.8704  -21.8769  -50.7629 O.2       17 UNK        -0.5000 
     99 N          -5.7971  -20.7141  -51.0697 N.am      18 UNK        -0.5000 
    100 CA        -5.2680  -19.3661  -50.8490 C.3       18 UNK         0.1400 
    101 CB        -5.6115  -18.9017  -49.4222 C.3       18 UNK        -0.1800 
    102 C         -5.7625  -18.3997  -51.9421 C.2       18 UNK         0.5000 
    103 O         -6.0089  -17.2243  -51.6698 O.2       18 UNK        -0.5000 
    104 N         -5.9031  -18.9225  -53.1661 N.am      19 UNK        -0.5000 
    105 CA        -6.2670  -18.1794  -54.3696 C.3       19 UNK         0.1400 
    106 CB        -7.7778  -17.8784  -54.4038 C.3       19 UNK        -0.1800 
    107 C         -5.8101  -18.9743  -55.5981 C.2       19 UNK         0.5000 
    108 O         -4.9346  -18.5159  -56.3325 O.2       19 UNK        -0.5000 
    109 N         -6.3649  -20.1858  -55.7611 N.am      20 UNK        -0.5000 
    110 CA        -6.0802  -21.1029  -56.8733 C.3       20 UNK         0.1400 
    111 CB        -7.0198  -22.3144  -56.7780 C.3       20 UNK        -0.1800 
    112 C         -4.6119  -21.5668  -56.9417 C.2       20 UNK         0.5000 
    113 O         -4.1018  -21.8253  -58.0324 O.2       20 UNK        -0.5000 
    114 N         -3.9488  -21.6092  -55.7781 N.am      21 UNK        -0.5000 
    115 CA        -2.5301  -21.9235  -55.5977 C.3       21 UNK         0.1400 
    116 CB        -2.2280  -21.9336  -54.0912 C.3       21 UNK        -0.1800 
    117 C         -1.5636  -20.9732  -56.3375 C.2       21 UNK         0.5000 
    118 O         -0.4362  -21.3738  -56.6290 O.2       21 UNK        -0.5000 
    119 N         -2.0203  -19.7512  -56.6388 N.am      22 UNK        -0.5000 
    120 CA        -1.2908  -18.7482  -57.4303 C.3       22 UNK         0.1400 
    121 C         -1.5850  -18.8365  -58.9581 C.2       22 UNK         0.5000 
    122 N         -2.4153  -19.7570  -59.4373 N.am      22 UNK        -0.7600 
    123 O         -1.0332  -18.0618  -59.7350 O.2       22 UNK        -0.5000 
    124 C124       -1.5250  -17.3133  -56.8876 C.3       23 UNK        -0.0398 
    125 S125       -0.9106  -17.0986  -55.1804 S.3       23 UNK        -0.2404 
    126 C126       -2.4544  -17.3220  -54.2491 C.3       23 UNK        -0.0205 
    127 H127       -1.3686  -10.1597  -45.2119 H         1 UNK         0.0600 
    128 H128       -0.7549  -10.4087  -46.8368 H         1 UNK         0.0600 
    129 H129        0.1318  -11.0518  -45.4430 H         1 UNK         0.0600 
    130 H130       -2.0881  -13.8387  -46.9824 H         1 UNK         0.3000 
    131 H131       -0.7613  -11.9113  -48.5562 H         1 UNK         0.0600 
    132 H132       -0.6990  -14.9585  -48.8281 H         1 UNK         0.0800 
    133 H133       -0.1814  -13.8240  -50.0438 H         1 UNK         0.0800 
    134 H134       -3.1045  -15.7571  -48.5522 H         1 UNK         0.0800 
    135 H135       -4.2980  -15.4693  -49.7885 H         1 UNK         0.0800 
    136 H136       -3.2306  -15.5570  -52.3187 H         1 UNK         0.1150 
    137 H137       -1.2107  -19.2950  -52.8591 H         1 UNK         0.1150 
    138 H138       -1.9194  -17.8017  -48.9142 H         1 UNK         0.1150 
    139 H139       -1.6370  -20.3755  -49.5506 H         1 UNK         0.0800 
    140 H140       -0.7817  -20.7032  -51.0216 H         1 UNK         0.0800 
    141 H141        1.0098  -19.1007  -47.1451 H         1 UNK         0.0800 
    142 H142       -0.6851  -19.2292  -47.5038 H         1 UNK         0.0800 
    143 H143        1.1583  -21.6833  -47.3944 H         1 UNK         0.0600 
    144 H144        0.2635  -20.2387  -45.0860 H         1 UNK         0.3000 
    145 H145        0.2395  -22.9333  -42.8002 H         1 UNK         0.0600 
    146 H146        1.9488  -21.5221  -41.6220 H         1 UNK         0.0600 
    147 H147        2.6574  -22.5256  -42.8795 H         1 UNK         0.0600 
    148 H148        2.4138  -20.8111  -43.1662 H         1 UNK         0.0600 
    149 H149        0.0485  -20.0491  -42.5909 H         1 UNK         0.3000 
    150 H150       -3.4997  -19.9303  -43.0808 H         1 UNK         0.0600 
    151 H151       -3.2111  -20.5501  -40.6905 H         1 UNK         0.0600 
    152 H152       -3.3490  -18.8065  -40.8680 H         1 UNK         0.0600 
    153 H153       -1.7739  -19.5420  -40.5803 H         1 UNK         0.0600 
    154 H154       -1.5518  -17.9203  -42.4866 H         1 UNK         0.3000 
    155 H155       -0.0491  -17.4150  -45.2299 H         1 UNK         0.0600 
    156 H156       -1.0014  -15.6579  -46.5525 H         1 UNK         0.0600 
    157 H157       -2.6061  -15.8624  -45.8398 H         1 UNK         0.0600 
    158 H158       -1.9337  -17.1005  -46.8786 H         1 UNK         0.0600 
    159 H159        0.2350  -15.8991  -43.6696 H         1 UNK         0.3000 
    160 H160       -0.4621  -13.6887  -42.5911 H         1 UNK         0.0600 
    161 H161       -1.5346  -13.1235  -40.4075 H         1 UNK         0.0600 
    162 H162       -2.7022  -13.1553  -41.7198 H         1 UNK         0.0600 
    163 H163       -2.6321  -14.4926  -40.5814 H         1 UNK         0.0600 
    164 H164        0.9712  -14.8803  -41.3698 H         1 UNK         0.3000 
    165 H165        1.4890  -16.2075  -39.1954 H         1 UNK         0.0600 
    166 H166        0.4149  -19.0159  -39.8019 H         1 UNK         0.0600 
    167 H167        1.7297  -18.6261  -38.6982 H         1 UNK         0.0600 
    168 H168        0.0969  -18.0849  -38.3451 H         1 UNK         0.0600 
    169 H169        2.9625  -16.5775  -40.7955 H         1 UNK         0.3000 
    170 H170        3.8676  -18.7611  -42.7071 H         1 UNK         0.0600 
    171 H171        2.3424  -18.9541  -44.6407 H         1 UNK         0.0600 
    172 H172        2.2186  -17.2067  -44.7611 H         1 UNK         0.0600 
    173 H173        3.7474  -18.0112  -45.1017 H         1 UNK         0.0600 
    174 H174        3.7241  -15.8505  -43.2832 H         1 UNK         0.3000 
    175 H175        6.0303  -14.9850  -40.8392 H         1 UNK         0.0600 
    176 H176        6.8041  -15.1468  -43.8041 H         1 UNK         0.0600 
    177 H177        7.5132  -14.0618  -42.6070 H         1 UNK         0.0600 
    178 H178        7.7464  -15.7963  -42.4677 H         1 UNK         0.0600 
    179 H179        5.0761  -13.5350  -43.0979 H         1 UNK         0.3000 
    180 H180        1.8189  -12.7658  -41.9381 H         1 UNK         0.0600 
    181 H181        4.3263  -11.0143  -42.1396 H         1 UNK         0.0600 
    182 H182        3.2845  -11.1485  -40.7280 H         1 UNK         0.0600 
    183 H183        2.6561  -10.4521  -42.2125 H         1 UNK         0.0600 
    184 H184        3.2966  -11.9100  -44.2132 H         1 UNK         0.3000 
    185 H185        3.0841  -12.6957  -46.2091 H         1 UNK         0.0600 
    186 H186        4.2786  -14.9404  -46.0093 H         1 UNK         0.0600 
    187 H187        2.7722  -15.7378  -46.4553 H         1 UNK         0.0600 
    188 H188        3.5676  -14.6580  -47.5910 H         1 UNK         0.0600 
    189 H189        0.4769  -13.9814  -46.0133 H         1 UNK         0.3000 
    190 H190       -2.1077  -20.7795  -46.1867 H         1 UNK         0.3000 
    191 H191       -3.6382  -22.1425  -48.0919 H         1 UNK         0.0600 
    192 H192       -4.5082  -20.4044  -46.5232 H         1 UNK         0.0600 
    193 H193       -5.4769  -21.8695  -46.4395 H         1 UNK         0.0600 
    194 H194       -4.3129  -21.5100  -45.1682 H         1 UNK         0.0600 
    195 H195       -2.3233  -23.3366  -44.9815 H         1 UNK         0.3000 
    196 H196       -3.5223  -25.9226  -45.0768 H         1 UNK         0.0600 
    197 H197       -1.8300  -26.4677  -43.3250 H         1 UNK         0.0600 
    198 H198       -2.6235  -24.9354  -42.9926 H         1 UNK         0.0600 
    199 H199       -0.9887  -24.9570  -43.6496 H         1 UNK         0.0600 
    200 H200       -0.2674  -24.7660  -46.1386 H         1 UNK         0.3000 
    201 H201        0.6535  -27.3538  -46.9272 H         1 UNK         0.0600 
    202 H202        2.1961  -25.5553  -46.2456 H         1 UNK         0.0600 
    203 H203        1.6968  -24.5573  -47.6100 H         1 UNK         0.0600 
    204 H204        2.5670  -26.0625  -47.8862 H         1 UNK         0.0600 
    205 H205       -0.6063  -24.5646  -48.8388 H         1 UNK         0.3000 
    206 H206       -0.2398  -25.9859  -51.3681 H         1 UNK         0.0600 
    207 H207        0.1928  -23.5211  -51.0795 H         1 UNK         0.0600 
    208 H208       -0.9709  -23.8755  -52.3450 H         1 UNK         0.0600 
    209 H209       -1.5276  -23.2704  -50.7888 H         1 UNK         0.0600 
    210 H210       -2.7441  -25.8012  -49.0397 H         1 UNK         0.3000 
    211 H211       -4.7998  -26.5487  -48.8420 H         1 UNK         0.0600 
    212 H212       -4.5409  -27.9531  -51.5455 H         1 UNK         0.0600 
    213 H213       -5.6913  -28.3148  -50.2693 H         1 UNK         0.0600 
    214 H214       -3.9815  -28.6128  -50.0081 H         1 UNK         0.0600 
    215 H215       -4.1320  -24.0099  -50.4792 H         1 UNK         0.3000 
    216 H216       -6.8088  -23.0948  -50.8244 H         1 UNK         0.0600 
    217 H217       -6.5994  -24.2217  -53.0543 H         1 UNK         0.0600 
    218 H218       -5.0599  -23.4211  -53.3440 H         1 UNK         0.0600 
    219 H219       -6.5494  -22.4840  -53.2733 H         1 UNK         0.0600 
    220 H220       -6.7843  -20.7677  -51.2818 H         1 UNK         0.3000 
    221 H221       -4.1819  -19.3787  -50.9427 H         1 UNK         0.0600 
    222 H222       -5.1842  -17.9206  -49.2131 H         1 UNK         0.0600 
    223 H223       -6.6892  -18.8345  -49.2705 H         1 UNK         0.0600 
    224 H224       -5.2092  -19.5916  -48.6814 H         1 UNK         0.0600 
    225 H225       -5.6559  -19.8910  -53.2982 H         1 UNK         0.3000 
    226 H226       -5.7246  -17.2313  -54.3751 H         1 UNK         0.0600 
    227 H227       -8.0591  -17.3971  -55.3413 H         1 UNK         0.0600 
    228 H228       -8.3775  -18.7834  -54.3034 H         1 UNK         0.0600 
    229 H229       -8.0626  -17.2025  -53.5975 H         1 UNK         0.0600 
    230 H230       -7.0959  -20.4726  -55.1267 H         1 UNK         0.3000 
    231 H231       -6.2971  -20.5731  -57.8032 H         1 UNK         0.0600 
    232 H232       -6.8563  -23.0016  -57.6093 H         1 UNK         0.0600 
    233 H233       -8.0653  -22.0076  -56.8142 H         1 UNK         0.0600 
    234 H234       -6.8646  -22.8743  -55.8551 H         1 UNK         0.0600 
    235 H235       -4.4626  -21.3839  -54.9426 H         1 UNK         0.3000 
    236 H236       -2.3571  -22.9271  -55.9914 H         1 UNK         0.0600 
    237 H237       -2.7389  -22.7575  -53.5934 H         1 UNK         0.0600 
    238 H238       -1.1604  -22.0515  -53.9018 H         1 UNK         0.0600 
    239 H239       -2.5472  -21.0092  -53.6105 H         1 UNK         0.0600 
    240 H240       -2.9757  -19.5119  -56.4058 H         1 UNK         0.3000 
    241 H241       -0.2213  -18.9468  -57.3395 H         1 UNK         0.0600 
    242 H242       -2.5819  -19.7971  -60.4303 H         1 UNK         0.3800 
    243 H243       -2.8767  -20.4245  -58.8296 H         1 UNK         0.3800 
    244 H244       -2.5825  -17.0488  -56.9406 H         1 UNK         0.0800 
    245 H245       -1.0013  -16.5817  -57.5052 H         1 UNK         0.0800 
    246 H246       -3.1413  -16.5098  -54.4923 H         1 UNK         0.0800 
    247 H247       -2.9413  -18.2430  -54.5654 H         1 UNK         0.0800 
@<TRIPOS>BOND
     1    1    2 1    
     2    1  127 1    
     3    1  128 1    
     4    1  129 1    
     5    2    3 2    
     6    2    4 am   BACKBONE|DICT|INTERRES
     7    4    5 1    
     8    4  130 1    
     9    5    6 1    
    10    5   65 1    
    11    5  131 1    
    12    6    7 1    
    13    6  132 1    
    14    6  133 1    
    15    7    8 1    
    16    8    9 1    
    17    8  134 1    
    18    8  135 1    
    19    9   10 ar   
    20    9   14 ar   
    21   10   11 ar   
    22   10  136 1    
    23   11   12 ar   
    24   11  126 1    
    25   12   13 ar   
    26   12  137 1    
    27   13   14 ar   
    28   13   15 1    
    29   14  138 1    
    30   15   16 1    
    31   15  139 1    
    32   15  140 1    
    33   16   17 1    
    34   17   18 1    
    35   17  141 1    
    36   17  142 1    
    37   18   19 1    
    38   18   67 1    
    39   18  143 1    
    40   19   20 am   BACKBONE|DICT|INTERRES
    41   19  144 1    
    42   20   21 2    
    43   20   22 1    
    44   22   23 1    
    45   22   24 1    
    46   22  145 1    
    47   23  146 1    
    48   23  147 1    
    49   23  148 1    
    50   24   25 am   BACKBONE|DICT|INTERRES
    51   24  149 1    
    52   25   26 2    
    53   25   27 1    
    54   27   28 1    
    55   27   29 1    
    56   27  150 1    
    57   28  151 1    
    58   28  152 1    
    59   28  153 1    
    60   29   30 am   BACKBONE|DICT|INTERRES
    61   29  154 1    
    62   30   31 2    
    63   30   32 1    
    64   32   33 1    
    65   32   34 1    
    66   32  155 1    
    67   33  156 1    
    68   33  157 1    
    69   33  158 1    
    70   34   35 am   BACKBONE|DICT|INTERRES
    71   34  159 1    
    72   35   36 2    
    73   35   37 1    
    74   37   38 1    
    75   37   39 1    
    76   37  160 1    
    77   38  161 1    
    78   38  162 1    
    79   38  163 1    
    80   39   40 am   BACKBONE|DICT|INTERRES
    81   39  164 1    
    82   40   41 2    
    83   40   42 1    
    84   42   43 1    
    85   42   44 1    
    86   42  165 1    
    87   43  166 1    
    88   43  167 1    
    89   43  168 1    
    90   44   45 am   BACKBONE|DICT|INTERRES
    91   44  169 1    
    92   45   46 2    
    93   45   47 1    
    94   47   48 1    
    95   47   49 1    
    96   47  170 1    
    97   48  171 1    
    98   48  172 1    
    99   48  173 1    
   100   49   50 am   BACKBONE|DICT|INTERRES
   101   49  174 1    
   102   50   51 2    
   103   50   52 1    
   104   52   53 1    
   105   52   54 1    
   106   52  175 1    
   107   53  176 1    
   108   53  177 1    
   109   53  178 1    
   110   54   55 am   BACKBONE|DICT|INTERRES
   111   54  179 1    
   112   55   56 2    
   113   55   57 1    
   114   57   58 1    
   115   57   59 1    
   116   57  180 1    
   117   58  181 1    
   118   58  182 1    
   119   58  183 1    
   120   59   60 am   BACKBONE|DICT|INTERRES
   121   59  184 1    
   122   60   61 2    
   123   60   62 1    
   124   62   63 1    
   125   62   64 1    
   126   62  185 1    
   127   63  186 1    
   128   63  187 1    
   129   63  188 1    
   130   64   65 am   BACKBONE|DICT|INTERRES
   131   64  189 1    
   132   65   66 2    
   133   67   68 2    
   134   67   69 am   BACKBONE|DICT|INTERRES
   135   69   70 1    
   136   69  190 1    
   137   70   71 1    
   138   70   72 1    
   139   70  191 1    
   140   71  192 1    
   141   71  193 1    
   142   71  194 1    
   143   72   73 2    
   144   72   74 am   BACKBONE|DICT|INTERRES
   145   74   75 1    
   146   74  195 1    
   147   75   76 1    
   148   75   77 1    
   149   75  196 1    
   150   76  197 1    
   151   76  198 1    
   152   76  199 1    
   153   77   78 2    
   154   77   79 am   BACKBONE|DICT|INTERRES
   155   79   80 1    
   156   79  200 1    
   157   80   81 1    
   158   80   82 1    
   159   80  201 1    
   160   81  202 1    
   161   81  203 1    
   162   81  204 1    
   163   82   83 2    
   164   82   84 am   BACKBONE|DICT|INTERRES
   165   84   85 1    
   166   84  205 1    
   167   85   86 1    
   168   85   87 1    
   169   85  206 1    
   170   86  207 1    
   171   86  208 1    
   172   86  209 1    
   173   87   88 2    
   174   87   89 am   BACKBONE|DICT|INTERRES
   175   89   90 1    
   176   89  210 1    
   177   90   91 1    
   178   90   92 1    
   179   90  211 1    
   180   91  212 1    
   181   91  213 1    
   182   91  214 1    
   183   92   93 2    
   184   92   94 am   BACKBONE|DICT|INTERRES
   185   94   95 1    
   186   94  215 1    
   187   95   96 1    
   188   95   97 1    
   189   95  216 1    
   190   96  217 1    
   191   96  218 1    
   192   96  219 1    
   193   97   98 2    
   194   97   99 am   BACKBONE|DICT|INTERRES
   195   99  100 1    
   196   99  220 1    
   197  100  101 1    
   198  100  102 1    
   199  100  221 1    
   200  101  222 1    
   201  101  223 1    
   202  101  224 1    
   203  102  103 2    
   204  102  104 am   BACKBONE|DICT|INTERRES
   205  104  105 1    
   206  104  225 1    
   207  105  106 1    
   208  105  107 1    
   209  105  226 1    
   210  106  227 1    
   211  106  228 1    
   212  106  229 1    
   213  107  108 2    
   214  107  109 am   BACKBONE|DICT|INTERRES
   215  109  110 1    
   216  109  230 1    
   217  110  111 1    
   218  110  112 1    
   219  110  231 1    
   220  111  232 1    
   221  111  233 1    
   222  111  234 1    
   223  112  113 2    
   224  112  114 am   BACKBONE|DICT|INTERRES
   225  114  115 1    
   226  114  235 1    
   227  115  116 1    
   228  115  117 1    
   229  115  236 1    
   230  116  237 1    
   231  116  238 1    
   232  116  239 1    
   233  117  118 2    
   234  117  119 am   BACKBONE|DICT|INTERRES
   235  119  120 1    
   236  119  240 1    
   237  120  121 1    
   238  120  124 1    
   239  120  241 1    
   240  121  122 am   BACKBONE|DICT|INTERRES
   241  121  123 2    
   242  122  242 1    
   243  122  243 1    
   244  124  125 1    
   245  124  244 1    
   246  124  245 1    
   247  125  126 1    
   248  126  246 1    
   249  126  247 1    
@<TRIPOS>SUBSTRUCTURE
     1 UNK         1 GROUP             0       ****    0 ROOT    
