@<TRIPOS>MOLECULE
3R540
247   249    1
SMALL
USER_CHARGES


@<TRIPOS>ATOM
      1 CA         -8.2410  -10.2593  -46.3217 C.3       0 UNK        -0.1800 
      2 C          -7.4959  -11.0106  -47.4164 C.2       0 UNK         0.5000 
      3 O          -7.6160  -10.6599  -48.5909 O.2       0 UNK        -0.5000 
      4 N          -6.7372  -12.0454  -47.0372 N.am      1 UNK        -0.5000 
      5 CA         -5.8887  -12.8401  -47.9304 C.3       1 UNK         0.1400 
      6 C6         -5.6637  -14.2684  -47.3681 C.3       23 UNK        -0.0398 
      7 S7         -4.7306  -14.3299  -45.7973 S.3       23 UNK        -0.2404 
      8 C8         -4.5834  -16.1327  -45.5350 C.3       23 UNK        -0.0205 
      9 C9         -3.8255  -16.9031  -46.6188 C.ar      23 UNK        -0.0193 
     10 C10        -2.8494  -16.3025  -47.4239 C.ar      23 UNK        -0.1150 
     11 C11        -2.1873  -17.0368  -48.4094 C.ar      23 UNK        -0.0193 
     12 C12        -2.4917  -18.3875  -48.5782 C.ar      23 UNK        -0.1150 
     13 C13        -3.4407  -19.0179  -47.7669 C.ar      23 UNK        -0.0193 
     14 C14        -4.1018  -18.2630  -46.7938 C.ar      23 UNK        -0.1150 
     15 C15        -3.8119  -20.4927  -47.9191 C.3       23 UNK        -0.0205 
     16 S16        -2.7914  -21.4684  -49.0866 S.3       23 UNK        -0.2404 
     17 C17        -1.2258  -21.6139  -48.1560 C.3       23 UNK        -0.0398 
     18 CA         -0.9220  -23.0056  -47.5421 C.3       11 UNK         0.1400 
     19 N           0.2368  -22.9360  -46.6504 N.am      11 UNK        -0.5000 
     20 C           0.7925  -23.9494  -45.9733 C.2       10 UNK         0.5000 
     21 O           0.4099  -25.1156  -46.0444 O.2       10 UNK        -0.5000 
     22 CA          1.9340  -23.5842  -45.0071 C.3       10 UNK         0.1400 
     23 CB          3.2502  -23.3572  -45.7655 C.3       10 UNK        -0.1800 
     24 N           1.6197  -22.4048  -44.1992 N.am      10 UNK        -0.5000 
     25 C           0.6232  -22.3477  -43.3028 C.2       9 UNK         0.5000 
     26 O          -0.1059  -23.3013  -43.0248 O.2       9 UNK        -0.5000 
     27 CA          0.3726  -20.9818  -42.6381 C.3       9 UNK         0.1400 
     28 CB          1.3906  -20.7209  -41.5180 C.3       9 UNK        -0.1800 
     29 N           0.4070  -19.8766  -43.5960 N.am      9 UNK        -0.5000 
     30 C          -0.4520  -19.7271  -44.6144 C.2       8 UNK         0.5000 
     31 O          -1.3964  -20.4874  -44.8302 O.2       8 UNK        -0.5000 
     32 CA         -0.1792  -18.5583  -45.5777 C.3       8 UNK         0.1400 
     33 CB         -0.6659  -17.2351  -44.9723 C.3       8 UNK        -0.1800 
     34 N           1.2316  -18.4452  -45.9492 N.am      8 UNK        -0.5000 
     35 C           1.9354  -19.3910  -46.5876 C.2       7 UNK         0.5000 
     36 O           1.4623  -20.4607  -46.9630 O.2       7 UNK        -0.5000 
     37 CA          3.4374  -19.1337  -46.7869 C.3       7 UNK         0.1400 
     38 CB          3.7000  -18.3119  -48.0570 C.3       7 UNK        -0.1800 
     39 N           4.0272  -18.4701  -45.6263 N.am      7 UNK        -0.5000 
     40 C           4.2126  -19.0621  -44.4376 C.2       6 UNK         0.5000 
     41 O           3.9608  -20.2474  -44.2150 O.2       6 UNK        -0.5000 
     42 CA          4.7214  -18.1603  -43.2977 C.3       6 UNK         0.1400 
     43 CB          6.2451  -17.9851  -43.3802 C.3       6 UNK        -0.1800 
     44 N           4.0781  -16.8442  -43.3009 N.am      6 UNK        -0.5000 
     45 C           2.7801  -16.6433  -43.0328 C.2       5 UNK         0.5000 
     46 O           2.0091  -17.5443  -42.7026 O.2       5 UNK        -0.5000 
     47 CA          2.2444  -15.2051  -43.1888 C.3       5 UNK         0.1400 
     48 CB          2.3749  -14.4408  -41.8630 C.3       5 UNK        -0.1800 
     49 N           2.8828  -14.4283  -44.2577 N.am      5 UNK        -0.5000 
     50 C           2.9078  -14.7644  -45.5554 C.2       4 UNK         0.5000 
     51 O           2.4225  -15.8048  -45.9981 O.2       4 UNK        -0.5000 
     52 CA          3.5986  -13.7596  -46.4930 C.3       4 UNK         0.1400 
     53 CB          4.2949  -14.4314  -47.6964 C.3       4 UNK        -0.1800 
     54 N           2.6782  -12.6876  -46.8908 N.am      4 UNK        -0.5000 
     55 C           1.6844  -12.7210  -47.7933 C.2       3 UNK         0.5000 
     56 O           1.4314  -13.6804  -48.5233 O.2       3 UNK        -0.5000 
     57 CA          0.8707  -11.4127  -47.9210 C.3       3 UNK         0.1400 
     58 CB          1.7535  -10.2660  -48.4463 C.3       3 UNK        -0.1800 
     59 N          -0.2964  -11.5209  -48.8006 N.am      3 UNK        -0.5000 
     60 C          -1.4001  -12.2373  -48.5536 C.2       2 UNK         0.5000 
     61 O          -1.5680  -12.9054  -47.5314 O.2       2 UNK        -0.5000 
     62 CA         -2.4920  -12.1761  -49.6469 C.3       2 UNK         0.1400 
     63 CB         -2.0716  -12.9495  -50.9094 C.3       2 UNK        -0.1800 
     64 N          -3.7958  -12.6794  -49.2062 N.am      2 UNK        -0.5000 
     65 C          -4.5695  -12.1032  -48.2761 C.2       1 UNK         0.5000 
     66 O          -4.2804  -11.0398  -47.7177 O.2       1 UNK        -0.5000 
     67 C          -2.1463  -23.6159  -46.8350 C.2       11 UNK         0.5000 
     68 O          -2.7371  -24.5607  -47.3625 O.2       11 UNK        -0.5000 
     69 N          -2.4955  -23.0696  -45.6618 N.am      12 UNK        -0.5000 
     70 CA         -3.6452  -23.4845  -44.8582 C.3       12 UNK         0.1400 
     71 CB         -3.8041  -22.5246  -43.6703 C.3       12 UNK        -0.1800 
     72 C          -3.5576  -24.9433  -44.3765 C.2       12 UNK         0.5000 
     73 O          -4.5829  -25.6225  -44.3162 O.2       12 UNK        -0.5000 
     74 N          -2.3374  -25.4035  -44.0710 N.am      13 UNK        -0.5000 
     75 CA         -2.0487  -26.7962  -43.7382 C.3       13 UNK         0.1400 
     76 CB         -0.6760  -26.8784  -43.0527 C.3       13 UNK        -0.1800 
     77 C          -2.1009  -27.7165  -44.9731 C.2       13 UNK         0.5000 
     78 O          -2.6023  -28.8369  -44.8713 O.2       13 UNK        -0.5000 
     79 N          -1.5677  -27.2377  -46.1051 N.am      14 UNK        -0.5000 
     80 CA         -1.4305  -27.9923  -47.3476 C.3       14 UNK         0.1400 
     81 CB         -0.4115  -27.2975  -48.2658 C.3       14 UNK        -0.1800 
     82 C          -2.7577  -28.2227  -48.0893 C.2       14 UNK         0.5000 
     83 O          -3.0760  -29.3733  -48.3960 O.2       14 UNK        -0.5000 
     84 N          -3.4826  -27.1410  -48.4099 N.am      15 UNK        -0.5000 
     85 CA         -4.6274  -27.1945  -49.3292 C.3       15 UNK         0.1400 
     86 CB         -4.1184  -27.3194  -50.7806 C.3       15 UNK        -0.1800 
     87 C          -5.6042  -26.0104  -49.2272 C.2       15 UNK         0.5000 
     88 O          -6.7280  -26.1403  -49.7147 O.2       15 UNK        -0.5000 
     89 N          -5.1795  -24.8820  -48.6392 N.am      16 UNK        -0.5000 
     90 CA         -5.9112  -23.6113  -48.5588 C.3       16 UNK         0.1400 
     91 CB         -7.1594  -23.7407  -47.6615 C.3       16 UNK        -0.1800 
     92 C          -6.2091  -23.0023  -49.9508 C.2       16 UNK         0.5000 
     93 O          -7.3203  -22.5366  -50.2070 O.2       16 UNK        -0.5000 
     94 N          -5.1958  -23.0257  -50.8289 N.am      17 UNK        -0.5000 
     95 CA         -5.2453  -22.5531  -52.2178 C.3       17 UNK         0.1400 
     96 CB         -4.0576  -23.1635  -52.9785 C.3       17 UNK        -0.1800 
     97 C          -5.2604  -21.0164  -52.3858 C.2       17 UNK         0.5000 
     98 O          -5.4807  -20.5407  -53.5005 O.2       17 UNK        -0.5000 
     99 N          -5.0240  -20.2738  -51.2961 N.am      18 UNK        -0.5000 
    100 CA        -4.9596  -18.8124  -51.2076 C.3       18 UNK         0.1400 
    101 CB        -6.3073  -18.1627  -51.5970 C.3       18 UNK        -0.1800 
    102 C         -3.7324  -18.2447  -51.9516 C.2       18 UNK         0.5000 
    103 O         -2.6503  -18.8302  -51.8711 O.2       18 UNK        -0.5000 
    104 N         -3.9021  -17.1117  -52.6488 N.am      19 UNK        -0.5000 
    105 CA        -2.8502  -16.3518  -53.3369 C.3       19 UNK         0.1400 
    106 CB        -3.4795  -15.1178  -53.9993 C.3       19 UNK        -0.1800 
    107 C         -2.0255  -17.1544  -54.3630 C.2       19 UNK         0.5000 
    108 O         -0.8729  -16.8023  -54.6152 O.2       19 UNK        -0.5000 
    109 N         -2.6044  -18.2387  -54.8969 N.am      20 UNK        -0.5000 
    110 CA        -1.9405  -19.2017  -55.7750 C.3       20 UNK         0.1400 
    111 CB        -2.9807  -20.2128  -56.2806 C.3       20 UNK        -0.1800 
    112 C         -0.7568  -19.9355  -55.1109 C.2       20 UNK         0.5000 
    113 O          0.1706  -20.3310  -55.8186 O.2       20 UNK        -0.5000 
    114 N         -0.7971  -20.1003  -53.7803 N.am      21 UNK        -0.5000 
    115 CA         0.2907  -20.6892  -53.0024 C.3       21 UNK         0.1400 
    116 CB        -0.2702  -21.3091  -51.7158 C.3       21 UNK        -0.1800 
    117 C          1.3758  -19.6531  -52.6682 C.2       21 UNK         0.5000 
    118 O          2.5614  -19.9540  -52.8140 O.2       21 UNK        -0.5000 
    119 N          0.9561  -18.4652  -52.2114 N.am      22 UNK        -0.5000 
    120 CA         1.8668  -17.3917  -51.7750 C.3       22 UNK         0.1400 
    121 C          2.5564  -16.6292  -52.9408 C.2       22 UNK         0.5000 
    122 N          1.9482  -16.5235  -54.1159 N.am      22 UNK        -0.7600 
    123 O          3.6666  -16.1308  -52.7779 O.2       22 UNK        -0.5000 
    124 C124        1.1975  -16.3926  -50.7985 C.3       23 UNK        -0.0398 
    125 S125        0.4264  -17.2099  -49.3596 S.3       23 UNK        -0.2404 
    126 C126       -1.1827  -16.3646  -49.3296 C.3       23 UNK        -0.0205 
    127 H127       -8.0523  -10.6862  -45.3363 H         1 UNK         0.0600 
    128 H128       -9.3147  -10.2930  -46.5067 H         1 UNK         0.0600 
    129 H129       -7.9291   -9.2150  -46.3049 H         1 UNK         0.0600 
    130 H130       -6.6465  -12.2627  -46.0549 H         1 UNK         0.3000 
    131 H131       -6.4264  -12.9575  -48.8739 H         1 UNK         0.0600 
    132 H132       -5.1573  -14.8856  -48.1103 H         1 UNK         0.0800 
    133 H133       -6.6291  -14.7499  -47.2058 H         1 UNK         0.0800 
    134 H134       -4.0811  -16.3002  -44.5818 H         1 UNK         0.0800 
    135 H135       -5.5896  -16.5411  -45.4280 H         1 UNK         0.0800 
    136 H136       -2.6060  -15.2588  -47.2928 H         1 UNK         0.1150 
    137 H137       -1.9752  -18.9344  -49.3522 H         1 UNK         0.1150 
    138 H138       -4.8430  -18.7396  -46.1674 H         1 UNK         0.1150 
    139 H139       -3.7817  -20.9670  -46.9379 H         1 UNK         0.0800 
    140 H140       -4.8500  -20.5398  -48.2486 H         1 UNK         0.0800 
    141 H141       -1.2300  -20.8574  -47.3747 H         1 UNK         0.0800 
    142 H142       -0.4102  -21.3276  -48.8194 H         1 UNK         0.0800 
    143 H143       -0.6570  -23.6790  -48.3593 H         1 UNK         0.0600 
    144 H144        0.6612  -22.0140  -46.5624 H         1 UNK         0.3000 
    145 H145        2.0757  -24.4268  -44.3271 H         1 UNK         0.0600 
    146 H146        3.5211  -24.2387  -46.3478 H         1 UNK         0.0600 
    147 H147        3.1810  -22.5165  -46.4557 H         1 UNK         0.0600 
    148 H148        4.0713  -23.1560  -45.0771 H         1 UNK         0.0600 
    149 H149        2.1853  -21.5789  -44.3551 H         1 UNK         0.3000 
    150 H150       -0.6246  -21.0070  -42.1939 H         1 UNK         0.0600 
    151 H151        1.3775  -21.5259  -40.7822 H         1 UNK         0.0600 
    152 H152        1.1657  -19.7936  -40.9907 H         1 UNK         0.0600 
    153 H153        2.4070  -20.6449  -41.9059 H         1 UNK         0.0600 
    154 H154        1.1268  -19.1737  -43.4586 H         1 UNK         0.3000 
    155 H155       -0.7399  -18.7389  -46.4935 H         1 UNK         0.0600 
    156 H156       -0.1792  -17.0202  -44.0240 H         1 UNK         0.0600 
    157 H157       -0.4831  -16.3981  -45.6469 H         1 UNK         0.0600 
    158 H158       -1.7366  -17.2739  -44.7757 H         1 UNK         0.0600 
    159 H159        1.6867  -17.5573  -45.7567 H         1 UNK         0.3000 
    160 H160        3.9278  -20.1018  -46.9094 H         1 UNK         0.0600 
    161 H161        3.2133  -17.3382  -48.0157 H         1 UNK         0.0600 
    162 H162        3.3153  -18.8290  -48.9368 H         1 UNK         0.0600 
    163 H163        4.7664  -18.1500  -48.2129 H         1 UNK         0.0600 
    164 H164        4.1874  -17.4769  -45.7073 H         1 UNK         0.3000 
    165 H165        4.4853  -18.6538  -42.3524 H         1 UNK         0.0600 
    166 H166        6.6219  -17.4104  -42.5339 H         1 UNK         0.0600 
    167 H167        6.7496  -18.9521  -43.3654 H         1 UNK         0.0600 
    168 H168        6.5449  -17.4723  -44.2949 H         1 UNK         0.0600 
    169 H169        4.6484  -16.0518  -43.5563 H         1 UNK         0.3000 
    170 H170        1.1835  -15.2733  -43.4319 H         1 UNK         0.0600 
    171 H171        1.8860  -14.9810  -41.0510 H         1 UNK         0.0600 
    172 H172        3.4188  -14.2986  -41.5809 H         1 UNK         0.0600 
    173 H173        1.9059  -13.4586  -41.9251 H         1 UNK         0.0600 
    174 H174        3.3030  -13.5542  -43.9765 H         1 UNK         0.3000 
    175 H175        4.3876  -13.2745  -45.9160 H         1 UNK         0.0600 
    176 H176        3.6002  -14.9921  -48.3210 H         1 UNK         0.0600 
    177 H177        4.7902  -13.6934  -48.3272 H         1 UNK         0.0600 
    178 H178        5.0565  -15.1343  -47.3573 H         1 UNK         0.0600 
    179 H179        2.7850  -11.8339  -46.3612 H         1 UNK         0.3000 
    180 H180        0.5125  -11.1479  -46.9240 H         1 UNK         0.0600 
    181 H181        2.1538  -10.4905  -49.4359 H         1 UNK         0.0600 
    182 H182        2.6005  -10.0759  -47.7865 H         1 UNK         0.0600 
    183 H183        1.1908   -9.3347  -48.5160 H         1 UNK         0.0600 
    184 H184       -0.2278  -11.0305  -49.6798 H         1 UNK         0.3000 
    185 H185       -2.6183  -11.1261  -49.9193 H         1 UNK         0.0600 
    186 H186       -2.0353  -14.0227  -50.7332 H         1 UNK         0.0600 
    187 H187       -2.7710  -12.7722  -51.7265 H         1 UNK         0.0600 
    188 H188       -1.0858  -12.6419  -51.2600 H         1 UNK         0.0600 
    189 H189       -4.0880  -13.5558  -49.6101 H         1 UNK         0.3000 
    190 H190       -1.9676  -22.2725  -45.3145 H         1 UNK         0.3000 
    191 H191       -4.5344  -23.3996  -45.4862 H         1 UNK         0.0600 
    192 H192       -2.9208  -22.5300  -43.0302 H         1 UNK         0.0600 
    193 H193       -4.6609  -22.8004  -43.0544 H         1 UNK         0.0600 
    194 H194       -3.9631  -21.5010  -44.0104 H         1 UNK         0.0600 
    195 H195       -1.5499  -24.7689  -44.1204 H         1 UNK         0.3000 
    196 H196       -2.8009  -27.1456  -43.0277 H         1 UNK         0.0600 
    197 H197       -0.4422  -27.9051  -42.7687 H         1 UNK         0.0600 
    198 H198       -0.6529  -26.2753  -42.1448 H         1 UNK         0.0600 
    199 H199        0.1240  -26.5273  -43.7053 H         1 UNK         0.0600 
    200 H200       -1.1296  -26.3217  -46.0875 H         1 UNK         0.3000 
    201 H201       -1.0239  -28.9742  -47.0958 H         1 UNK         0.0600 
    202 H202        0.5737  -27.2598  -47.8009 H         1 UNK         0.0600 
    203 H203       -0.7088  -26.2750  -48.5004 H         1 UNK         0.0600 
    204 H204       -0.3036  -27.8337  -49.2096 H         1 UNK         0.0600 
    205 H205       -3.1771  -26.2309  -48.0760 H         1 UNK         0.3000 
    206 H206       -5.2171  -28.0829  -49.0931 H         1 UNK         0.0600 
    207 H207       -4.9464  -27.3387  -51.4906 H         1 UNK         0.0600 
    208 H208       -3.4752  -26.4808  -51.0501 H         1 UNK         0.0600 
    209 H209       -3.5511  -28.2378  -50.9303 H         1 UNK         0.0600 
    210 H210       -4.2441  -24.8543  -48.2404 H         1 UNK         0.3000 
    211 H211       -5.2373  -22.9185  -48.0582 H         1 UNK         0.0600 
    212 H212       -7.9207  -24.3794  -48.1098 H         1 UNK         0.0600 
    213 H213       -7.6149  -22.7655  -47.4862 H         1 UNK         0.0600 
    214 H214       -6.9020  -24.1580  -46.6878 H         1 UNK         0.0600 
    215 H215       -4.3146  -23.4138  -50.5249 H         1 UNK         0.3000 
    216 H216       -6.1654  -22.9306  -52.6685 H         1 UNK         0.0600 
    217 H217       -3.1062  -22.8245  -52.5697 H         1 UNK         0.0600 
    218 H218       -4.0792  -22.8847  -54.0327 H         1 UNK         0.0600 
    219 H219       -4.0755  -24.2526  -52.9322 H         1 UNK         0.0600 
    220 H220       -4.7555  -20.7697  -50.4589 H         1 UNK         0.3000 
    221 H221       -4.7990  -18.5846  -50.1555 H         1 UNK         0.0600 
    222 H222       -6.5168  -18.2506  -52.6635 H         1 UNK         0.0600 
    223 H223       -7.1326  -18.6304  -51.0598 H         1 UNK         0.0600 
    224 H224       -6.3244  -17.1030  -51.3401 H         1 UNK         0.0600 
    225 H225       -4.8285  -16.7118  -52.6810 H         1 UNK         0.3000 
    226 H226       -2.1503  -16.0038  -52.5762 H         1 UNK         0.0600 
    227 H227       -3.9800  -14.4862  -53.2652 H         1 UNK         0.0600 
    228 H228       -2.7199  -14.5054  -54.4874 H         1 UNK         0.0600 
    229 H229       -4.2120  -15.3988  -54.7570 H         1 UNK         0.0600 
    230 H230       -3.5461  -18.4646  -54.6102 H         1 UNK         0.3000 
    231 H231       -1.5476  -18.6533  -56.6336 H         1 UNK         0.0600 
    232 H232       -2.5278  -20.9311  -56.9653 H         1 UNK         0.0600 
    233 H233       -3.7872  -19.7152  -56.8193 H         1 UNK         0.0600 
    234 H234       -3.4236  -20.7767  -55.4588 H         1 UNK         0.0600 
    235 H235       -1.5773  -19.7193  -53.2527 H         1 UNK         0.3000 
    236 H236        0.7547  -21.4912  -53.5806 H         1 UNK         0.0600 
    237 H237       -0.9954  -22.0910  -51.9345 H         1 UNK         0.0600 
    238 H238        0.5248  -21.7612  -51.1216 H         1 UNK         0.0600 
    239 H239       -0.7597  -20.5597  -51.0941 H         1 UNK         0.0600 
    240 H240       -0.0338  -18.3000  -52.1028 H         1 UNK         0.3000 
    241 H241        2.6735  -17.8699  -51.2154 H         1 UNK         0.0600 
    242 H242        0.9950  -16.8503  -54.2496 H         1 UNK         0.3800 
    243 H243        2.4093  -16.0336  -54.8653 H         1 UNK         0.3800 
    244 H244        1.9357  -15.6862  -50.4144 H         1 UNK         0.0800 
    245 H245        0.4546  -15.7932  -51.3270 H         1 UNK         0.0800 
    246 H246       -1.6057  -16.3544  -50.3328 H         1 UNK         0.0800 
    247 H247       -1.0178  -15.3279  -49.0330 H         1 UNK         0.0800 
@<TRIPOS>BOND
     1    1    2 1    
     2    1  127 1    
     3    1  128 1    
     4    1  129 1    
     5    2    3 2    
     6    2    4 am   BACKBONE|DICT|INTERRES
     7    4    5 1    
     8    4  130 1    
     9    5    6 1    
    10    5   65 1    
    11    5  131 1    
    12    6    7 1    
    13    6  132 1    
    14    6  133 1    
    15    7    8 1    
    16    8    9 1    
    17    8  134 1    
    18    8  135 1    
    19    9   10 ar   
    20    9   14 ar   
    21   10   11 ar   
    22   10  136 1    
    23   11   12 ar   
    24   11  126 1    
    25   12   13 ar   
    26   12  137 1    
    27   13   14 ar   
    28   13   15 1    
    29   14  138 1    
    30   15   16 1    
    31   15  139 1    
    32   15  140 1    
    33   16   17 1    
    34   17   18 1    
    35   17  141 1    
    36   17  142 1    
    37   18   19 1    
    38   18   67 1    
    39   18  143 1    
    40   19   20 am   BACKBONE|DICT|INTERRES
    41   19  144 1    
    42   20   21 2    
    43   20   22 1    
    44   22   23 1    
    45   22   24 1    
    46   22  145 1    
    47   23  146 1    
    48   23  147 1    
    49   23  148 1    
    50   24   25 am   BACKBONE|DICT|INTERRES
    51   24  149 1    
    52   25   26 2    
    53   25   27 1    
    54   27   28 1    
    55   27   29 1    
    56   27  150 1    
    57   28  151 1    
    58   28  152 1    
    59   28  153 1    
    60   29   30 am   BACKBONE|DICT|INTERRES
    61   29  154 1    
    62   30   31 2    
    63   30   32 1    
    64   32   33 1    
    65   32   34 1    
    66   32  155 1    
    67   33  156 1    
    68   33  157 1    
    69   33  158 1    
    70   34   35 am   BACKBONE|DICT|INTERRES
    71   34  159 1    
    72   35   36 2    
    73   35   37 1    
    74   37   38 1    
    75   37   39 1    
    76   37  160 1    
    77   38  161 1    
    78   38  162 1    
    79   38  163 1    
    80   39   40 am   BACKBONE|DICT|INTERRES
    81   39  164 1    
    82   40   41 2    
    83   40   42 1    
    84   42   43 1    
    85   42   44 1    
    86   42  165 1    
    87   43  166 1    
    88   43  167 1    
    89   43  168 1    
    90   44   45 am   BACKBONE|DICT|INTERRES
    91   44  169 1    
    92   45   46 2    
    93   45   47 1    
    94   47   48 1    
    95   47   49 1    
    96   47  170 1    
    97   48  171 1    
    98   48  172 1    
    99   48  173 1    
   100   49   50 am   BACKBONE|DICT|INTERRES
   101   49  174 1    
   102   50   51 2    
   103   50   52 1    
   104   52   53 1    
   105   52   54 1    
   106   52  175 1    
   107   53  176 1    
   108   53  177 1    
   109   53  178 1    
   110   54   55 am   BACKBONE|DICT|INTERRES
   111   54  179 1    
   112   55   56 2    
   113   55   57 1    
   114   57   58 1    
   115   57   59 1    
   116   57  180 1    
   117   58  181 1    
   118   58  182 1    
   119   58  183 1    
   120   59   60 am   BACKBONE|DICT|INTERRES
   121   59  184 1    
   122   60   61 2    
   123   60   62 1    
   124   62   63 1    
   125   62   64 1    
   126   62  185 1    
   127   63  186 1    
   128   63  187 1    
   129   63  188 1    
   130   64   65 am   BACKBONE|DICT|INTERRES
   131   64  189 1    
   132   65   66 2    
   133   67   68 2    
   134   67   69 am   BACKBONE|DICT|INTERRES
   135   69   70 1    
   136   69  190 1    
   137   70   71 1    
   138   70   72 1    
   139   70  191 1    
   140   71  192 1    
   141   71  193 1    
   142   71  194 1    
   143   72   73 2    
   144   72   74 am   BACKBONE|DICT|INTERRES
   145   74   75 1    
   146   74  195 1    
   147   75   76 1    
   148   75   77 1    
   149   75  196 1    
   150   76  197 1    
   151   76  198 1    
   152   76  199 1    
   153   77   78 2    
   154   77   79 am   BACKBONE|DICT|INTERRES
   155   79   80 1    
   156   79  200 1    
   157   80   81 1    
   158   80   82 1    
   159   80  201 1    
   160   81  202 1    
   161   81  203 1    
   162   81  204 1    
   163   82   83 2    
   164   82   84 am   BACKBONE|DICT|INTERRES
   165   84   85 1    
   166   84  205 1    
   167   85   86 1    
   168   85   87 1    
   169   85  206 1    
   170   86  207 1    
   171   86  208 1    
   172   86  209 1    
   173   87   88 2    
   174   87   89 am   BACKBONE|DICT|INTERRES
   175   89   90 1    
   176   89  210 1    
   177   90   91 1    
   178   90   92 1    
   179   90  211 1    
   180   91  212 1    
   181   91  213 1    
   182   91  214 1    
   183   92   93 2    
   184   92   94 am   BACKBONE|DICT|INTERRES
   185   94   95 1    
   186   94  215 1    
   187   95   96 1    
   188   95   97 1    
   189   95  216 1    
   190   96  217 1    
   191   96  218 1    
   192   96  219 1    
   193   97   98 2    
   194   97   99 am   BACKBONE|DICT|INTERRES
   195   99  100 1    
   196   99  220 1    
   197  100  101 1    
   198  100  102 1    
   199  100  221 1    
   200  101  222 1    
   201  101  223 1    
   202  101  224 1    
   203  102  103 2    
   204  102  104 am   BACKBONE|DICT|INTERRES
   205  104  105 1    
   206  104  225 1    
   207  105  106 1    
   208  105  107 1    
   209  105  226 1    
   210  106  227 1    
   211  106  228 1    
   212  106  229 1    
   213  107  108 2    
   214  107  109 am   BACKBONE|DICT|INTERRES
   215  109  110 1    
   216  109  230 1    
   217  110  111 1    
   218  110  112 1    
   219  110  231 1    
   220  111  232 1    
   221  111  233 1    
   222  111  234 1    
   223  112  113 2    
   224  112  114 am   BACKBONE|DICT|INTERRES
   225  114  115 1    
   226  114  235 1    
   227  115  116 1    
   228  115  117 1    
   229  115  236 1    
   230  116  237 1    
   231  116  238 1    
   232  116  239 1    
   233  117  118 2    
   234  117  119 am   BACKBONE|DICT|INTERRES
   235  119  120 1    
   236  119  240 1    
   237  120  121 1    
   238  120  124 1    
   239  120  241 1    
   240  121  122 am   BACKBONE|DICT|INTERRES
   241  121  123 2    
   242  122  242 1    
   243  122  243 1    
   244  124  125 1    
   245  124  244 1    
   246  124  245 1    
   247  125  126 1    
   248  126  246 1    
   249  126  247 1    
@<TRIPOS>SUBSTRUCTURE
     1 UNK         1 GROUP             0       ****    0 ROOT    
