@<TRIPOS>MOLECULE
3R540
247   249    1
SMALL
USER_CHARGES


@<TRIPOS>ATOM
      1 CA         -3.2460  -19.5623  -45.6274 C.3       0 UNK        -0.1800 
      2 C          -3.0763  -18.4786  -46.6828 C.2       0 UNK         0.5000 
      3 O          -3.7784  -18.4884  -47.6913 O.2       0 UNK        -0.5000 
      4 N          -2.1386  -17.5551  -46.4604 N.am      1 UNK        -0.5000 
      5 CA         -1.8247  -16.4447  -47.3531 C.3       1 UNK         0.1400 
      6 C6         -0.5751  -16.7593  -48.2064 C.3       23 UNK        -0.0398 
      7 S7         -0.1615  -15.4567  -49.4163 S.3       23 UNK        -0.2404 
      8 C8          1.4992  -15.9946  -49.9353 C.3       23 UNK        -0.0205 
      9 C9          1.4306  -17.2221  -50.8317 C.ar      23 UNK        -0.0193 
     10 C10         1.3459  -17.0739  -52.2187 C.ar      23 UNK        -0.1150 
     11 C11         1.2462  -18.1942  -53.0491 C.ar      23 UNK        -0.0193 
     12 C12         1.2301  -19.4700  -52.4768 C.ar      23 UNK        -0.1150 
     13 C13         1.3205  -19.6339  -51.0912 C.ar      23 UNK        -0.0193 
     14 C14         1.4405  -18.5051  -50.2763 C.ar      23 UNK        -0.1150 
     15 C15         1.2960  -21.0297  -50.4835 C.3       23 UNK        -0.0205 
     16 S16        -0.3687  -21.4875  -49.8950 S.3       23 UNK        -0.2404 
     17 C17        -0.2857  -21.0132  -48.1347 C.3       23 UNK        -0.0398 
     18 CA         -0.0523  -22.2490  -47.2247 C.3       11 UNK         0.1400 
     19 N           0.9507  -21.9915  -46.1771 N.am      11 UNK        -0.5000 
     20 C           1.5195  -22.9415  -45.4157 C.2       10 UNK         0.5000 
     21 O           1.1477  -24.1142  -45.4023 O.2       10 UNK        -0.5000 
     22 CA          2.6739  -22.5081  -44.5048 C.3       10 UNK         0.1400 
     23 CB          3.9807  -22.3991  -45.3144 C.3       10 UNK        -0.1800 
     24 N           2.3625  -21.2474  -43.8321 N.am      10 UNK        -0.5000 
     25 C           3.0251  -20.7540  -42.7779 C.2       9 UNK         0.5000 
     26 O           3.9883  -21.3082  -42.2467 O.2       9 UNK        -0.5000 
     27 CA          2.5238  -19.4091  -42.2230 C.3       9 UNK         0.1400 
     28 CB          3.1901  -18.2506  -42.9768 C.3       9 UNK        -0.1800 
     29 N           1.0702  -19.2607  -42.3096 N.am      9 UNK        -0.5000 
     30 C           0.1872  -19.9213  -41.5501 C.2       8 UNK         0.5000 
     31 O           0.5128  -20.7560  -40.7045 O.2       8 UNK        -0.5000 
     32 CA         -1.3015  -19.5762  -41.7694 C.3       8 UNK         0.1400 
     33 CB         -2.2266  -20.2300  -40.7277 C.3       8 UNK        -0.1800 
     34 N          -1.5404  -18.1335  -41.7618 N.am      8 UNK        -0.5000 
     35 C          -1.3355  -17.2899  -42.7773 C.2       7 UNK         0.5000 
     36 O          -0.8974  -17.6522  -43.8700 O.2       7 UNK        -0.5000 
     37 CA         -1.6499  -15.8021  -42.5294 C.3       7 UNK         0.1400 
     38 CB         -3.1679  -15.5454  -42.5040 C.3       7 UNK        -0.1800 
     39 N          -0.9773  -15.2266  -41.3603 N.am      7 UNK        -0.5000 
     40 C          -1.1254  -15.5210  -40.0596 C.2       6 UNK         0.5000 
     41 O          -1.9412  -16.3424  -39.6367 O.2       6 UNK        -0.5000 
     42 CA         -0.2152  -14.7704  -39.0600 C.3       6 UNK         0.1400 
     43 CB          0.1932  -15.6545  -37.8626 C.3       6 UNK        -0.1800 
     44 N           0.9643  -14.1413  -39.6723 N.am      6 UNK        -0.5000 
     45 C           1.9826  -14.7534  -40.2943 C.2       5 UNK         0.5000 
     46 O           2.0889  -15.9742  -40.4191 O.2       5 UNK        -0.5000 
     47 CA          3.0529  -13.8294  -40.9059 C.3       5 UNK         0.1400 
     48 CB          4.4258  -14.0840  -40.2637 C.3       5 UNK        -0.1800 
     49 N           3.1674  -13.9825  -42.3582 N.am      5 UNK        -0.5000 
     50 C           2.1800  -13.7993  -43.2454 C.2       4 UNK         0.5000 
     51 O           1.0219  -13.5068  -42.9324 O.2       4 UNK        -0.5000 
     52 CA          2.5663  -13.9877  -44.7242 C.3       4 UNK         0.1400 
     53 CB          2.6162  -15.4780  -45.0922 C.3       4 UNK        -0.1800 
     54 N           1.6093  -13.3250  -45.6052 N.am      4 UNK        -0.5000 
     55 C           1.7204  -12.0666  -46.0514 C.2       3 UNK         0.5000 
     56 O           2.6728  -11.3321  -45.7842 O.2       3 UNK        -0.5000 
     57 CA          0.5962  -11.5314  -46.9645 C.3       3 UNK         0.1400 
     58 CB          1.0173  -11.6240  -48.4396 C.3       3 UNK        -0.1800 
     59 N          -0.6722  -12.2388  -46.7938 N.am      3 UNK        -0.5000 
     60 C          -1.4700  -12.1266  -45.7236 C.2       2 UNK         0.5000 
     61 O          -1.2858  -11.3078  -44.8225 O.2       2 UNK        -0.5000 
     62 CA         -2.6712  -13.0929  -45.6298 C.3       2 UNK         0.1400 
     63 CB         -3.9834  -12.3503  -45.9254 C.3       2 UNK        -0.1800 
     64 N          -2.6011  -14.2837  -46.4883 N.am      2 UNK        -0.5000 
     65 C          -1.6371  -15.2138  -46.4592 C.2       1 UNK         0.5000 
     66 O          -0.6316  -15.1326  -45.7570 O.2       1 UNK        -0.5000 
     67 C          -1.3844  -22.8416  -46.7104 C.2       11 UNK         0.5000 
     68 O          -2.1301  -23.4285  -47.4945 O.2       11 UNK        -0.5000 
     69 N          -1.6428  -22.7390  -45.3992 N.am      12 UNK        -0.5000 
     70 CA         -2.7532  -23.4051  -44.7160 C.3       12 UNK         0.1400 
     71 CB         -2.8235  -22.9120  -43.2642 C.3       12 UNK        -0.1800 
     72 C          -2.6671  -24.9452  -44.7711 C.2       12 UNK         0.5000 
     73 O          -3.7079  -25.6014  -44.7933 O.2       12 UNK        -0.5000 
     74 N          -1.4465  -25.4990  -44.8606 N.am      13 UNK        -0.5000 
     75 CA         -1.2040  -26.9318  -45.0653 C.3       13 UNK         0.1400 
     76 CB          0.2646  -27.2527  -44.7498 C.3       13 UNK        -0.1800 
     77 C          -1.5662  -27.4004  -46.4899 C.2       13 UNK         0.5000 
     78 O          -1.8621  -28.5794  -46.6840 O.2       13 UNK        -0.5000 
     79 N          -1.5727  -26.4635  -47.4479 N.am      14 UNK        -0.5000 
     80 CA         -2.0439  -26.6466  -48.8213 C.3       14 UNK         0.1400 
     81 CB         -1.1251  -25.8510  -49.7671 C.3       14 UNK        -0.1800 
     82 C          -3.5169  -26.2123  -48.9804 C.2       14 UNK         0.5000 
     83 O          -3.9859  -26.0775  -50.1108 O.2       14 UNK        -0.5000 
     84 N          -4.2119  -25.9555  -47.8591 N.am      15 UNK        -0.5000 
     85 CA         -5.5999  -25.4901  -47.7511 C.3       15 UNK         0.1400 
     86 CB         -6.5727  -26.5968  -48.2084 C.3       15 UNK        -0.1800 
     87 C          -5.8572  -24.1422  -48.4603 C.2       15 UNK         0.5000 
     88 O          -6.9797  -23.8880  -48.8993 O.2       15 UNK        -0.5000 
     89 N          -4.8036  -23.3180  -48.5807 N.am      16 UNK        -0.5000 
     90 CA         -4.7378  -22.0459  -49.3066 C.3       16 UNK         0.1400 
     91 CB         -5.6843  -21.0040  -48.6763 C.3       16 UNK        -0.1800 
     92 C          -4.9512  -22.1770  -50.8315 C.2       16 UNK         0.5000 
     93 O          -5.1829  -21.1644  -51.4922 O.2       16 UNK        -0.5000 
     94 N          -4.8585  -23.3971  -51.3849 N.am      17 UNK        -0.5000 
     95 CA         -5.1153  -23.6765  -52.8000 C.3       17 UNK         0.1400 
     96 CB         -5.1497  -25.1935  -53.0339 C.3       17 UNK        -0.1800 
     97 C          -4.0964  -23.0034  -53.7333 C.2       17 UNK         0.5000 
     98 O          -4.4870  -22.4304  -54.7502 O.2       17 UNK        -0.5000 
     99 N          -2.8142  -23.0422  -53.3468 N.am      18 UNK        -0.5000 
    100 CA        -1.7300  -22.3776  -54.0684 C.3       18 UNK         0.1400 
    101 CB        -0.3781  -22.9113  -53.5760 C.3       18 UNK        -0.1800 
    102 C         -1.8098  -20.8435  -53.9591 C.2       18 UNK         0.5000 
    103 O         -1.5485  -20.1595  -54.9475 O.2       18 UNK        -0.5000 
    104 N         -2.2149  -20.3402  -52.7826 N.am      19 UNK        -0.5000 
    105 CA        -2.4373  -18.9162  -52.5163 C.3       19 UNK         0.1400 
    106 CB        -2.6391  -18.6877  -51.0110 C.3       19 UNK        -0.1800 
    107 C         -3.6125  -18.3379  -53.3241 C.2       19 UNK         0.5000 
    108 O         -3.5444  -17.1903  -53.7637 O.2       19 UNK        -0.5000 
    109 N         -4.6590  -19.1487  -53.5293 N.am      20 UNK        -0.5000 
    110 CA        -5.7731  -18.8416  -54.4212 C.3       20 UNK         0.1400 
    111 CB        -6.9278  -19.8214  -54.1625 C.3       20 UNK        -0.1800 
    112 C         -5.3433  -18.8644  -55.8995 C.2       20 UNK         0.5000 
    113 O         -5.6902  -17.9453  -56.6425 O.2       20 UNK        -0.5000 
    114 N         -4.5768  -19.8931  -56.2937 N.am      21 UNK        -0.5000 
    115 CA        -4.0917  -20.1041  -57.6604 C.3       21 UNK         0.1400 
    116 CB        -3.3706  -21.4567  -57.7578 C.3       21 UNK        -0.1800 
    117 C         -3.1946  -18.9708  -58.1929 C.2       21 UNK         0.5000 
    118 O         -3.3258  -18.6085  -59.3631 O.2       21 UNK        -0.5000 
    119 N         -2.3272  -18.4137  -57.3361 N.am      22 UNK        -0.5000 
    120 CA        -1.5117  -17.2272  -57.6526 C.3       22 UNK         0.1400 
    121 C         -2.2680  -15.8650  -57.5689 C.2       22 UNK         0.5000 
    122 N         -3.5491  -15.8215  -57.2207 N.am      22 UNK        -0.7600 
    123 O         -1.6859  -14.8215  -57.8538 O.2       22 UNK        -0.5000 
    124 C124       -0.1552  -17.2159  -56.8991 C.3       23 UNK        -0.0398 
    125 S125       -0.2869  -17.0702  -55.0849 S.3       23 UNK        -0.2404 
    126 C126        1.1698  -18.0308  -54.5617 C.3       23 UNK        -0.0205 
    127 H127       -3.5099  -20.5100  -46.0966 H         1 UNK         0.0600 
    128 H128       -4.0403  -19.2913  -44.9323 H         1 UNK         0.0600 
    129 H129       -2.3270  -19.7125  -45.0619 H         1 UNK         0.0600 
    130 H130       -1.6106  -17.5651  -45.5881 H         1 UNK         0.3000 
    131 H131       -2.6622  -16.2537  -48.0278 H         1 UNK         0.0600 
    132 H132       -0.7485  -17.6833  -48.7567 H         1 UNK         0.0800 
    133 H133        0.2898  -16.9431  -47.5660 H         1 UNK         0.0800 
    134 H134        2.1177  -16.1937  -49.0588 H         1 UNK         0.0800 
    135 H135        1.9830  -15.1741  -50.4672 H         1 UNK         0.0800 
    136 H136        1.3444  -16.0846  -52.6544 H         1 UNK         0.1150 
    137 H137        1.1463  -20.3392  -53.1121 H         1 UNK         0.1150 
    138 H138        1.5229  -18.6210  -49.2062 H         1 UNK         0.1150 
    139 H139        1.6137  -21.7614  -51.2274 H         1 UNK         0.0800 
    140 H140        2.0211  -21.1021  -49.6716 H         1 UNK         0.0800 
    141 H141       -1.2015  -20.4800  -47.8756 H         1 UNK         0.0800 
    142 H142        0.5120  -20.2825  -48.0088 H         1 UNK         0.0800 
    143 H143        0.3892  -23.0405  -47.8352 H         1 UNK         0.0600 
    144 H144        1.3398  -21.0610  -46.1553 H         1 UNK         0.3000 
    145 H145        2.7960  -23.2833  -43.7452 H         1 UNK         0.0600 
    146 H146        4.8401  -22.2252  -44.6672 H         1 UNK         0.0600 
    147 H147        4.1776  -23.3200  -45.8649 H         1 UNK         0.0600 
    148 H148        3.9394  -21.5850  -46.0389 H         1 UNK         0.0600 
    149 H149        1.5507  -20.7452  -44.1580 H         1 UNK         0.3000 
    150 H150        2.8132  -19.3456  -41.1718 H         1 UNK         0.0600 
    151 H151        4.2758  -18.2955  -42.8829 H         1 UNK         0.0600 
    152 H152        2.8702  -17.2869  -42.5823 H         1 UNK         0.0600 
    153 H153        2.9500  -18.2764  -44.0402 H         1 UNK         0.0600 
    154 H154        0.7101  -18.5809  -42.9698 H         1 UNK         0.3000 
    155 H155       -1.5745  -19.9703  -42.7492 H         1 UNK         0.0600 
    156 H156       -2.0135  -19.8692  -39.7206 H         1 UNK         0.0600 
    157 H157       -2.1118  -21.3145  -40.7209 H         1 UNK         0.0600 
    158 H158       -3.2738  -20.0184  -40.9445 H         1 UNK         0.0600 
    159 H159       -1.8352  -17.7236  -40.8786 H         1 UNK         0.3000 
    160 H160       -1.2432  -15.2485  -43.3717 H         1 UNK         0.0600 
    161 H161       -3.6618  -16.0816  -41.6933 H         1 UNK         0.0600 
    162 H162       -3.6297  -15.8690  -43.4379 H         1 UNK         0.0600 
    163 H163       -3.3859  -14.4843  -42.3840 H         1 UNK         0.0600 
    164 H164       -0.2554  -14.5546  -41.5994 H         1 UNK         0.3000 
    165 H165       -0.8207  -13.9518  -38.6686 H         1 UNK         0.0600 
    166 H166        0.8323  -15.1087  -37.1684 H         1 UNK         0.0600 
    167 H167       -0.6823  -15.9846  -37.3023 H         1 UNK         0.0600 
    168 H168        0.7299  -16.5483  -38.1819 H         1 UNK         0.0600 
    169 H169        0.9646  -13.1305  -39.6510 H         1 UNK         0.3000 
    170 H170        2.7772  -12.7913  -40.7087 H         1 UNK         0.0600 
    171 H171        4.3778  -13.9657  -39.1804 H         1 UNK         0.0600 
    172 H172        4.7844  -15.0940  -40.4676 H         1 UNK         0.0600 
    173 H173        5.1725  -13.3810  -40.6335 H         1 UNK         0.0600 
    174 H174        4.0779  -14.2531  -42.6994 H         1 UNK         0.3000 
    175 H175        3.5598  -13.5633  -44.8843 H         1 UNK         0.0600 
    176 H176        1.7110  -16.0042  -44.7851 H         1 UNK         0.0600 
    177 H177        2.7368  -15.6196  -46.1665 H         1 UNK         0.0600 
    178 H178        3.4643  -15.9610  -44.6085 H         1 UNK         0.0600 
    179 H179        0.7566  -13.8471  -45.7890 H         1 UNK         0.3000 
    180 H180        0.4416  -10.4789  -46.7179 H         1 UNK         0.0600 
    181 H181        0.2566  -11.2005  -49.0956 H         1 UNK         0.0600 
    182 H182        1.1877  -12.6572  -48.7449 H         1 UNK         0.0600 
    183 H183        1.9418  -11.0731  -48.6172 H         1 UNK         0.0600 
    184 H184       -0.8981  -12.9378  -47.4859 H         1 UNK         0.3000 
    185 H185       -2.7064  -13.4425  -44.5968 H         1 UNK         0.0600 
    186 H186       -4.8484  -12.9900  -45.7487 H         1 UNK         0.0600 
    187 H187       -4.0937  -11.4758  -45.2827 H         1 UNK         0.0600 
    188 H188       -4.0244  -12.0050  -46.9592 H         1 UNK         0.0600 
    189 H189       -3.3894  -14.4261  -47.1033 H         1 UNK         0.3000 
    190 H190       -0.9708  -22.2643  -44.8170 H         1 UNK         0.3000 
    191 H191       -3.6784  -23.1147  -45.2188 H         1 UNK         0.0600 
    192 H192       -3.6217  -23.4156  -42.7173 H         1 UNK         0.0600 
    193 H193       -3.0344  -21.8438  -43.2259 H         1 UNK         0.0600 
    194 H194       -1.8912  -23.0955  -42.7286 H         1 UNK         0.0600 
    195 H195       -0.6259  -24.9013  -44.8774 H         1 UNK         0.3000 
    196 H196       -1.8302  -27.4878  -44.3643 H         1 UNK         0.0600 
    197 H197        0.9430  -26.7723  -45.4555 H         1 UNK         0.0600 
    198 H198        0.5353  -26.9247  -43.7461 H         1 UNK         0.0600 
    199 H199        0.4475  -28.3266  -44.8020 H         1 UNK         0.0600 
    200 H200       -1.3537  -25.5110  -47.1887 H         1 UNK         0.3000 
    201 H201       -1.9848  -27.7009  -49.0981 H         1 UNK         0.0600 
    202 H202       -1.1935  -24.7768  -49.5930 H         1 UNK         0.0600 
    203 H203       -1.3870  -26.0290  -50.8108 H         1 UNK         0.0600 
    204 H204       -0.0826  -26.1440  -49.6427 H         1 UNK         0.0600 
    205 H205       -3.7353  -26.0705  -46.9743 H         1 UNK         0.3000 
    206 H206       -5.7795  -25.3101  -46.6904 H         1 UNK         0.0600 
    207 H207       -6.3746  -27.5346  -47.6892 H         1 UNK         0.0600 
    208 H208       -7.6069  -26.3235  -47.9961 H         1 UNK         0.0600 
    209 H209       -6.4973  -26.7839  -49.2801 H         1 UNK         0.0600 
    210 H210       -3.9164  -23.6169  -48.1836 H         1 UNK         0.3000 
    211 H211       -3.7176  -21.6808  -49.1785 H         1 UNK         0.0600 
    212 H212       -5.5262  -20.0178  -49.1138 H         1 UNK         0.0600 
    213 H213       -5.5127  -20.9115  -47.6042 H         1 UNK         0.0600 
    214 H214       -6.7330  -21.2585  -48.8293 H         1 UNK         0.0600 
    215 H215       -4.6515  -24.1959  -50.7951 H         1 UNK         0.3000 
    216 H216       -6.1015  -23.2753  -53.0432 H         1 UNK         0.0600 
    217 H217       -4.1870  -25.6577  -52.8163 H         1 UNK         0.0600 
    218 H218       -5.3976  -25.4227  -54.0710 H         1 UNK         0.0600 
    219 H219       -5.9010  -25.6724  -52.4054 H         1 UNK         0.0600 
    220 H220       -2.5768  -23.5271  -52.4941 H         1 UNK         0.3000 
    221 H221       -1.8198  -22.6366  -55.1252 H         1 UNK         0.0600 
    222 H222       -0.2920  -23.9835  -53.7528 H         1 UNK         0.0600 
    223 H223       -0.2403  -22.7389  -52.5104 H         1 UNK         0.0600 
    224 H224        0.4474  -22.4299  -54.1013 H         1 UNK         0.0600 
    225 H225       -2.4166  -20.9775  -52.0280 H         1 UNK         0.3000 
    226 H226       -1.5392  -18.3758  -52.8126 H         1 UNK         0.0600 
    227 H227       -3.4978  -19.2358  -50.6241 H         1 UNK         0.0600 
    228 H228       -1.7606  -18.9964  -50.4481 H         1 UNK         0.0600 
    229 H229       -2.8003  -17.6309  -50.7947 H         1 UNK         0.0600 
    230 H230       -4.6844  -20.0442  -53.0516 H         1 UNK         0.3000 
    231 H231       -6.1281  -17.8351  -54.1899 H         1 UNK         0.0600 
    232 H232       -6.6369  -20.8534  -54.3584 H         1 UNK         0.0600 
    233 H233       -7.7824  -19.5940  -54.8008 H         1 UNK         0.0600 
    234 H234       -7.2681  -19.7631  -53.1284 H         1 UNK         0.0600 
    235 H235       -4.3673  -20.6272  -55.6248 H         1 UNK         0.3000 
    236 H236       -4.9711  -20.1501  -58.3059 H         1 UNK         0.0600 
    237 H237       -4.0233  -22.2767  -57.4586 H         1 UNK         0.0600 
    238 H238       -3.0507  -21.6546  -58.7815 H         1 UNK         0.0600 
    239 H239       -2.4823  -21.4846  -57.1279 H         1 UNK         0.0600 
    240 H240       -2.2419  -18.7865  -56.3958 H         1 UNK         0.3000 
    241 H241       -1.2424  -17.3077  -58.7075 H         1 UNK         0.0600 
    242 H242       -4.0172  -14.9304  -57.1801 H         1 UNK         0.3800 
    243 H243       -4.0645  -16.6647  -57.0009 H         1 UNK         0.3800 
    244 H244        0.4739  -16.4010  -57.2607 H         1 UNK         0.0800 
    245 H245        0.3862  -18.1309  -57.1424 H         1 UNK         0.0800 
    246 H246        2.0750  -17.5350  -54.9144 H         1 UNK         0.0800 
    247 H247        1.1391  -19.0086  -55.0450 H         1 UNK         0.0800 
@<TRIPOS>BOND
     1    1    2 1    
     2    1  127 1    
     3    1  128 1    
     4    1  129 1    
     5    2    3 2    
     6    2    4 am   BACKBONE|DICT|INTERRES
     7    4    5 1    
     8    4  130 1    
     9    5    6 1    
    10    5   65 1    
    11    5  131 1    
    12    6    7 1    
    13    6  132 1    
    14    6  133 1    
    15    7    8 1    
    16    8    9 1    
    17    8  134 1    
    18    8  135 1    
    19    9   10 ar   
    20    9   14 ar   
    21   10   11 ar   
    22   10  136 1    
    23   11   12 ar   
    24   11  126 1    
    25   12   13 ar   
    26   12  137 1    
    27   13   14 ar   
    28   13   15 1    
    29   14  138 1    
    30   15   16 1    
    31   15  139 1    
    32   15  140 1    
    33   16   17 1    
    34   17   18 1    
    35   17  141 1    
    36   17  142 1    
    37   18   19 1    
    38   18   67 1    
    39   18  143 1    
    40   19   20 am   BACKBONE|DICT|INTERRES
    41   19  144 1    
    42   20   21 2    
    43   20   22 1    
    44   22   23 1    
    45   22   24 1    
    46   22  145 1    
    47   23  146 1    
    48   23  147 1    
    49   23  148 1    
    50   24   25 am   BACKBONE|DICT|INTERRES
    51   24  149 1    
    52   25   26 2    
    53   25   27 1    
    54   27   28 1    
    55   27   29 1    
    56   27  150 1    
    57   28  151 1    
    58   28  152 1    
    59   28  153 1    
    60   29   30 am   BACKBONE|DICT|INTERRES
    61   29  154 1    
    62   30   31 2    
    63   30   32 1    
    64   32   33 1    
    65   32   34 1    
    66   32  155 1    
    67   33  156 1    
    68   33  157 1    
    69   33  158 1    
    70   34   35 am   BACKBONE|DICT|INTERRES
    71   34  159 1    
    72   35   36 2    
    73   35   37 1    
    74   37   38 1    
    75   37   39 1    
    76   37  160 1    
    77   38  161 1    
    78   38  162 1    
    79   38  163 1    
    80   39   40 am   BACKBONE|DICT|INTERRES
    81   39  164 1    
    82   40   41 2    
    83   40   42 1    
    84   42   43 1    
    85   42   44 1    
    86   42  165 1    
    87   43  166 1    
    88   43  167 1    
    89   43  168 1    
    90   44   45 am   BACKBONE|DICT|INTERRES
    91   44  169 1    
    92   45   46 2    
    93   45   47 1    
    94   47   48 1    
    95   47   49 1    
    96   47  170 1    
    97   48  171 1    
    98   48  172 1    
    99   48  173 1    
   100   49   50 am   BACKBONE|DICT|INTERRES
   101   49  174 1    
   102   50   51 2    
   103   50   52 1    
   104   52   53 1    
   105   52   54 1    
   106   52  175 1    
   107   53  176 1    
   108   53  177 1    
   109   53  178 1    
   110   54   55 am   BACKBONE|DICT|INTERRES
   111   54  179 1    
   112   55   56 2    
   113   55   57 1    
   114   57   58 1    
   115   57   59 1    
   116   57  180 1    
   117   58  181 1    
   118   58  182 1    
   119   58  183 1    
   120   59   60 am   BACKBONE|DICT|INTERRES
   121   59  184 1    
   122   60   61 2    
   123   60   62 1    
   124   62   63 1    
   125   62   64 1    
   126   62  185 1    
   127   63  186 1    
   128   63  187 1    
   129   63  188 1    
   130   64   65 am   BACKBONE|DICT|INTERRES
   131   64  189 1    
   132   65   66 2    
   133   67   68 2    
   134   67   69 am   BACKBONE|DICT|INTERRES
   135   69   70 1    
   136   69  190 1    
   137   70   71 1    
   138   70   72 1    
   139   70  191 1    
   140   71  192 1    
   141   71  193 1    
   142   71  194 1    
   143   72   73 2    
   144   72   74 am   BACKBONE|DICT|INTERRES
   145   74   75 1    
   146   74  195 1    
   147   75   76 1    
   148   75   77 1    
   149   75  196 1    
   150   76  197 1    
   151   76  198 1    
   152   76  199 1    
   153   77   78 2    
   154   77   79 am   BACKBONE|DICT|INTERRES
   155   79   80 1    
   156   79  200 1    
   157   80   81 1    
   158   80   82 1    
   159   80  201 1    
   160   81  202 1    
   161   81  203 1    
   162   81  204 1    
   163   82   83 2    
   164   82   84 am   BACKBONE|DICT|INTERRES
   165   84   85 1    
   166   84  205 1    
   167   85   86 1    
   168   85   87 1    
   169   85  206 1    
   170   86  207 1    
   171   86  208 1    
   172   86  209 1    
   173   87   88 2    
   174   87   89 am   BACKBONE|DICT|INTERRES
   175   89   90 1    
   176   89  210 1    
   177   90   91 1    
   178   90   92 1    
   179   90  211 1    
   180   91  212 1    
   181   91  213 1    
   182   91  214 1    
   183   92   93 2    
   184   92   94 am   BACKBONE|DICT|INTERRES
   185   94   95 1    
   186   94  215 1    
   187   95   96 1    
   188   95   97 1    
   189   95  216 1    
   190   96  217 1    
   191   96  218 1    
   192   96  219 1    
   193   97   98 2    
   194   97   99 am   BACKBONE|DICT|INTERRES
   195   99  100 1    
   196   99  220 1    
   197  100  101 1    
   198  100  102 1    
   199  100  221 1    
   200  101  222 1    
   201  101  223 1    
   202  101  224 1    
   203  102  103 2    
   204  102  104 am   BACKBONE|DICT|INTERRES
   205  104  105 1    
   206  104  225 1    
   207  105  106 1    
   208  105  107 1    
   209  105  226 1    
   210  106  227 1    
   211  106  228 1    
   212  106  229 1    
   213  107  108 2    
   214  107  109 am   BACKBONE|DICT|INTERRES
   215  109  110 1    
   216  109  230 1    
   217  110  111 1    
   218  110  112 1    
   219  110  231 1    
   220  111  232 1    
   221  111  233 1    
   222  111  234 1    
   223  112  113 2    
   224  112  114 am   BACKBONE|DICT|INTERRES
   225  114  115 1    
   226  114  235 1    
   227  115  116 1    
   228  115  117 1    
   229  115  236 1    
   230  116  237 1    
   231  116  238 1    
   232  116  239 1    
   233  117  118 2    
   234  117  119 am   BACKBONE|DICT|INTERRES
   235  119  120 1    
   236  119  240 1    
   237  120  121 1    
   238  120  124 1    
   239  120  241 1    
   240  121  122 am   BACKBONE|DICT|INTERRES
   241  121  123 2    
   242  122  242 1    
   243  122  243 1    
   244  124  125 1    
   245  124  244 1    
   246  124  245 1    
   247  125  126 1    
   248  126  246 1    
   249  126  247 1    
@<TRIPOS>SUBSTRUCTURE
     1 UNK         1 GROUP             0       ****    0 ROOT    
