@<TRIPOS>MOLECULE
3R540
247   249    1
SMALL
USER_CHARGES


@<TRIPOS>ATOM
      1 CA         -0.7786  -12.9543  -44.0391 C.3       0 UNK        -0.1800 
      2 C          -0.3469  -12.2875  -45.3355 C.2       0 UNK         0.5000 
      3 O           0.0895  -11.1370  -45.3201 O.2       0 UNK        -0.5000 
      4 N          -0.4485  -13.0130  -46.4575 N.am      1 UNK        -0.5000 
      5 CA         -0.1372  -12.5341  -47.8141 C.3       1 UNK         0.1400 
      6 C6         -0.5368  -13.5639  -48.8966 C.3       23 UNK        -0.0398 
      7 S7         -2.3388  -13.8683  -48.9629 S.3       23 UNK        -0.2404 
      8 C8         -2.4804  -15.6592  -48.6365 C.3       23 UNK        -0.0205 
      9 C9         -1.5840  -16.4988  -49.5378 C.ar      23 UNK        -0.0193 
     10 C10        -1.7340  -16.4671  -50.9289 C.ar      23 UNK        -0.1150 
     11 C11        -0.8604  -17.1849  -51.7523 C.ar      23 UNK        -0.0193 
     12 C12         0.1462  -17.9630  -51.1733 C.ar      23 UNK        -0.1150 
     13 C13         0.2866  -18.0246  -49.7852 C.ar      23 UNK        -0.0193 
     14 C14        -0.5767  -17.2862  -48.9737 C.ar      23 UNK        -0.1150 
     15 C15         1.3860  -18.8685  -49.1614 C.3       23 UNK        -0.0205 
     16 S16         1.0186  -20.6484  -49.2460 S.3       23 UNK        -0.2404 
     17 C17        -0.5804  -20.7817  -48.3730 C.3       23 UNK        -0.0398 
     18 CA         -0.6377  -22.0751  -47.5297 C.3       11 UNK         0.1400 
     19 N           0.1182  -21.9666  -46.2790 N.am      11 UNK        -0.5000 
     20 C           0.4803  -23.0204  -45.5355 C.2       10 UNK         0.5000 
     21 O           0.2182  -24.1855  -45.8337 O.2       10 UNK        -0.5000 
     22 CA          1.2153  -22.7251  -44.2176 C.3       10 UNK         0.1400 
     23 CB          2.6725  -22.3164  -44.4804 C.3       10 UNK        -0.1800 
     24 N           0.5434  -21.6991  -43.4198 N.am      10 UNK        -0.5000 
     25 C          -0.6848  -21.8310  -42.8978 C.2       9 UNK         0.5000 
     26 O          -1.3691  -22.8488  -43.0113 O.2       9 UNK        -0.5000 
     27 CA         -1.2640  -20.6092  -42.1590 C.3       9 UNK         0.1400 
     28 CB         -0.6899  -20.5059  -40.7384 C.3       9 UNK        -0.1800 
     29 N          -1.0398  -19.3508  -42.8722 N.am      9 UNK        -0.5000 
     30 C          -1.5208  -19.0719  -44.0916 C.2       8 UNK         0.5000 
     31 O          -2.2343  -19.8336  -44.7375 O.2       8 UNK        -0.5000 
     32 CA         -1.0782  -17.7500  -44.7363 C.3       8 UNK         0.1400 
     33 CB         -1.9113  -16.5668  -44.2243 C.3       8 UNK        -0.1800 
     34 N           0.3486  -17.4908  -44.5483 N.am      8 UNK        -0.5000 
     35 C           1.3213  -18.2777  -45.0311 C.2       7 UNK         0.5000 
     36 O           1.1175  -19.2772  -45.7199 O.2       7 UNK        -0.5000 
     37 CA          2.7574  -17.9102  -44.6304 C.3       7 UNK         0.1400 
     38 CB          3.2595  -16.7158  -45.4521 C.3       7 UNK        -0.1800 
     39 N           2.8584  -17.6061  -43.2031 N.am      7 UNK        -0.5000 
     40 C           2.7147  -18.5206  -42.2319 C.2       6 UNK         0.5000 
     41 O           2.5197  -19.7169  -42.4440 O.2       6 UNK        -0.5000 
     42 CA          2.7518  -18.0108  -40.7792 C.3       6 UNK         0.1400 
     43 CB          4.1962  -17.9732  -40.2586 C.3       6 UNK        -0.1800 
     44 N           2.1463  -16.6890  -40.6143 N.am      6 UNK        -0.5000 
     45 C           0.8688  -16.3865  -40.8858 C.2       5 UNK         0.5000 
     46 O           0.0429  -17.2076  -41.2832 O.2       5 UNK        -0.5000 
     47 CA          0.4498  -14.9140  -40.7210 C.3       5 UNK         0.1400 
     48 CB         -0.2508  -14.7040  -39.3709 C.3       5 UNK        -0.1800 
     49 N           1.5612  -13.9641  -40.8398 N.am      5 UNK        -0.5000 
     50 C           2.2622  -13.7460  -41.9593 C.2       4 UNK         0.5000 
     51 O           2.0820  -14.3577  -43.0161 O.2       4 UNK        -0.5000 
     52 CA          3.3522  -12.6728  -41.8900 C.3       4 UNK         0.1400 
     53 CB          4.7536  -13.3054  -41.9143 C.3       4 UNK        -0.1800 
     54 N           3.1754  -11.8064  -43.0448 N.am      4 UNK        -0.5000 
     55 C           3.4737  -10.5038  -43.1128 C.2       3 UNK         0.5000 
     56 O           3.9979   -9.8765  -42.1907 O.2       3 UNK        -0.5000 
     57 CA          3.0959   -9.7840  -44.4262 C.3       3 UNK         0.1400 
     58 CB          3.9762   -8.5516  -44.7247 C.3       3 UNK        -0.1800 
     59 N           3.0248  -10.7012  -45.5710 N.am      3 UNK        -0.5000 
     60 C           4.0397  -11.3493  -46.1660 C.2       2 UNK         0.5000 
     61 O           5.2250  -11.1533  -45.8957 O.2       2 UNK        -0.5000 
     62 CA          3.6798  -12.4378  -47.2014 C.3       2 UNK         0.1400 
     63 CB          4.4472  -13.7376  -46.9083 C.3       2 UNK        -0.1800 
     64 N           2.2464  -12.7441  -47.2295 N.am      2 UNK        -0.5000 
     65 C           1.3417  -12.1231  -47.9986 C.2       1 UNK         0.5000 
     66 O           1.6282  -11.2421  -48.8096 O.2       1 UNK        -0.5000 
     67 C          -2.0848  -22.5615  -47.3064 C.2       11 UNK         0.5000 
     68 O          -2.6040  -23.2840  -48.1596 O.2       11 UNK        -0.5000 
     69 N          -2.7010  -22.2132  -46.1667 N.am      12 UNK        -0.5000 
     70 CA         -4.0017  -22.7306  -45.7399 C.3       12 UNK         0.1400 
     71 CB         -4.5254  -21.9637  -44.5177 C.3       12 UNK        -0.1800 
     72 C          -3.9707  -24.2429  -45.4710 C.2       12 UNK         0.5000 
     73 O          -4.8561  -24.9583  -45.9397 O.2       12 UNK        -0.5000 
     74 N          -2.9329  -24.7074  -44.7634 N.am      13 UNK        -0.5000 
     75 CA         -2.6910  -26.1263  -44.5048 C.3       13 UNK         0.1400 
     76 CB         -1.5601  -26.2727  -43.4753 C.3       13 UNK        -0.1800 
     77 C          -2.3736  -26.9200  -45.7871 C.2       13 UNK         0.5000 
     78 O          -2.8377  -28.0522  -45.9285 O.2       13 UNK        -0.5000 
     79 N          -1.5943  -26.3141  -46.6927 N.am      14 UNK        -0.5000 
     80 CA         -1.1644  -26.9226  -47.9485 C.3       14 UNK         0.1400 
     81 CB          0.0427  -26.1525  -48.5063 C.3       14 UNK        -0.1800 
     82 C          -2.2787  -27.0116  -49.0062 C.2       14 UNK         0.5000 
     83 O          -2.4485  -28.0751  -49.6049 O.2       14 UNK        -0.5000 
     84 N          -2.9834  -25.8988  -49.2570 N.am      15 UNK        -0.5000 
     85 CA         -3.8548  -25.7442  -50.4254 C.3       15 UNK         0.1400 
     86 CB         -2.9899  -25.3958  -51.6563 C.3       15 UNK        -0.1800 
     87 C          -4.9784  -24.7163  -50.2000 C.2       15 UNK         0.5000 
     88 O          -5.4009  -24.0594  -51.1552 O.2       15 UNK        -0.5000 
     89 N          -5.4310  -24.5448  -48.9478 N.am      16 UNK        -0.5000 
     90 CA         -6.5091  -23.6316  -48.5236 C.3       16 UNK         0.1400 
     91 CB         -7.8588  -24.0972  -49.1101 C.3       16 UNK        -0.1800 
     92 C          -6.2463  -22.1355  -48.8253 C.2       16 UNK         0.5000 
     93 O          -7.1702  -21.3272  -48.7298 O.2       16 UNK        -0.5000 
     94 N          -5.0017  -21.8055  -49.2093 N.am      17 UNK        -0.5000 
     95 CA         -4.5399  -20.5417  -49.7904 C.3       17 UNK         0.1400 
     96 CB         -4.4584  -19.4475  -48.7067 C.3       17 UNK        -0.1800 
     97 C          -5.3528  -20.1179  -51.0373 C.2       17 UNK         0.5000 
     98 O          -5.5348  -18.9218  -51.2716 O.2       17 UNK        -0.5000 
     99 N          -5.8488  -21.1050  -51.8008 N.am      18 UNK        -0.5000 
    100 CA        -6.7811  -20.8930  -52.9082 C.3       18 UNK         0.1400 
    101 CB        -8.2224  -20.8273  -52.3729 C.3       18 UNK        -0.1800 
    102 C         -6.6567  -21.9643  -53.9999 C.2       18 UNK         0.5000 
    103 O         -6.6803  -21.6167  -55.1810 O.2       18 UNK        -0.5000 
    104 N         -6.4941  -23.2400  -53.6156 N.am      19 UNK        -0.5000 
    105 CA        -6.3949  -24.3751  -54.5437 C.3       19 UNK         0.1400 
    106 CB        -6.6120  -25.6898  -53.7780 C.3       19 UNK        -0.1800 
    107 C         -5.0713  -24.4029  -55.3346 C.2       19 UNK         0.5000 
    108 O         -4.9934  -25.0665  -56.3689 O.2       19 UNK        -0.5000 
    109 N         -4.0726  -23.6454  -54.8591 N.am      20 UNK        -0.5000 
    110 CA        -2.8245  -23.3474  -55.5620 C.3       20 UNK         0.1400 
    111 CB        -1.8376  -22.7260  -54.5598 C.3       20 UNK        -0.1800 
    112 C         -3.0171  -22.4120  -56.7765 C.2       20 UNK         0.5000 
    113 O         -2.1197  -22.3349  -57.6161 O.2       20 UNK        -0.5000 
    114 N         -4.1655  -21.7144  -56.8409 N.am      21 UNK        -0.5000 
    115 CA        -4.5845  -20.7658  -57.8810 C.3       21 UNK         0.1400 
    116 CB        -4.7804  -21.4858  -59.2317 C.3       21 UNK        -0.1800 
    117 C         -3.6763  -19.5208  -57.9886 C.2       21 UNK         0.5000 
    118 O         -3.5903  -18.9096  -59.0556 O.2       21 UNK        -0.5000 
    119 N         -3.0167  -19.1653  -56.8793 N.am      22 UNK        -0.5000 
    120 CA        -2.0707  -18.0442  -56.7774 C.3       22 UNK         0.1400 
    121 C         -2.7207  -16.6472  -56.5454 C.2       22 UNK         0.5000 
    122 N         -4.0323  -16.5422  -56.3660 N.am      22 UNK        -0.7600 
    123 O         -2.0225  -15.6366  -56.5438 O.2       22 UNK        -0.5000 
    124 C124       -0.9422  -18.3564  -55.7618 C.3       23 UNK        -0.0398 
    125 S125       -1.5082  -18.6259  -54.0413 S.3       23 UNK        -0.2404 
    126 C126       -0.9503  -17.0749  -53.2662 C.3       23 UNK        -0.0205 
    127 H127       -0.3841  -13.9673  -43.9774 H         1 UNK         0.0600 
    128 H128       -1.8658  -12.9973  -43.9768 H         1 UNK         0.0600 
    129 H129       -0.4078  -12.3978  -43.1781 H         1 UNK         0.0600 
    130 H130       -0.8298  -13.9458  -46.4061 H         1 UNK         0.3000 
    131 H131       -0.7295  -11.6308  -47.9760 H         1 UNK         0.0600 
    132 H132        0.0056  -14.4963  -48.7389 H         1 UNK         0.0800 
    133 H133       -0.2434  -13.2121  -49.8877 H         1 UNK         0.0800 
    134 H134       -3.5172  -15.9636  -48.7859 H         1 UNK         0.0800 
    135 H135       -2.2568  -15.8433  -47.5847 H         1 UNK         0.0800 
    136 H136       -2.5066  -15.8516  -51.3682 H         1 UNK         0.1150 
    137 H137        0.8246  -18.5192  -51.8053 H         1 UNK         0.1150 
    138 H138       -0.4504  -17.3141  -47.9016 H         1 UNK         0.1150 
    139 H139        2.3244  -18.6794  -49.6844 H         1 UNK         0.0800 
    140 H140        1.5574  -18.5777  -48.1263 H         1 UNK         0.0800 
    141 H141       -1.3569  -20.7689  -49.1390 H         1 UNK         0.0800 
    142 H142       -0.7524  -19.9071  -47.7440 H         1 UNK         0.0800 
    143 H143       -0.1637  -22.8640  -48.1168 H         1 UNK         0.0600 
    144 H144        0.3942  -21.0319  -45.9875 H         1 UNK         0.3000 
    145 H145        1.2251  -23.6470  -43.6323 H         1 UNK         0.0600 
    146 H146        3.2238  -22.2056  -43.5466 H         1 UNK         0.0600 
    147 H147        3.1889  -23.0709  -45.0751 H         1 UNK         0.0600 
    148 H148        2.7372  -21.3713  -45.0200 H         1 UNK         0.0600 
    149 H149        1.0635  -20.8442  -43.2498 H         1 UNK         0.3000 
    150 H150       -2.3431  -20.7529  -42.0771 H         1 UNK         0.0600 
    151 H151       -0.8815  -21.4185  -40.1728 H         1 UNK         0.0600 
    152 H152       -1.1429  -19.6803  -40.1891 H         1 UNK         0.0600 
    153 H153        0.3883  -20.3472  -40.7504 H         1 UNK         0.0600 
    154 H154       -0.4946  -18.6414  -42.3890 H         1 UNK         0.3000 
    155 H155       -1.2625  -17.8439  -45.8077 H         1 UNK         0.0600 
    156 H156       -2.9783  -16.7858  -44.2845 H         1 UNK         0.0600 
    157 H157       -1.7353  -15.6781  -44.8280 H         1 UNK         0.0600 
    158 H158       -1.6844  -16.3260  -43.1857 H         1 UNK         0.0600 
    159 H159        0.6028  -16.7172  -43.9516 H         1 UNK         0.3000 
    160 H160        3.3981  -18.7678  -44.8469 H         1 UNK         0.0600 
    161 H161        2.6613  -15.8221  -45.2718 H         1 UNK         0.0600 
    162 H162        3.2154  -16.9304  -46.5208 H         1 UNK         0.0600 
    163 H163        4.2962  -16.4819  -45.2098 H         1 UNK         0.0600 
    164 H164        2.9701  -16.6340  -42.9489 H         1 UNK         0.3000 
    165 H165        2.1851  -18.7148  -40.1667 H         1 UNK         0.0600 
    166 H166        4.2289  -17.6967  -39.2046 H         1 UNK         0.0600 
    167 H167        4.6699  -18.9514  -40.3514 H         1 UNK         0.0600 
    168 H168        4.8062  -17.2588  -40.8131 H         1 UNK         0.0600 
    169 H169        2.7505  -15.9498  -40.2882 H         1 UNK         0.3000 
    170 H170       -0.2676  -14.6925  -41.5136 H         1 UNK         0.0600 
    171 H171       -1.1002  -15.3799  -39.2621 H         1 UNK         0.0600 
    172 H172        0.4240  -14.8874  -38.5339 H         1 UNK         0.0600 
    173 H173       -0.6336  -13.6874  -39.2787 H         1 UNK         0.0600 
    174 H174        1.7744  -13.4222  -40.0144 H         1 UNK         0.3000 
    175 H175        3.2299  -12.0939  -40.9721 H         1 UNK         0.0600 
    176 H176        4.8962  -13.9743  -41.0649 H         1 UNK         0.0600 
    177 H177        4.9171  -13.8858  -42.8236 H         1 UNK         0.0600 
    178 H178        5.5305  -12.5425  -41.8623 H         1 UNK         0.0600 
    179 H179        2.7187  -12.2464  -43.8317 H         1 UNK         0.3000 
    180 H180        2.0779   -9.4208  -44.2787 H         1 UNK         0.0600 
    181 H181        5.0352   -8.8057  -44.7698 H         1 UNK         0.0600 
    182 H182        3.8595   -7.7947  -43.9484 H         1 UNK         0.0600 
    183 H183        3.6994   -8.0886  -45.6717 H         1 UNK         0.0600 
    184 H184        2.0797  -10.9352  -45.8553 H         1 UNK         0.3000 
    185 H185        3.9946  -12.0737  -48.1815 H         1 UNK         0.0600 
    186 H186        5.5215  -13.5941  -47.0303 H         1 UNK         0.0600 
    187 H187        4.2794  -14.0749  -45.8854 H         1 UNK         0.0600 
    188 H188        4.1505  -14.5388  -47.5855 H         1 UNK         0.0600 
    189 H189        1.9212  -13.4458  -46.5806 H         1 UNK         0.3000 
    190 H190       -2.2595  -21.5414  -45.5444 H         1 UNK         0.3000 
    191 H191       -4.7033  -22.5545  -46.5500 H         1 UNK         0.0600 
    192 H192       -3.8379  -22.0244  -43.6749 H         1 UNK         0.0600 
    193 H193       -5.4851  -22.3632  -44.1875 H         1 UNK         0.0600 
    194 H194       -4.6797  -20.9106  -44.7521 H         1 UNK         0.0600 
    195 H195       -2.2625  -24.0492  -44.3780 H         1 UNK         0.3000 
    196 H196       -3.6000  -26.5478  -44.0706 H         1 UNK         0.0600 
    197 H197       -1.3747  -27.3224  -43.2447 H         1 UNK         0.0600 
    198 H198       -1.8128  -25.7729  -42.5399 H         1 UNK         0.0600 
    199 H199       -0.6252  -25.8453  -43.8386 H         1 UNK         0.0600 
    200 H200       -1.1916  -25.4113  -46.4599 H         1 UNK         0.3000 
    201 H201       -0.8324  -27.9404  -47.7320 H         1 UNK         0.0600 
    202 H202        0.8678  -26.1409  -47.7939 H         1 UNK         0.0600 
    203 H203       -0.2124  -25.1195  -48.7410 H         1 UNK         0.0600 
    204 H204        0.4109  -26.6147  -49.4230 H         1 UNK         0.0600 
    205 H205       -2.7895  -25.0489  -48.7308 H         1 UNK         0.3000 
    206 H206       -4.3645  -26.6897  -50.6211 H         1 UNK         0.0600 
    207 H207       -2.2312  -26.1563  -51.8406 H         1 UNK         0.0600 
    208 H208       -3.5896  -25.3255  -52.5628 H         1 UNK         0.0600 
    209 H209       -2.4796  -24.4409  -51.5236 H         1 UNK         0.0600 
    210 H210       -5.0131  -25.0899  -48.2031 H         1 UNK         0.3000 
    211 H211       -6.5860  -23.7148  -47.4401 H         1 UNK         0.0600 
    212 H212       -7.9000  -23.9665  -50.1919 H         1 UNK         0.0600 
    213 H213       -8.6883  -23.5322  -48.6834 H         1 UNK         0.0600 
    214 H214       -8.0411  -25.1494  -48.8920 H         1 UNK         0.0600 
    215 H215       -4.3111  -22.5471  -49.1925 H         1 UNK         0.3000 
    216 H216       -3.5271  -20.7260  -50.1495 H         1 UNK         0.0600 
    217 H217       -3.9897  -18.5439  -49.0980 H         1 UNK         0.0600 
    218 H218       -3.8620  -19.7778  -47.8557 H         1 UNK         0.0600 
    219 H219       -5.4467  -19.1729  -48.3371 H         1 UNK         0.0600 
    220 H220       -5.6441  -22.0655  -51.5463 H         1 UNK         0.3000 
    221 H221       -6.5516  -19.9390  -53.3884 H         1 UNK         0.0600 
    222 H222       -8.4937  -21.7398  -51.8401 H         1 UNK         0.0600 
    223 H223       -8.3504  -19.9908  -51.6855 H         1 UNK         0.0600 
    224 H224       -8.9382  -20.6924  -53.1850 H         1 UNK         0.0600 
    225 H225       -6.4024  -23.4720  -52.6308 H         1 UNK         0.3000 
    226 H226       -7.2015  -24.2801  -55.2738 H         1 UNK         0.0600 
    227 H227       -7.5568  -25.6786  -53.2339 H         1 UNK         0.0600 
    228 H228       -6.6421  -26.5379  -54.4634 H         1 UNK         0.0600 
    229 H229       -5.8151  -25.8813  -53.0611 H         1 UNK         0.0600 
    230 H230       -4.2287  -23.1591  -53.9887 H         1 UNK         0.3000 
    231 H231       -2.4018  -24.2848  -55.9299 H         1 UNK         0.0600 
    232 H232       -1.6271  -23.4100  -53.7377 H         1 UNK         0.0600 
    233 H233       -2.2239  -21.7983  -54.1351 H         1 UNK         0.0600 
    234 H234       -0.8850  -22.4946  -55.0388 H         1 UNK         0.0600 
    235 H235       -4.8510  -21.8553  -56.1071 H         1 UNK         0.3000 
    236 H236       -5.5609  -20.3933  -57.5677 H         1 UNK         0.0600 
    237 H237       -5.2442  -20.8247  -59.9647 H         1 UNK         0.0600 
    238 H238       -3.8332  -21.8255  -59.6517 H         1 UNK         0.0600 
    239 H239       -5.4306  -22.3543  -59.1239 H         1 UNK         0.0600 
    240 H240       -3.1512  -19.7075  -56.0388 H         1 UNK         0.3000 
    241 H241       -1.5777  -17.9542  -57.7478 H         1 UNK         0.0600 
    242 H242       -4.6167  -17.3625  -56.3678 H         1 UNK         0.3800 
    243 H243       -4.4435  -15.6326  -56.2243 H         1 UNK         0.3800 
    244 H244       -0.4238  -19.2638  -56.0761 H         1 UNK         0.0800 
    245 H245       -0.1817  -17.5744  -55.7929 H         1 UNK         0.0800 
    246 H246        0.0366  -16.8045  -53.6438 H         1 UNK         0.0800 
    247 H247       -1.6233  -16.2674  -53.5591 H         1 UNK         0.0800 
@<TRIPOS>BOND
     1    1    2 1    
     2    1  127 1    
     3    1  128 1    
     4    1  129 1    
     5    2    3 2    
     6    2    4 am   BACKBONE|DICT|INTERRES
     7    4    5 1    
     8    4  130 1    
     9    5    6 1    
    10    5   65 1    
    11    5  131 1    
    12    6    7 1    
    13    6  132 1    
    14    6  133 1    
    15    7    8 1    
    16    8    9 1    
    17    8  134 1    
    18    8  135 1    
    19    9   10 ar   
    20    9   14 ar   
    21   10   11 ar   
    22   10  136 1    
    23   11   12 ar   
    24   11  126 1    
    25   12   13 ar   
    26   12  137 1    
    27   13   14 ar   
    28   13   15 1    
    29   14  138 1    
    30   15   16 1    
    31   15  139 1    
    32   15  140 1    
    33   16   17 1    
    34   17   18 1    
    35   17  141 1    
    36   17  142 1    
    37   18   19 1    
    38   18   67 1    
    39   18  143 1    
    40   19   20 am   BACKBONE|DICT|INTERRES
    41   19  144 1    
    42   20   21 2    
    43   20   22 1    
    44   22   23 1    
    45   22   24 1    
    46   22  145 1    
    47   23  146 1    
    48   23  147 1    
    49   23  148 1    
    50   24   25 am   BACKBONE|DICT|INTERRES
    51   24  149 1    
    52   25   26 2    
    53   25   27 1    
    54   27   28 1    
    55   27   29 1    
    56   27  150 1    
    57   28  151 1    
    58   28  152 1    
    59   28  153 1    
    60   29   30 am   BACKBONE|DICT|INTERRES
    61   29  154 1    
    62   30   31 2    
    63   30   32 1    
    64   32   33 1    
    65   32   34 1    
    66   32  155 1    
    67   33  156 1    
    68   33  157 1    
    69   33  158 1    
    70   34   35 am   BACKBONE|DICT|INTERRES
    71   34  159 1    
    72   35   36 2    
    73   35   37 1    
    74   37   38 1    
    75   37   39 1    
    76   37  160 1    
    77   38  161 1    
    78   38  162 1    
    79   38  163 1    
    80   39   40 am   BACKBONE|DICT|INTERRES
    81   39  164 1    
    82   40   41 2    
    83   40   42 1    
    84   42   43 1    
    85   42   44 1    
    86   42  165 1    
    87   43  166 1    
    88   43  167 1    
    89   43  168 1    
    90   44   45 am   BACKBONE|DICT|INTERRES
    91   44  169 1    
    92   45   46 2    
    93   45   47 1    
    94   47   48 1    
    95   47   49 1    
    96   47  170 1    
    97   48  171 1    
    98   48  172 1    
    99   48  173 1    
   100   49   50 am   BACKBONE|DICT|INTERRES
   101   49  174 1    
   102   50   51 2    
   103   50   52 1    
   104   52   53 1    
   105   52   54 1    
   106   52  175 1    
   107   53  176 1    
   108   53  177 1    
   109   53  178 1    
   110   54   55 am   BACKBONE|DICT|INTERRES
   111   54  179 1    
   112   55   56 2    
   113   55   57 1    
   114   57   58 1    
   115   57   59 1    
   116   57  180 1    
   117   58  181 1    
   118   58  182 1    
   119   58  183 1    
   120   59   60 am   BACKBONE|DICT|INTERRES
   121   59  184 1    
   122   60   61 2    
   123   60   62 1    
   124   62   63 1    
   125   62   64 1    
   126   62  185 1    
   127   63  186 1    
   128   63  187 1    
   129   63  188 1    
   130   64   65 am   BACKBONE|DICT|INTERRES
   131   64  189 1    
   132   65   66 2    
   133   67   68 2    
   134   67   69 am   BACKBONE|DICT|INTERRES
   135   69   70 1    
   136   69  190 1    
   137   70   71 1    
   138   70   72 1    
   139   70  191 1    
   140   71  192 1    
   141   71  193 1    
   142   71  194 1    
   143   72   73 2    
   144   72   74 am   BACKBONE|DICT|INTERRES
   145   74   75 1    
   146   74  195 1    
   147   75   76 1    
   148   75   77 1    
   149   75  196 1    
   150   76  197 1    
   151   76  198 1    
   152   76  199 1    
   153   77   78 2    
   154   77   79 am   BACKBONE|DICT|INTERRES
   155   79   80 1    
   156   79  200 1    
   157   80   81 1    
   158   80   82 1    
   159   80  201 1    
   160   81  202 1    
   161   81  203 1    
   162   81  204 1    
   163   82   83 2    
   164   82   84 am   BACKBONE|DICT|INTERRES
   165   84   85 1    
   166   84  205 1    
   167   85   86 1    
   168   85   87 1    
   169   85  206 1    
   170   86  207 1    
   171   86  208 1    
   172   86  209 1    
   173   87   88 2    
   174   87   89 am   BACKBONE|DICT|INTERRES
   175   89   90 1    
   176   89  210 1    
   177   90   91 1    
   178   90   92 1    
   179   90  211 1    
   180   91  212 1    
   181   91  213 1    
   182   91  214 1    
   183   92   93 2    
   184   92   94 am   BACKBONE|DICT|INTERRES
   185   94   95 1    
   186   94  215 1    
   187   95   96 1    
   188   95   97 1    
   189   95  216 1    
   190   96  217 1    
   191   96  218 1    
   192   96  219 1    
   193   97   98 2    
   194   97   99 am   BACKBONE|DICT|INTERRES
   195   99  100 1    
   196   99  220 1    
   197  100  101 1    
   198  100  102 1    
   199  100  221 1    
   200  101  222 1    
   201  101  223 1    
   202  101  224 1    
   203  102  103 2    
   204  102  104 am   BACKBONE|DICT|INTERRES
   205  104  105 1    
   206  104  225 1    
   207  105  106 1    
   208  105  107 1    
   209  105  226 1    
   210  106  227 1    
   211  106  228 1    
   212  106  229 1    
   213  107  108 2    
   214  107  109 am   BACKBONE|DICT|INTERRES
   215  109  110 1    
   216  109  230 1    
   217  110  111 1    
   218  110  112 1    
   219  110  231 1    
   220  111  232 1    
   221  111  233 1    
   222  111  234 1    
   223  112  113 2    
   224  112  114 am   BACKBONE|DICT|INTERRES
   225  114  115 1    
   226  114  235 1    
   227  115  116 1    
   228  115  117 1    
   229  115  236 1    
   230  116  237 1    
   231  116  238 1    
   232  116  239 1    
   233  117  118 2    
   234  117  119 am   BACKBONE|DICT|INTERRES
   235  119  120 1    
   236  119  240 1    
   237  120  121 1    
   238  120  124 1    
   239  120  241 1    
   240  121  122 am   BACKBONE|DICT|INTERRES
   241  121  123 2    
   242  122  242 1    
   243  122  243 1    
   244  124  125 1    
   245  124  244 1    
   246  124  245 1    
   247  125  126 1    
   248  126  246 1    
   249  126  247 1    
@<TRIPOS>SUBSTRUCTURE
     1 UNK         1 GROUP             0       ****    0 ROOT    
