@<TRIPOS>MOLECULE
3R540
247   249    1
SMALL
USER_CHARGES


@<TRIPOS>ATOM
      1 CA         -0.3946  -11.7450  -44.9690 C.3       0 UNK        -0.1800 
      2 C           0.7428  -11.4866  -45.9439 C.2       0 UNK         0.5000 
      3 O           0.6582  -10.5608  -46.7525 O.2       0 UNK        -0.5000 
      4 N           1.8135  -12.2874  -45.8700 N.am      1 UNK        -0.5000 
      5 CA          3.0267  -12.1448  -46.6826 C.3       1 UNK         0.1400 
      6 C6          3.7837  -13.4863  -46.8581 C.3       23 UNK        -0.0398 
      7 S7          2.7208  -14.8268  -47.4822 S.3       23 UNK        -0.2404 
      8 C8          3.0958  -14.8231  -49.2573 C.3       23 UNK        -0.0205 
      9 C9          2.2652  -15.8862  -49.9545 C.ar      23 UNK        -0.0193 
     10 C10         1.0394  -15.5561  -50.5408 C.ar      23 UNK        -0.1150 
     11 C11         0.2428  -16.5465  -51.1240 C.ar      23 UNK        -0.0193 
     12 C12         0.6858  -17.8726  -51.1194 C.ar      23 UNK        -0.1150 
     13 C13         1.9116  -18.2127  -50.5406 C.ar      23 UNK        -0.0193 
     14 C14         2.7009  -17.2136  -49.9668 C.ar      23 UNK        -0.1150 
     15 C15         2.3701  -19.6622  -50.5056 C.3       23 UNK        -0.0205 
     16 S16         2.0326  -20.4286  -48.8886 S.3       23 UNK        -0.2404 
     17 C17         0.2110  -20.3463  -48.8332 C.3       23 UNK        -0.0398 
     18 CA         -0.4014  -21.5020  -48.0132 C.3       11 UNK         0.1400 
     19 N          -0.1145  -21.3876  -46.5781 N.am      11 UNK        -0.5000 
     20 C          -0.3730  -22.3468  -45.6784 C.2       10 UNK         0.5000 
     21 O          -0.8712  -23.4341  -45.9661 O.2       10 UNK        -0.5000 
     22 CA         -0.0860  -22.0214  -44.2029 C.3       10 UNK         0.1400 
     23 CB          1.4189  -22.0881  -43.9026 C.3       10 UNK        -0.1800 
     24 N          -0.6214  -20.7186  -43.8093 N.am      10 UNK        -0.5000 
     25 C          -1.9266  -20.4110  -43.7945 C.2       9 UNK         0.5000 
     26 O          -2.8201  -21.2169  -44.0557 O.2       9 UNK        -0.5000 
     27 CA         -2.2966  -18.9496  -43.4778 C.3       9 UNK         0.1400 
     28 CB         -2.3029  -18.7027  -41.9623 C.3       9 UNK        -0.1800 
     29 N          -1.4118  -17.9828  -44.1298 N.am      9 UNK        -0.5000 
     30 C          -1.2778  -17.8487  -45.4579 C.2       8 UNK         0.5000 
     31 O          -1.9138  -18.5043  -46.2812 O.2       8 UNK        -0.5000 
     32 CA         -0.2160  -16.8509  -45.9488 C.3       8 UNK         0.1400 
     33 CB         -0.7533  -15.4147  -45.8938 C.3       8 UNK        -0.1800 
     34 N           1.0237  -16.9499  -45.1796 N.am      8 UNK        -0.5000 
     35 C           1.8125  -18.0336  -45.1695 C.2       7 UNK         0.5000 
     36 O           1.5861  -19.0537  -45.8196 O.2       7 UNK        -0.5000 
     37 CA          3.0162  -17.9945  -44.2140 C.3       7 UNK         0.1400 
     38 CB          4.1694  -17.1713  -44.8067 C.3       7 UNK        -0.1800 
     39 N           2.6498  -17.4636  -42.9002 N.am      7 UNK        -0.5000 
     40 C           1.8368  -18.0916  -42.0376 C.2       6 UNK         0.5000 
     41 O           1.3430  -19.1983  -42.2486 O.2       6 UNK        -0.5000 
     42 CA          1.4880  -17.3504  -40.7340 C.3       6 UNK         0.1400 
     43 CB          2.5180  -17.6725  -39.6413 C.3       6 UNK        -0.1800 
     44 N           1.3986  -15.8994  -40.8978 N.am      6 UNK        -0.5000 
     45 C           0.5002  -15.2634  -41.6638 C.2       5 UNK         0.5000 
     46 O          -0.3677  -15.8379  -42.3218 O.2       5 UNK        -0.5000 
     47 CA          0.6301  -13.7295  -41.7388 C.3       5 UNK         0.1400 
     48 CB         -0.2014  -13.0567  -40.6378 C.3       5 UNK        -0.1800 
     49 N           2.0201  -13.2735  -41.6471 N.am      5 UNK        -0.5000 
     50 C           2.9615  -13.5348  -42.5617 C.2       4 UNK         0.5000 
     51 O           2.7227  -14.0898  -43.6365 O.2       4 UNK        -0.5000 
     52 CA          4.3953  -13.1160  -42.1921 C.3       4 UNK         0.1400 
     53 CB          5.4670  -13.8558  -43.0102 C.3       4 UNK        -0.1800 
     54 N           4.5797  -11.6736  -42.3368 N.am      4 UNK        -0.5000 
     55 C           4.2728  -10.7723  -41.3925 C.2       3 UNK         0.5000 
     56 O           3.7542  -11.0745  -40.3163 O.2       3 UNK        -0.5000 
     57 CA          4.6099   -9.2935  -41.6740 C.3       3 UNK         0.1400 
     58 CB          5.9377   -8.9121  -41.0016 C.3       3 UNK        -0.1800 
     59 N           4.6958   -8.9780  -43.1001 N.am      3 UNK        -0.5000 
     60 C           3.6370   -8.8490  -43.9081 C.2       2 UNK         0.5000 
     61 O           2.4707   -8.9340  -43.5195 O.2       2 UNK        -0.5000 
     62 CA          3.9079   -8.6257  -45.4102 C.3       2 UNK         0.1400 
     63 CB          5.3670   -8.2506  -45.7583 C.3       2 UNK        -0.1800 
     64 N           3.4585   -9.7959  -46.1664 N.am      2 UNK        -0.5000 
     65 C           3.9081  -11.0530  -46.0425 C.2       1 UNK         0.5000 
     66 O           4.9040  -11.3616  -45.3849 O.2       1 UNK        -0.5000 
     67 C          -1.9099  -21.6367  -48.3118 C.2       11 UNK         0.5000 
     68 O          -2.2706  -22.3669  -49.2335 O.2       11 UNK        -0.5000 
     69 N          -2.7590  -20.9590  -47.5260 N.am      12 UNK        -0.5000 
     70 CA         -4.2167  -21.0477  -47.6141 C.3       12 UNK         0.1400 
     71 CB         -4.8527  -19.9216  -46.7853 C.3       12 UNK        -0.1800 
     72 C          -4.7700  -22.4189  -47.1809 C.2       12 UNK         0.5000 
     73 O          -5.7987  -22.8416  -47.7067 O.2       12 UNK        -0.5000 
     74 N          -4.0957  -23.0802  -46.2302 N.am      13 UNK        -0.5000 
     75 CA         -4.4349  -24.4224  -45.7577 C.3       13 UNK         0.1400 
     76 CB         -3.8915  -24.6087  -44.3327 C.3       13 UNK        -0.1800 
     77 C          -3.8970  -25.5194  -46.6948 C.2       13 UNK         0.5000 
     78 O          -4.5965  -26.5017  -46.9489 O.2       13 UNK        -0.5000 
     79 N          -2.6654  -25.3344  -47.1870 N.am      14 UNK        -0.5000 
     80 CA         -1.9770  -26.2221  -48.1244 C.3       14 UNK         0.1400 
     81 CB         -0.5059  -25.7832  -48.2172 C.3       14 UNK        -0.1800 
     82 C          -2.6227  -26.2482  -49.5245 C.2       14 UNK         0.5000 
     83 O          -3.5014  -25.4385  -49.8251 O.2       14 UNK        -0.5000 
     84 N          -2.1578  -27.1864  -50.3635 N.am      15 UNK        -0.5000 
     85 CA         -2.5414  -27.3734  -51.7695 C.3       15 UNK         0.1400 
     86 CB         -2.0069  -26.2091  -52.6313 C.3       15 UNK        -0.1800 
     87 C          -4.0554  -27.6060  -51.9501 C.2       15 UNK         0.5000 
     88 O          -4.6815  -26.9687  -52.7973 O.2       15 UNK        -0.5000 
     89 N          -4.6144  -28.4933  -51.1121 N.am      16 UNK        -0.5000 
     90 CA         -6.0368  -28.8497  -51.0301 C.3       16 UNK         0.1400 
     91 CB         -6.4727  -29.6354  -52.2851 C.3       16 UNK        -0.1800 
     92 C          -6.9335  -27.6279  -50.7335 C.2       16 UNK         0.5000 
     93 O          -7.9536  -27.4300  -51.3955 O.2       16 UNK        -0.5000 
     94 N          -6.5060  -26.8257  -49.7469 N.am      17 UNK        -0.5000 
     95 CA         -7.0806  -25.5424  -49.3350 C.3       17 UNK         0.1400 
     96 CB         -8.4962  -25.7236  -48.7475 C.3       17 UNK        -0.1800 
     97 C          -7.0064  -24.4892  -50.4605 C.2       17 UNK         0.5000 
     98 O          -8.0187  -23.8785  -50.8107 O.2       17 UNK        -0.5000 
     99 N          -5.7938  -24.3193  -51.0068 N.am      18 UNK        -0.5000 
    100 CA        -5.4086  -23.3963  -52.0751 C.3       18 UNK         0.1400 
    101 CB        -5.4343  -21.9430  -51.5631 C.3       18 UNK        -0.1800 
    102 C         -6.2107  -23.5963  -53.3767 C.2       18 UNK         0.5000 
    103 O         -6.7434  -22.6345  -53.9348 O.2       18 UNK        -0.5000 
    104 N         -6.2826  -24.8485  -53.8473 N.am      19 UNK        -0.5000 
    105 CA        -6.9165  -25.2222  -55.1098 C.3       19 UNK         0.1400 
    106 CB        -7.0152  -26.7532  -55.2010 C.3       19 UNK        -0.1800 
    107 C         -6.1379  -24.6289  -56.2989 C.2       19 UNK         0.5000 
    108 O         -5.0175  -25.0643  -56.5722 O.2       19 UNK        -0.5000 
    109 N         -6.7374  -23.6185  -56.9451 N.am      20 UNK        -0.5000 
    110 CA        -6.1730  -22.7993  -58.0246 C.3       20 UNK         0.1400 
    111 CB        -5.9500  -23.6422  -59.2985 C.3       20 UNK        -0.1800 
    112 C         -4.9190  -22.0039  -57.5930 C.2       20 UNK         0.5000 
    113 O         -3.9960  -21.8262  -58.3906 O.2       20 UNK        -0.5000 
    114 N         -4.9122  -21.5311  -56.3408 N.am      21 UNK        -0.5000 
    115 CA        -3.8583  -20.7112  -55.7482 C.3       21 UNK         0.1400 
    116 CB        -2.9612  -21.6047  -54.8736 C.3       21 UNK        -0.1800 
    117 C         -4.4875  -19.5734  -54.9277 C.2       21 UNK         0.5000 
    118 O         -5.6927  -19.5931  -54.6643 O.2       21 UNK        -0.5000 
    119 N         -3.6619  -18.5939  -54.5440 N.am      22 UNK        -0.5000 
    120 CA        -4.0420  -17.4921  -53.6477 C.3       22 UNK         0.1400 
    121 C         -4.2665  -17.9497  -52.1769 C.2       22 UNK         0.5000 
    122 N         -5.1081  -17.2498  -51.4279 N.am      22 UNK        -0.7600 
    123 O         -3.6588  -18.9028  -51.6956 O.2       22 UNK        -0.5000 
    124 C124       -3.0519  -16.2995  -53.7448 C.3       23 UNK        -0.0398 
    125 S125       -1.2992  -16.7221  -53.4385 S.3       23 UNK        -0.2404 
    126 C126       -1.1208  -16.1960  -51.7025 C.3       23 UNK        -0.0205 
    127 H127       -0.2145  -11.2163  -44.0329 H         1 UNK         0.0600 
    128 H128       -0.4956  -12.8067  -44.7574 H         1 UNK         0.0600 
    129 H129       -1.3404  -11.3966  -45.3839 H         1 UNK         0.0600 
    130 H130        1.8644  -13.0121  -45.1617 H         1 UNK         0.3000 
    131 H131        2.7476  -11.8018  -47.6813 H         1 UNK         0.0600 
    132 H132        4.6411  -13.3603  -47.5209 H         1 UNK         0.0800 
    133 H133        4.1853  -13.8289  -45.9058 H         1 UNK         0.0800 
    134 H134        4.1587  -15.0152  -49.4116 H         1 UNK         0.0800 
    135 H135        2.8872  -13.8373  -49.6758 H         1 UNK         0.0800 
    136 H136        0.6947  -14.5318  -50.5161 H         1 UNK         0.1150 
    137 H137        0.0638  -18.6418  -51.5555 H         1 UNK         0.1150 
    138 H138        3.6390  -17.4754  -49.4974 H         1 UNK         0.1150 
    139 H139        1.8862  -20.2404  -51.2943 H         1 UNK         0.0800 
    140 H140        3.4416  -19.7117  -50.7045 H         1 UNK         0.0800 
    141 H141       -0.1583  -20.3800  -49.8597 H         1 UNK         0.0800 
    142 H142       -0.0895  -19.3785  -48.4275 H         1 UNK         0.0800 
    143 H143        0.0611  -22.4299  -48.3558 H         1 UNK         0.0600 
    144 H144        0.3330  -20.5277  -46.2721 H         1 UNK         0.3000 
    145 H145       -0.5823  -22.7809  -43.5952 H         1 UNK         0.0600 
    146 H146        1.6139  -21.9467  -42.8395 H         1 UNK         0.0600 
    147 H147        1.8296  -23.0589  -44.1823 H         1 UNK         0.0600 
    148 H148        1.9762  -21.3265  -44.4478 H         1 UNK         0.0600 
    149 H149        0.0547  -20.0156  -43.5280 H         1 UNK         0.3000 
    150 H150       -3.3069  -18.7750  -43.8532 H         1 UNK         0.0600 
    151 H151       -3.0014  -19.3742  -41.4615 H         1 UNK         0.0600 
    152 H152       -2.6072  -17.6821  -41.7292 H         1 UNK         0.0600 
    153 H153       -1.3191  -18.8673  -41.5238 H         1 UNK         0.0600 
    154 H154       -0.8771  -17.3697  -43.5226 H         1 UNK         0.3000 
    155 H155        0.0158  -17.0880  -46.9897 H         1 UNK         0.0600 
    156 H156       -1.6603  -15.3161  -46.4915 H         1 UNK         0.0600 
    157 H157       -0.0271  -14.7061  -46.2901 H         1 UNK         0.0600 
    158 H158       -0.9984  -15.1169  -44.8744 H         1 UNK         0.0600 
    159 H159        1.2755  -16.1584  -44.6051 H         1 UNK         0.3000 
    160 H160        3.3677  -19.0200  -44.0810 H         1 UNK         0.0600 
    161 H161        5.0568  -17.2245  -44.1762 H         1 UNK         0.0600 
    162 H162        3.9002  -16.1216  -44.9193 H         1 UNK         0.0600 
    163 H163        4.4474  -17.5440  -45.7934 H         1 UNK         0.0600 
    164 H164        2.9814  -16.5382  -42.6729 H         1 UNK         0.3000 
    165 H165        0.5127  -17.7090  -40.3995 H         1 UNK         0.0600 
    166 H166        2.2377  -17.2214  -38.6892 H         1 UNK         0.0600 
    167 H167        2.5916  -18.7489  -39.4799 H         1 UNK         0.0600 
    168 H168        3.5128  -17.3113  -39.9052 H         1 UNK         0.0600 
    169 H169        2.0712  -15.3442  -40.3904 H         1 UNK         0.3000 
    170 H170        0.2332  -13.4169  -42.7034 H         1 UNK         0.0600 
    171 H171       -1.2466  -13.3638  -40.6956 H         1 UNK         0.0600 
    172 H172        0.1629  -13.3142  -39.6426 H         1 UNK         0.0600 
    173 H173       -0.1767  -11.9711  -40.7345 H         1 UNK         0.0600 
    174 H174        2.2846  -12.7550  -40.8184 H         1 UNK         0.3000 
    175 H175        4.5535  -13.3963  -41.1484 H         1 UNK         0.0600 
    176 H176        5.4431  -13.5808  -44.0623 H         1 UNK         0.0600 
    177 H177        6.4659  -13.6328  -42.6354 H         1 UNK         0.0600 
    178 H178        5.3321  -14.9360  -42.9477 H         1 UNK         0.0600 
    179 H179        4.9314  -11.3547  -43.2326 H         1 UNK         0.3000 
    180 H180        3.8187   -8.6860  -41.2293 H         1 UNK         0.0600 
    181 H181        6.7741   -9.4804  -41.4104 H         1 UNK         0.0600 
    182 H182        5.9024   -9.1058  -39.9286 H         1 UNK         0.0600 
    183 H183        6.1557   -7.8518  -41.1316 H         1 UNK         0.0600 
    184 H184        5.6210   -8.9191  -43.5005 H         1 UNK         0.3000 
    185 H185        3.2723   -7.7937  -45.7167 H         1 UNK         0.0600 
    186 H186        5.6697   -7.3408  -45.2385 H         1 UNK         0.0600 
    187 H187        6.0797   -9.0329  -45.4974 H         1 UNK         0.0600 
    188 H188        5.4711   -8.0574  -46.8260 H         1 UNK         0.0600 
    189 H189        2.5698   -9.6832  -46.6428 H         1 UNK         0.3000 
    190 H190       -2.3841  -20.3059  -46.8439 H         1 UNK         0.3000 
    191 H191       -4.4986  -20.8900  -48.6558 H         1 UNK         0.0600 
    192 H192       -4.5892  -19.9993  -45.7307 H         1 UNK         0.0600 
    193 H193       -5.9407  -19.9524  -46.8551 H         1 UNK         0.0600 
    194 H194       -4.5326  -18.9419  -47.1403 H         1 UNK         0.0600 
    195 H195       -3.2825  -22.6409  -45.8170 H         1 UNK         0.3000 
    196 H196       -5.5219  -24.5203  -45.7174 H         1 UNK         0.0600 
    197 H197       -4.1463  -25.5951  -43.9433 H         1 UNK         0.0600 
    198 H198       -4.3138  -23.8696  -43.6516 H         1 UNK         0.0600 
    199 H199       -2.8059  -24.5108  -44.2973 H         1 UNK         0.0600 
    200 H200       -2.1481  -24.5106  -46.8946 H         1 UNK         0.3000 
    201 H201       -2.0158  -27.2343  -47.7173 H         1 UNK         0.0600 
    202 H202       -0.0321  -25.7798  -47.2353 H         1 UNK         0.0600 
    203 H203       -0.4170  -24.7801  -48.6353 H         1 UNK         0.0600 
    204 H204        0.0746  -26.4549  -48.8502 H         1 UNK         0.0600 
    205 H205       -1.4466  -27.8190  -50.0240 H         1 UNK         0.3000 
    206 H206       -2.0506  -28.2863  -52.1098 H         1 UNK         0.0600 
    207 H207       -0.9289  -26.0974  -52.5165 H         1 UNK         0.0600 
    208 H208       -2.2037  -26.3822  -53.6901 H         1 UNK         0.0600 
    209 H209       -2.4709  -25.2594  -52.3642 H         1 UNK         0.0600 
    210 H210       -4.0119  -28.9434  -50.4375 H         1 UNK         0.3000 
    211 H211       -6.1412  -29.5176  -50.1738 H         1 UNK         0.0600 
    212 H212       -6.4185  -29.0250  -53.1864 H         1 UNK         0.0600 
    213 H213       -7.5008  -29.9865  -52.1894 H         1 UNK         0.0600 
    214 H214       -5.8443  -30.5126  -52.4378 H         1 UNK         0.0600 
    215 H215       -5.6395  -27.0658  -49.2844 H         1 UNK         0.3000 
    216 H216       -6.4429  -25.1796  -48.5304 H         1 UNK         0.0600 
    217 H217       -8.8627  -24.7852  -48.3300 H         1 UNK         0.0600 
    218 H218       -8.4971  -26.4587  -47.9428 H         1 UNK         0.0600 
    219 H219       -9.2147  -26.0475  -49.5007 H         1 UNK         0.0600 
    220 H220       -5.0206  -24.8565  -50.6155 H         1 UNK         0.3000 
    221 H221       -4.3734  -23.6363  -52.3193 H         1 UNK         0.0600 
    222 H222       -6.4310  -21.6392  -51.2427 H         1 UNK         0.0600 
    223 H223       -4.7545  -21.8204  -50.7217 H         1 UNK         0.0600 
    224 H224       -5.1127  -21.2452  -52.3361 H         1 UNK         0.0600 
    225 H225       -5.7782  -25.5892  -53.3632 H         1 UNK         0.3000 
    226 H226       -7.9329  -24.8229  -55.1106 H         1 UNK         0.0600 
    227 H227       -7.5061  -27.0578  -56.1259 H         1 UNK         0.0600 
    228 H228       -6.0318  -27.2242  -55.1799 H         1 UNK         0.0600 
    229 H229       -7.5974  -27.1579  -54.3728 H         1 UNK         0.0600 
    230 H230       -7.6401  -23.3155  -56.6057 H         1 UNK         0.3000 
    231 H231       -6.9304  -22.0507  -58.2610 H         1 UNK         0.0600 
    232 H232       -6.8558  -24.1795  -59.5796 H         1 UNK         0.0600 
    233 H233       -5.1525  -24.3740  -59.1678 H         1 UNK         0.0600 
    234 H234       -5.6754  -23.0090  -60.1429 H         1 UNK         0.0600 
    235 H235       -5.7206  -21.6772  -55.7451 H         1 UNK         0.3000 
    236 H236       -3.2519  -20.2518  -56.5317 H         1 UNK         0.0600 
    237 H237       -2.5085  -22.4030  -55.4622 H         1 UNK         0.0600 
    238 H238       -2.1491  -21.0325  -54.4236 H         1 UNK         0.0600 
    239 H239       -3.5240  -22.0672  -54.0638 H         1 UNK         0.0600 
    240 H240       -2.6785  -18.6547  -54.7647 H         1 UNK         0.3000 
    241 H241       -5.0064  -17.1231  -54.0032 H         1 UNK         0.0600 
    242 H242       -5.2519  -17.5286  -50.4704 H         1 UNK         0.3800 
    243 H243       -5.6200  -16.4623  -51.7947 H         1 UNK         0.3800 
    244 H244       -3.1080  -15.8779  -54.7491 H         1 UNK         0.0800 
    245 H245       -3.3572  -15.4897  -53.0799 H         1 UNK         0.0800 
    246 H246       -1.3022  -15.1220  -51.6389 H         1 UNK         0.0800 
    247 H247       -1.8846  -16.6774  -51.0914 H         1 UNK         0.0800 
@<TRIPOS>BOND
     1    1    2 1    
     2    1  127 1    
     3    1  128 1    
     4    1  129 1    
     5    2    3 2    
     6    2    4 am   BACKBONE|DICT|INTERRES
     7    4    5 1    
     8    4  130 1    
     9    5    6 1    
    10    5   65 1    
    11    5  131 1    
    12    6    7 1    
    13    6  132 1    
    14    6  133 1    
    15    7    8 1    
    16    8    9 1    
    17    8  134 1    
    18    8  135 1    
    19    9   10 ar   
    20    9   14 ar   
    21   10   11 ar   
    22   10  136 1    
    23   11   12 ar   
    24   11  126 1    
    25   12   13 ar   
    26   12  137 1    
    27   13   14 ar   
    28   13   15 1    
    29   14  138 1    
    30   15   16 1    
    31   15  139 1    
    32   15  140 1    
    33   16   17 1    
    34   17   18 1    
    35   17  141 1    
    36   17  142 1    
    37   18   19 1    
    38   18   67 1    
    39   18  143 1    
    40   19   20 am   BACKBONE|DICT|INTERRES
    41   19  144 1    
    42   20   21 2    
    43   20   22 1    
    44   22   23 1    
    45   22   24 1    
    46   22  145 1    
    47   23  146 1    
    48   23  147 1    
    49   23  148 1    
    50   24   25 am   BACKBONE|DICT|INTERRES
    51   24  149 1    
    52   25   26 2    
    53   25   27 1    
    54   27   28 1    
    55   27   29 1    
    56   27  150 1    
    57   28  151 1    
    58   28  152 1    
    59   28  153 1    
    60   29   30 am   BACKBONE|DICT|INTERRES
    61   29  154 1    
    62   30   31 2    
    63   30   32 1    
    64   32   33 1    
    65   32   34 1    
    66   32  155 1    
    67   33  156 1    
    68   33  157 1    
    69   33  158 1    
    70   34   35 am   BACKBONE|DICT|INTERRES
    71   34  159 1    
    72   35   36 2    
    73   35   37 1    
    74   37   38 1    
    75   37   39 1    
    76   37  160 1    
    77   38  161 1    
    78   38  162 1    
    79   38  163 1    
    80   39   40 am   BACKBONE|DICT|INTERRES
    81   39  164 1    
    82   40   41 2    
    83   40   42 1    
    84   42   43 1    
    85   42   44 1    
    86   42  165 1    
    87   43  166 1    
    88   43  167 1    
    89   43  168 1    
    90   44   45 am   BACKBONE|DICT|INTERRES
    91   44  169 1    
    92   45   46 2    
    93   45   47 1    
    94   47   48 1    
    95   47   49 1    
    96   47  170 1    
    97   48  171 1    
    98   48  172 1    
    99   48  173 1    
   100   49   50 am   BACKBONE|DICT|INTERRES
   101   49  174 1    
   102   50   51 2    
   103   50   52 1    
   104   52   53 1    
   105   52   54 1    
   106   52  175 1    
   107   53  176 1    
   108   53  177 1    
   109   53  178 1    
   110   54   55 am   BACKBONE|DICT|INTERRES
   111   54  179 1    
   112   55   56 2    
   113   55   57 1    
   114   57   58 1    
   115   57   59 1    
   116   57  180 1    
   117   58  181 1    
   118   58  182 1    
   119   58  183 1    
   120   59   60 am   BACKBONE|DICT|INTERRES
   121   59  184 1    
   122   60   61 2    
   123   60   62 1    
   124   62   63 1    
   125   62   64 1    
   126   62  185 1    
   127   63  186 1    
   128   63  187 1    
   129   63  188 1    
   130   64   65 am   BACKBONE|DICT|INTERRES
   131   64  189 1    
   132   65   66 2    
   133   67   68 2    
   134   67   69 am   BACKBONE|DICT|INTERRES
   135   69   70 1    
   136   69  190 1    
   137   70   71 1    
   138   70   72 1    
   139   70  191 1    
   140   71  192 1    
   141   71  193 1    
   142   71  194 1    
   143   72   73 2    
   144   72   74 am   BACKBONE|DICT|INTERRES
   145   74   75 1    
   146   74  195 1    
   147   75   76 1    
   148   75   77 1    
   149   75  196 1    
   150   76  197 1    
   151   76  198 1    
   152   76  199 1    
   153   77   78 2    
   154   77   79 am   BACKBONE|DICT|INTERRES
   155   79   80 1    
   156   79  200 1    
   157   80   81 1    
   158   80   82 1    
   159   80  201 1    
   160   81  202 1    
   161   81  203 1    
   162   81  204 1    
   163   82   83 2    
   164   82   84 am   BACKBONE|DICT|INTERRES
   165   84   85 1    
   166   84  205 1    
   167   85   86 1    
   168   85   87 1    
   169   85  206 1    
   170   86  207 1    
   171   86  208 1    
   172   86  209 1    
   173   87   88 2    
   174   87   89 am   BACKBONE|DICT|INTERRES
   175   89   90 1    
   176   89  210 1    
   177   90   91 1    
   178   90   92 1    
   179   90  211 1    
   180   91  212 1    
   181   91  213 1    
   182   91  214 1    
   183   92   93 2    
   184   92   94 am   BACKBONE|DICT|INTERRES
   185   94   95 1    
   186   94  215 1    
   187   95   96 1    
   188   95   97 1    
   189   95  216 1    
   190   96  217 1    
   191   96  218 1    
   192   96  219 1    
   193   97   98 2    
   194   97   99 am   BACKBONE|DICT|INTERRES
   195   99  100 1    
   196   99  220 1    
   197  100  101 1    
   198  100  102 1    
   199  100  221 1    
   200  101  222 1    
   201  101  223 1    
   202  101  224 1    
   203  102  103 2    
   204  102  104 am   BACKBONE|DICT|INTERRES
   205  104  105 1    
   206  104  225 1    
   207  105  106 1    
   208  105  107 1    
   209  105  226 1    
   210  106  227 1    
   211  106  228 1    
   212  106  229 1    
   213  107  108 2    
   214  107  109 am   BACKBONE|DICT|INTERRES
   215  109  110 1    
   216  109  230 1    
   217  110  111 1    
   218  110  112 1    
   219  110  231 1    
   220  111  232 1    
   221  111  233 1    
   222  111  234 1    
   223  112  113 2    
   224  112  114 am   BACKBONE|DICT|INTERRES
   225  114  115 1    
   226  114  235 1    
   227  115  116 1    
   228  115  117 1    
   229  115  236 1    
   230  116  237 1    
   231  116  238 1    
   232  116  239 1    
   233  117  118 2    
   234  117  119 am   BACKBONE|DICT|INTERRES
   235  119  120 1    
   236  119  240 1    
   237  120  121 1    
   238  120  124 1    
   239  120  241 1    
   240  121  122 am   BACKBONE|DICT|INTERRES
   241  121  123 2    
   242  122  242 1    
   243  122  243 1    
   244  124  125 1    
   245  124  244 1    
   246  124  245 1    
   247  125  126 1    
   248  126  246 1    
   249  126  247 1    
@<TRIPOS>SUBSTRUCTURE
     1 UNK         1 GROUP             0       ****    0 ROOT    
