@<TRIPOS>MOLECULE
3R540
247   249    1
SMALL
USER_CHARGES


@<TRIPOS>ATOM
      1 CA          4.2913  -12.3332  -48.7081 C.3       0 UNK        -0.1800 
      2 C           3.5155  -13.6009  -48.3834 C.2       0 UNK         0.5000 
      3 O           3.0093  -13.7353  -47.2677 O.2       0 UNK        -0.5000 
      4 N           3.4394  -14.5348  -49.3429 N.am      1 UNK        -0.5000 
      5 CA          2.7421  -15.8325  -49.3046 C.3       1 UNK         0.1400 
      6 C6          1.2047  -15.7100  -49.1126 C.3       23 UNK        -0.0398 
      7 S7          0.4373  -14.9452  -50.5874 S.3       23 UNK        -0.2404 
      8 C8         -1.3287  -15.3915  -50.4228 C.3       23 UNK        -0.0205 
      9 C9         -1.6880  -16.8721  -50.5752 C.ar      23 UNK        -0.0193 
     10 C10        -3.0221  -17.2469  -50.3836 C.ar      23 UNK        -0.1150 
     11 C11        -3.4038  -18.5909  -50.4179 C.ar      23 UNK        -0.0193 
     12 C12        -2.4347  -19.5709  -50.6388 C.ar      23 UNK        -0.1150 
     13 C13        -1.1044  -19.2168  -50.8642 C.ar      23 UNK        -0.0193 
     14 C14        -0.7435  -17.8667  -50.8608 C.ar      23 UNK        -0.1150 
     15 C15        -0.0525  -20.3005  -51.0526 C.3       23 UNK        -0.0205 
     16 S16         1.3587  -20.1375  -49.9034 S.3       23 UNK        -0.2404 
     17 C17         0.5538  -19.8214  -48.2908 C.3       23 UNK        -0.0398 
     18 CA          0.4999  -21.0467  -47.3578 C.3       11 UNK         0.1400 
     19 N           0.1589  -20.6453  -45.9915 N.am      11 UNK        -0.5000 
     20 C           0.2487  -21.4379  -44.9163 C.2       10 UNK         0.5000 
     21 O           0.6553  -22.5978  -44.9598 O.2       10 UNK        -0.5000 
     22 CA         -0.2598  -20.8615  -43.5827 C.3       10 UNK         0.1400 
     23 CB          0.7473  -19.8709  -42.9805 C.3       10 UNK        -0.1800 
     24 N          -1.5615  -20.2112  -43.7240 N.am      10 UNK        -0.5000 
     25 C          -2.6897  -20.8383  -44.0851 C.2       9 UNK         0.5000 
     26 O          -2.7681  -22.0509  -44.2804 O.2       9 UNK        -0.5000 
     27 CA         -3.9277  -19.9527  -44.3047 C.3       9 UNK         0.1400 
     28 CB         -4.6332  -19.6592  -42.9724 C.3       9 UNK        -0.1800 
     29 N          -3.5926  -18.6953  -44.9746 N.am      9 UNK        -0.5000 
     30 C          -3.2049  -18.6034  -46.2545 C.2       8 UNK         0.5000 
     31 O          -3.0979  -19.5697  -47.0062 O.2       8 UNK        -0.5000 
     32 CA         -2.8299  -17.2017  -46.7659 C.3       8 UNK         0.1400 
     33 CB         -4.0867  -16.3918  -47.1170 C.3       8 UNK        -0.1800 
     34 N          -2.0185  -16.4532  -45.8072 N.am      8 UNK        -0.5000 
     35 C          -0.7789  -16.8062  -45.4446 C.2       7 UNK         0.5000 
     36 O          -0.1812  -17.7767  -45.9069 O.2       7 UNK        -0.5000 
     37 CA         -0.1041  -15.9566  -44.3547 C.3       7 UNK         0.1400 
     38 CB          0.6034  -14.7523  -44.9892 C.3       7 UNK        -0.1800 
     39 N          -1.0002  -15.4975  -43.2884 N.am      7 UNK        -0.5000 
     40 C          -1.7753  -16.2844  -42.5275 C.2       6 UNK         0.5000 
     41 O          -1.8644  -17.5037  -42.6774 O.2       6 UNK        -0.5000 
     42 CA         -2.5190  -15.5854  -41.3792 C.3       6 UNK         0.1400 
     43 CB         -3.4683  -16.5218  -40.6102 C.3       6 UNK        -0.1800 
     44 N          -1.5124  -15.0575  -40.4666 N.am      6 UNK        -0.5000 
     45 C          -1.4631  -13.8110  -39.9832 C.2       5 UNK         0.5000 
     46 O          -2.3468  -12.9709  -40.1554 O.2       5 UNK        -0.5000 
     47 CA         -0.1891  -13.4297  -39.1979 C.3       5 UNK         0.1400 
     48 CB         -0.4223  -13.5849  -37.6873 C.3       5 UNK        -0.1800 
     49 N           0.9938  -14.2112  -39.5835 N.am      5 UNK        -0.5000 
     50 C           1.5615  -14.1848  -40.7975 C.2       4 UNK         0.5000 
     51 O           1.1668  -13.4598  -41.7140 O.2       4 UNK        -0.5000 
     52 CA          2.7195  -15.1753  -41.0294 C.3       4 UNK         0.1400 
     53 CB          2.2116  -16.6283  -40.9966 C.3       4 UNK        -0.1800 
     54 N           3.3700  -14.9443  -42.3179 N.am      4 UNK        -0.5000 
     55 C           4.2866  -14.0005  -42.5649 C.2       3 UNK         0.5000 
     56 O           4.7388  -13.2556  -41.6932 O.2       3 UNK        -0.5000 
     57 CA          4.7647  -13.8412  -44.0280 C.3       3 UNK         0.1400 
     58 CB          6.2831  -13.5851  -44.1235 C.3       3 UNK        -0.1800 
     59 N           4.3602  -14.9206  -44.9429 N.am      3 UNK        -0.5000 
     60 C           4.7205  -16.2166  -44.8935 C.2       2 UNK         0.5000 
     61 O           5.4517  -16.6829  -44.0202 O.2       2 UNK        -0.5000 
     62 CA          4.1737  -17.1651  -45.9791 C.3       2 UNK         0.1400 
     63 CB          3.2461  -18.2334  -45.3745 C.3       2 UNK        -0.1800 
     64 N           3.4755  -16.4482  -47.0453 N.am      2 UNK        -0.5000 
     65 C           3.3932  -16.8300  -48.3209 C.2       1 UNK         0.5000 
     66 O           3.8464  -17.8934  -48.7434 O.2       1 UNK        -0.5000 
     67 C          -0.4415  -22.1487  -47.8921 C.2       11 UNK         0.5000 
     68 O           0.0350  -23.0960  -48.5189 O.2       11 UNK        -0.5000 
     69 N          -1.7461  -22.0534  -47.5961 N.am      12 UNK        -0.5000 
     70 CA         -2.7423  -23.0731  -47.9367 C.3       12 UNK         0.1400 
     71 CB         -4.1535  -22.5474  -47.6405 C.3       12 UNK        -0.1800 
     72 C          -2.5090  -24.4268  -47.2342 C.2       12 UNK         0.5000 
     73 O          -2.9024  -25.4588  -47.7765 O.2       12 UNK        -0.5000 
     74 N          -1.8657  -24.4107  -46.0605 N.am      13 UNK        -0.5000 
     75 CA         -1.4288  -25.6108  -45.3533 C.3       13 UNK         0.1400 
     76 CB         -1.3448  -25.3163  -43.8470 C.3       13 UNK        -0.1800 
     77 C          -0.0829  -26.1289  -45.8930 C.2       13 UNK         0.5000 
     78 O           0.0442  -27.3255  -46.1546 O.2       13 UNK        -0.5000 
     79 N           0.9017  -25.2289  -46.0231 N.am      14 UNK        -0.5000 
     80 CA          2.2865  -25.5570  -46.3612 C.3       14 UNK         0.1400 
     81 CB          3.1977  -24.3836  -45.9658 C.3       14 UNK        -0.1800 
     82 C           2.4965  -25.9291  -47.8390 C.2       14 UNK         0.5000 
     83 O           3.1049  -26.9626  -48.1209 O.2       14 UNK        -0.5000 
     84 N           2.0223  -25.0711  -48.7494 N.am      15 UNK        -0.5000 
     85 CA          2.2047  -25.2087  -50.1950 C.3       15 UNK         0.1400 
     86 CB          2.5583  -23.8368  -50.7921 C.3       15 UNK        -0.1800 
     87 C           0.9465  -25.7714  -50.8706 C.2       15 UNK         0.5000 
     88 O           1.0682  -26.5546  -51.8128 O.2       15 UNK        -0.5000 
     89 N          -0.2317  -25.3574  -50.3797 N.am      16 UNK        -0.5000 
     90 CA         -1.5690  -25.7464  -50.8464 C.3       16 UNK         0.1400 
     91 CB         -1.8210  -27.2502  -50.6102 C.3       16 UNK        -0.1800 
     92 C          -1.8965  -25.2965  -52.2863 C.2       16 UNK         0.5000 
     93 O          -2.7659  -25.8855  -52.9313 O.2       16 UNK        -0.5000 
     94 N          -1.2168  -24.2446  -52.7599 N.am      17 UNK        -0.5000 
     95 CA         -1.4892  -23.5925  -54.0372 C.3       17 UNK         0.1400 
     96 CB         -0.2527  -22.7843  -54.4596 C.3       17 UNK        -0.1800 
     97 C          -2.7167  -22.6746  -53.9170 C.2       17 UNK         0.5000 
     98 O          -2.8366  -21.9474  -52.9297 O.2       17 UNK        -0.5000 
     99 N          -3.5793  -22.6849  -54.9390 N.am      18 UNK        -0.5000 
    100 CA        -4.7641  -21.8309  -55.0549 C.3       18 UNK         0.1400 
    101 CB        -5.7905  -22.5427  -55.9550 C.3       18 UNK        -0.1800 
    102 C         -4.3801  -20.4317  -55.5809 C.2       18 UNK         0.5000 
    103 O         -4.8013  -20.0359  -56.6692 O.2       18 UNK        -0.5000 
    104 N         -3.5293  -19.7316  -54.8223 N.am      19 UNK        -0.5000 
    105 CA        -2.9205  -18.4580  -55.2102 C.3       19 UNK         0.1400 
    106 CB        -1.6273  -18.2731  -54.4061 C.3       19 UNK        -0.1800 
    107 C         -3.8449  -17.2398  -55.0220 C.2       19 UNK         0.5000 
    108 O         -3.5644  -16.1834  -55.5908 O.2       19 UNK        -0.5000 
    109 N         -4.9111  -17.3930  -54.2298 N.am      20 UNK        -0.5000 
    110 CA        -5.8856  -16.3510  -53.9187 C.3       20 UNK         0.1400 
    111 CB        -5.4655  -15.6346  -52.6183 C.3       20 UNK        -0.1800 
    112 C         -7.2928  -16.9714  -53.8606 C.2       20 UNK         0.5000 
    113 O         -7.5717  -17.9231  -54.5945 O.2       20 UNK        -0.5000 
    114 N         -8.1523  -16.4509  -52.9715 N.am      21 UNK        -0.5000 
    115 CA        -9.5310  -16.9010  -52.7288 C.3       21 UNK         0.1400 
    116 CB       -10.1804  -15.9664  -51.6964 C.3       21 UNK        -0.1800 
    117 C         -9.6573  -18.3733  -52.2795 C.2       21 UNK         0.5000 
    118 O        -10.7378  -18.9538  -52.3915 O.2       21 UNK        -0.5000 
    119 N         -8.5457  -18.9518  -51.8115 N.am      22 UNK        -0.5000 
    120 CA        -8.3443  -20.3898  -51.5955 C.3       22 UNK         0.1400 
    121 C         -8.4038  -21.2674  -52.8842 C.2       22 UNK         0.5000 
    122 N         -8.2966  -20.7080  -54.0844 N.am      22 UNK        -0.7600 
    123 O         -8.5660  -22.4807  -52.7898 O.2       22 UNK        -0.5000 
    124 C124       -7.0418  -20.6504  -50.7966 C.3       23 UNK        -0.0398 
    125 S125       -5.5507  -19.9154  -51.5652 S.3       23 UNK        -0.2404 
    126 C126       -4.8455  -18.9994  -50.1590 C.3       23 UNK        -0.0205 
    127 H127        5.1201  -12.2133  -48.0104 H         1 UNK         0.0600 
    128 H128        3.6401  -11.4639  -48.6185 H         1 UNK         0.0600 
    129 H129        4.6968  -12.3526  -49.7199 H         1 UNK         0.0600 
    130 H130        3.9073  -14.3479  -50.2188 H         1 UNK         0.3000 
    131 H131        2.9036  -16.2686  -50.2923 H         1 UNK         0.0600 
    132 H132        0.9565  -15.1120  -48.2357 H         1 UNK         0.0800 
    133 H133        0.7586  -16.6894  -48.9382 H         1 UNK         0.0800 
    134 H134       -1.8864  -14.8281  -51.1722 H         1 UNK         0.0800 
    135 H135       -1.6797  -15.0417  -49.4507 H         1 UNK         0.0800 
    136 H136       -3.7606  -16.4868  -50.1733 H         1 UNK         0.1150 
    137 H137       -2.7222  -20.6131  -50.6299 H         1 UNK         0.1150 
    138 H138        0.2903  -17.6138  -51.0388 H         1 UNK         0.1150 
    139 H139       -0.4929  -21.2911  -50.9275 H         1 UNK         0.0800 
    140 H140        0.3192  -20.2543  -52.0764 H         1 UNK         0.0800 
    141 H141       -0.4395  -19.3877  -48.4015 H         1 UNK         0.0800 
    142 H142        1.1500  -19.0414  -47.8170 H         1 UNK         0.0800 
    143 H143        1.5038  -21.4750  -47.3180 H         1 UNK         0.0600 
    144 H144       -0.1580  -19.6867  -45.8720 H         1 UNK         0.3000 
    145 H145       -0.3750  -21.6940  -42.8855 H         1 UNK         0.0600 
    146 H146        1.7338  -20.3248  -42.8793 H         1 UNK         0.0600 
    147 H147        0.8542  -18.9832  -43.6013 H         1 UNK         0.0600 
    148 H148        0.4332  -19.5449  -41.9888 H         1 UNK         0.0600 
    149 H149       -1.6038  -19.2144  -43.5303 H         1 UNK         0.3000 
    150 H150       -4.6246  -20.5006  -44.9421 H         1 UNK         0.0600 
    151 H151       -4.9559  -20.5843  -42.4933 H         1 UNK         0.0600 
    152 H152       -5.5202  -19.0431  -43.1206 H         1 UNK         0.0600 
    153 H153       -3.9767  -19.1426  -42.2722 H         1 UNK         0.0600 
    154 H154       -3.5772  -17.8660  -44.3996 H         1 UNK         0.3000 
    155 H155       -2.2384  -17.3330  -47.6738 H         1 UNK         0.0600 
    156 H156       -4.7240  -16.9401  -47.8114 H         1 UNK         0.0600 
    157 H157       -3.8248  -15.4470  -47.5937 H         1 UNK         0.0600 
    158 H158       -4.6844  -16.1686  -46.2326 H         1 UNK         0.0600 
    159 H159       -2.4389  -15.6431  -45.3765 H         1 UNK         0.3000 
    160 H160        0.6542  -16.5829  -43.8865 H         1 UNK         0.0600 
    161 H161       -0.1070  -14.0494  -45.4257 H         1 UNK         0.0600 
    162 H162        1.2726  -15.0764  -45.7844 H         1 UNK         0.0600 
    163 H163        1.2068  -14.2107  -44.2622 H         1 UNK         0.0600 
    164 H164       -0.9519  -14.5133  -43.0627 H         1 UNK         0.3000 
    165 H165       -3.1076  -14.7769  -41.8177 H         1 UNK         0.0600 
    166 H166       -3.9683  -15.9927  -39.7989 H         1 UNK         0.0600 
    167 H167       -4.2444  -16.9145  -41.2676 H         1 UNK         0.0600 
    168 H168       -2.9378  -17.3712  -40.1778 H         1 UNK         0.0600 
    169 H169       -0.7294  -15.6674  -40.2813 H         1 UNK         0.3000 
    170 H170        0.0209  -12.3785  -39.4060 H         1 UNK         0.0600 
    171 H171       -1.2796  -12.9942  -37.3617 H         1 UNK         0.0600 
    172 H172       -0.6165  -14.6229  -37.4143 H         1 UNK         0.0600 
    173 H173        0.4413  -13.2424  -37.1170 H         1 UNK         0.0600 
    174 H174        1.3726  -14.8266  -38.8778 H         1 UNK         0.3000 
    175 H175        3.4524  -15.0422  -40.2309 H         1 UNK         0.0600 
    176 H176        1.8287  -16.8914  -40.0101 H         1 UNK         0.0600 
    177 H177        1.4076  -16.7963  -41.7122 H         1 UNK         0.0600 
    178 H178        3.0131  -17.3316  -41.2249 H         1 UNK         0.0600 
    179 H179        3.0412  -15.4926  -43.0961 H         1 UNK         0.3000 
    180 H180        4.2634  -12.9460  -44.3990 H         1 UNK         0.0600 
    181 H181        6.8610  -14.4110  -43.7081 H         1 UNK         0.0600 
    182 H182        6.5648  -12.6842  -43.5773 H         1 UNK         0.0600 
    183 H183        6.5942  -13.4439  -45.1586 H         1 UNK         0.0600 
    184 H184        3.7837  -14.5960  -45.7105 H         1 UNK         0.3000 
    185 H185        5.0445  -17.6667  -46.4064 H         1 UNK         0.0600 
    186 H186        2.3482  -17.7819  -44.9592 H         1 UNK         0.0600 
    187 H187        2.9383  -18.9638  -46.1225 H         1 UNK         0.0600 
    188 H188        3.7409  -18.7823  -44.5725 H         1 UNK         0.0600 
    189 H189        3.1354  -15.5149  -46.8396 H         1 UNK         0.3000 
    190 H190       -2.0961  -21.2169  -47.1370 H         1 UNK         0.3000 
    191 H191       -2.6741  -23.2444  -49.0121 H         1 UNK         0.0600 
    192 H192       -4.2776  -22.3013  -46.5863 H         1 UNK         0.0600 
    193 H193       -4.9104  -23.2897  -47.8966 H         1 UNK         0.0600 
    194 H194       -4.3692  -21.6538  -48.2241 H         1 UNK         0.0600 
    195 H195       -1.6238  -23.5183  -45.6487 H         1 UNK         0.3000 
    196 H196       -2.1717  -26.3994  -45.4919 H         1 UNK         0.0600 
    197 H197       -1.0408  -26.2050  -43.2926 H         1 UNK         0.0600 
    198 H198       -2.3123  -25.0023  -43.4548 H         1 UNK         0.0600 
    199 H199       -0.6257  -24.5283  -43.6234 H         1 UNK         0.0600 
    200 H200        0.7233  -24.2655  -45.7484 H         1 UNK         0.3000 
    201 H201        2.5829  -26.4197  -45.7606 H         1 UNK         0.0600 
    202 H202        3.1317  -24.1775  -44.8973 H         1 UNK         0.0600 
    203 H203        2.9330  -23.4690  -46.4976 H         1 UNK         0.0600 
    204 H204        4.2418  -24.6048  -46.1904 H         1 UNK         0.0600 
    205 H205        1.4665  -24.2776  -48.4422 H         1 UNK         0.3000 
    206 H206        3.0323  -25.8883  -50.4089 H         1 UNK         0.0600 
    207 H207        3.4660  -23.4338  -50.3428 H         1 UNK         0.0600 
    208 H208        2.7319  -23.9114  -51.8663 H         1 UNK         0.0600 
    209 H209        1.7605  -23.1097  -50.6398 H         1 UNK         0.0600 
    210 H210       -0.2090  -24.6755  -49.6270 H         1 UNK         0.3000 
    211 H211       -2.2746  -25.1997  -50.2258 H         1 UNK         0.0600 
    212 H212       -1.2077  -27.8735  -51.2611 H         1 UNK         0.0600 
    213 H213       -2.8638  -27.5071  -50.7995 H         1 UNK         0.0600 
    214 H214       -1.6052  -27.5256  -49.5776 H         1 UNK         0.0600 
    215 H215       -0.5486  -23.7943  -52.1540 H         1 UNK         0.3000 
    216 H216       -1.6793  -24.3560  -54.7948 H         1 UNK         0.0600 
    217 H217       -0.4153  -22.2964  -55.4216 H         1 UNK         0.0600 
    218 H218        0.6217  -23.4269  -54.5640 H         1 UNK         0.0600 
    219 H219       -0.0121  -22.0061  -53.7350 H         1 UNK         0.0600 
    220 H220       -3.3899  -23.2843  -55.7292 H         1 UNK         0.3000 
    221 H221       -5.2180  -21.7002  -54.0702 H         1 UNK         0.0600 
    222 H222       -5.3816  -22.7570  -56.9431 H         1 UNK         0.0600 
    223 H223       -6.1128  -23.4855  -55.5126 H         1 UNK         0.0600 
    224 H224       -6.6811  -21.9308  -56.0970 H         1 UNK         0.0600 
    225 H225       -3.2240  -20.1431  -53.9461 H         1 UNK         0.3000 
    226 H226       -2.6549  -18.5079  -56.2683 H         1 UNK         0.0600 
    227 H227       -0.9538  -19.1219  -54.5270 H         1 UNK         0.0600 
    228 H228       -1.0897  -17.3789  -54.7238 H         1 UNK         0.0600 
    229 H229       -1.8463  -18.1628  -53.3461 H         1 UNK         0.0600 
    230 H230       -5.0992  -18.3080  -53.8437 H         1 UNK         0.3000 
    231 H231       -5.9106  -15.6182  -54.7276 H         1 UNK         0.0600 
    232 H232       -4.4311  -15.2941  -52.6729 H         1 UNK         0.0600 
    233 H233       -5.5510  -16.2936  -51.7542 H         1 UNK         0.0600 
    234 H234       -6.0786  -14.7525  -52.4312 H         1 UNK         0.0600 
    235 H235       -7.8370  -15.6767  -52.4050 H         1 UNK         0.3000 
    236 H236      -10.0771  -16.8062  -53.6694 H         1 UNK         0.0600 
    237 H237      -11.2183  -16.2469  -51.5119 H         1 UNK         0.0600 
    238 H238       -9.6568  -15.9989  -50.7402 H         1 UNK         0.0600 
    239 H239      -10.1830  -14.9333  -52.0445 H         1 UNK         0.0600 
    240 H240       -7.7098  -18.3901  -51.7636 H         1 UNK         0.3000 
    241 H241       -9.1754  -20.7300  -50.9751 H         1 UNK         0.0600 
    242 H242       -8.3720  -21.2883  -54.9029 H         1 UNK         0.3800 
    243 H243       -8.1329  -19.7108  -54.1904 H         1 UNK         0.3800 
    244 H244       -7.1614  -20.2492  -49.7895 H         1 UNK         0.0800 
    245 H245       -6.8728  -21.7204  -50.6627 H         1 UNK         0.0800 
    246 H246       -4.8693  -19.6205  -49.2636 H         1 UNK         0.0800 
    247 H247       -5.4695  -18.1294  -49.9515 H         1 UNK         0.0800 
@<TRIPOS>BOND
     1    1    2 1    
     2    1  127 1    
     3    1  128 1    
     4    1  129 1    
     5    2    3 2    
     6    2    4 am   BACKBONE|DICT|INTERRES
     7    4    5 1    
     8    4  130 1    
     9    5    6 1    
    10    5   65 1    
    11    5  131 1    
    12    6    7 1    
    13    6  132 1    
    14    6  133 1    
    15    7    8 1    
    16    8    9 1    
    17    8  134 1    
    18    8  135 1    
    19    9   10 ar   
    20    9   14 ar   
    21   10   11 ar   
    22   10  136 1    
    23   11   12 ar   
    24   11  126 1    
    25   12   13 ar   
    26   12  137 1    
    27   13   14 ar   
    28   13   15 1    
    29   14  138 1    
    30   15   16 1    
    31   15  139 1    
    32   15  140 1    
    33   16   17 1    
    34   17   18 1    
    35   17  141 1    
    36   17  142 1    
    37   18   19 1    
    38   18   67 1    
    39   18  143 1    
    40   19   20 am   BACKBONE|DICT|INTERRES
    41   19  144 1    
    42   20   21 2    
    43   20   22 1    
    44   22   23 1    
    45   22   24 1    
    46   22  145 1    
    47   23  146 1    
    48   23  147 1    
    49   23  148 1    
    50   24   25 am   BACKBONE|DICT|INTERRES
    51   24  149 1    
    52   25   26 2    
    53   25   27 1    
    54   27   28 1    
    55   27   29 1    
    56   27  150 1    
    57   28  151 1    
    58   28  152 1    
    59   28  153 1    
    60   29   30 am   BACKBONE|DICT|INTERRES
    61   29  154 1    
    62   30   31 2    
    63   30   32 1    
    64   32   33 1    
    65   32   34 1    
    66   32  155 1    
    67   33  156 1    
    68   33  157 1    
    69   33  158 1    
    70   34   35 am   BACKBONE|DICT|INTERRES
    71   34  159 1    
    72   35   36 2    
    73   35   37 1    
    74   37   38 1    
    75   37   39 1    
    76   37  160 1    
    77   38  161 1    
    78   38  162 1    
    79   38  163 1    
    80   39   40 am   BACKBONE|DICT|INTERRES
    81   39  164 1    
    82   40   41 2    
    83   40   42 1    
    84   42   43 1    
    85   42   44 1    
    86   42  165 1    
    87   43  166 1    
    88   43  167 1    
    89   43  168 1    
    90   44   45 am   BACKBONE|DICT|INTERRES
    91   44  169 1    
    92   45   46 2    
    93   45   47 1    
    94   47   48 1    
    95   47   49 1    
    96   47  170 1    
    97   48  171 1    
    98   48  172 1    
    99   48  173 1    
   100   49   50 am   BACKBONE|DICT|INTERRES
   101   49  174 1    
   102   50   51 2    
   103   50   52 1    
   104   52   53 1    
   105   52   54 1    
   106   52  175 1    
   107   53  176 1    
   108   53  177 1    
   109   53  178 1    
   110   54   55 am   BACKBONE|DICT|INTERRES
   111   54  179 1    
   112   55   56 2    
   113   55   57 1    
   114   57   58 1    
   115   57   59 1    
   116   57  180 1    
   117   58  181 1    
   118   58  182 1    
   119   58  183 1    
   120   59   60 am   BACKBONE|DICT|INTERRES
   121   59  184 1    
   122   60   61 2    
   123   60   62 1    
   124   62   63 1    
   125   62   64 1    
   126   62  185 1    
   127   63  186 1    
   128   63  187 1    
   129   63  188 1    
   130   64   65 am   BACKBONE|DICT|INTERRES
   131   64  189 1    
   132   65   66 2    
   133   67   68 2    
   134   67   69 am   BACKBONE|DICT|INTERRES
   135   69   70 1    
   136   69  190 1    
   137   70   71 1    
   138   70   72 1    
   139   70  191 1    
   140   71  192 1    
   141   71  193 1    
   142   71  194 1    
   143   72   73 2    
   144   72   74 am   BACKBONE|DICT|INTERRES
   145   74   75 1    
   146   74  195 1    
   147   75   76 1    
   148   75   77 1    
   149   75  196 1    
   150   76  197 1    
   151   76  198 1    
   152   76  199 1    
   153   77   78 2    
   154   77   79 am   BACKBONE|DICT|INTERRES
   155   79   80 1    
   156   79  200 1    
   157   80   81 1    
   158   80   82 1    
   159   80  201 1    
   160   81  202 1    
   161   81  203 1    
   162   81  204 1    
   163   82   83 2    
   164   82   84 am   BACKBONE|DICT|INTERRES
   165   84   85 1    
   166   84  205 1    
   167   85   86 1    
   168   85   87 1    
   169   85  206 1    
   170   86  207 1    
   171   86  208 1    
   172   86  209 1    
   173   87   88 2    
   174   87   89 am   BACKBONE|DICT|INTERRES
   175   89   90 1    
   176   89  210 1    
   177   90   91 1    
   178   90   92 1    
   179   90  211 1    
   180   91  212 1    
   181   91  213 1    
   182   91  214 1    
   183   92   93 2    
   184   92   94 am   BACKBONE|DICT|INTERRES
   185   94   95 1    
   186   94  215 1    
   187   95   96 1    
   188   95   97 1    
   189   95  216 1    
   190   96  217 1    
   191   96  218 1    
   192   96  219 1    
   193   97   98 2    
   194   97   99 am   BACKBONE|DICT|INTERRES
   195   99  100 1    
   196   99  220 1    
   197  100  101 1    
   198  100  102 1    
   199  100  221 1    
   200  101  222 1    
   201  101  223 1    
   202  101  224 1    
   203  102  103 2    
   204  102  104 am   BACKBONE|DICT|INTERRES
   205  104  105 1    
   206  104  225 1    
   207  105  106 1    
   208  105  107 1    
   209  105  226 1    
   210  106  227 1    
   211  106  228 1    
   212  106  229 1    
   213  107  108 2    
   214  107  109 am   BACKBONE|DICT|INTERRES
   215  109  110 1    
   216  109  230 1    
   217  110  111 1    
   218  110  112 1    
   219  110  231 1    
   220  111  232 1    
   221  111  233 1    
   222  111  234 1    
   223  112  113 2    
   224  112  114 am   BACKBONE|DICT|INTERRES
   225  114  115 1    
   226  114  235 1    
   227  115  116 1    
   228  115  117 1    
   229  115  236 1    
   230  116  237 1    
   231  116  238 1    
   232  116  239 1    
   233  117  118 2    
   234  117  119 am   BACKBONE|DICT|INTERRES
   235  119  120 1    
   236  119  240 1    
   237  120  121 1    
   238  120  124 1    
   239  120  241 1    
   240  121  122 am   BACKBONE|DICT|INTERRES
   241  121  123 2    
   242  122  242 1    
   243  122  243 1    
   244  124  125 1    
   245  124  244 1    
   246  124  245 1    
   247  125  126 1    
   248  126  246 1    
   249  126  247 1    
@<TRIPOS>SUBSTRUCTURE
     1 UNK         1 GROUP             0       ****    0 ROOT    
