@<TRIPOS>MOLECULE
3R540
247   249    1
SMALL
USER_CHARGES


@<TRIPOS>ATOM
      1 CA          3.4603  -14.4826  -44.0068 C.3       0 UNK        -0.1800 
      2 C           2.5194  -13.5011  -43.3239 C.2       0 UNK         0.5000 
      3 O           2.7593  -13.1170  -42.1794 O.2       0 UNK        -0.5000 
      4 N           1.4532  -13.1028  -44.0230 N.am      1 UNK        -0.5000 
      5 CA          0.3956  -12.2215  -43.5288 C.3       1 UNK         0.1400 
      6 C6         -0.9978  -12.8963  -43.5975 C.3       23 UNK        -0.0398 
      7 S7         -1.1281  -14.2951  -42.4326 S.3       23 UNK        -0.2404 
      8 C8         -0.7978  -15.7164  -43.5189 C.3       23 UNK        -0.0205 
      9 C9         -2.0749  -16.2847  -44.1141 C.ar      23 UNK        -0.0193 
     10 C10        -2.5707  -15.8035  -45.3283 C.ar      23 UNK        -0.1150 
     11 C11        -3.7374  -16.3386  -45.8803 C.ar      23 UNK        -0.0193 
     12 C12        -4.4165  -17.3553  -45.2025 C.ar      23 UNK        -0.1150 
     13 C13        -3.9214  -17.8563  -43.9948 C.ar      23 UNK        -0.0193 
     14 C14        -2.7523  -17.3136  -43.4544 C.ar      23 UNK        -0.1150 
     15 C15        -4.6335  -18.9975  -43.2809 C.3       23 UNK        -0.0205 
     16 S16        -4.6325  -20.5428  -44.2491 S.3       23 UNK        -0.2404 
     17 C17        -2.8551  -20.7700  -44.5922 C.3       23 UNK        -0.0398 
     18 CA         -2.5874  -22.0132  -45.4733 C.3       11 UNK         0.1400 
     19 N          -1.4053  -21.8425  -46.3237 N.am      11 UNK        -0.5000 
     20 C          -1.0126  -22.6934  -47.2806 C.2       10 UNK         0.5000 
     21 O          -1.6192  -23.7242  -47.5630 O.2       10 UNK        -0.5000 
     22 CA          0.2962  -22.3699  -48.0161 C.3       10 UNK         0.1400 
     23 CB          0.0727  -21.2902  -49.0840 C.3       10 UNK        -0.1800 
     24 N           1.3473  -21.9618  -47.0860 N.am      10 UNK        -0.5000 
     25 C           1.9275  -22.7892  -46.2040 C.2       9 UNK         0.5000 
     26 O           1.6975  -23.9965  -46.1453 O.2       9 UNK        -0.5000 
     27 CA          2.8962  -22.1547  -45.1915 C.3       9 UNK         0.1400 
     28 CB          4.3181  -22.0869  -45.7680 C.3       9 UNK        -0.1800 
     29 N           2.4727  -20.8162  -44.7806 N.am      9 UNK        -0.5000 
     30 C           1.3994  -20.5608  -44.0171 C.2       8 UNK         0.5000 
     31 O           0.6545  -21.4313  -43.5652 O.2       8 UNK        -0.5000 
     32 CA          1.0766  -19.0743  -43.7683 C.3       8 UNK         0.1400 
     33 CB          1.9542  -18.5200  -42.6346 C.3       8 UNK        -0.1800 
     34 N           1.2586  -18.2514  -44.9667 N.am      8 UNK        -0.5000 
     35 C           0.6039  -18.4352  -46.1226 C.2       7 UNK         0.5000 
     36 O          -0.2838  -19.2718  -46.2689 O.2       7 UNK        -0.5000 
     37 CA          1.0403  -17.5959  -47.3359 C.3       7 UNK         0.1400 
     38 CB         -0.0016  -16.5193  -47.6530 C.3       7 UNK        -0.1800 
     39 N           2.3575  -16.9722  -47.1910 N.am      7 UNK        -0.5000 
     40 C           3.5210  -17.6403  -47.1799 C.2       6 UNK         0.5000 
     41 O           3.5807  -18.8711  -47.1801 O.2       6 UNK        -0.5000 
     42 CA          4.8321  -16.8223  -47.1144 C.3       6 UNK         0.1400 
     43 CB          5.8477  -17.2901  -48.1763 C.3       6 UNK        -0.1800 
     44 N           4.6620  -15.3614  -47.1570 N.am      6 UNK        -0.5000 
     45 C           4.1754  -14.6162  -48.1594 C.2       5 UNK         0.5000 
     46 O           3.8177  -15.0648  -49.2503 O.2       5 UNK        -0.5000 
     47 CA          4.0402  -13.1095  -47.8766 C.3       5 UNK         0.1400 
     48 CB          5.1516  -12.3169  -48.5799 C.3       5 UNK        -0.1800 
     49 N           2.7412  -12.6030  -48.3122 N.am      5 UNK        -0.5000 
     50 C           1.5604  -12.9486  -47.7853 C.2       4 UNK         0.5000 
     51 O           1.4419  -13.7004  -46.8144 O.2       4 UNK        -0.5000 
     52 CA          0.3244  -12.2897  -48.4265 C.3       4 UNK         0.1400 
     53 CB         -1.0086  -12.8627  -47.9139 C.3       4 UNK        -0.1800 
     54 N           0.3582  -10.8526  -48.1662 N.am      4 UNK        -0.5000 
     55 C           0.9995   -9.9532  -48.9256 C.2       3 UNK         0.5000 
     56 O           1.5539  -10.2356  -49.9888 O.2       3 UNK        -0.5000 
     57 CA          1.0753   -8.5084  -48.3952 C.3       3 UNK         0.1400 
     58 CB         -0.0820   -7.6674  -48.9543 C.3       3 UNK        -0.1800 
     59 N           1.0638   -8.4268  -46.9336 N.am      3 UNK        -0.5000 
     60 C           2.0260   -8.8946  -46.1261 C.2       2 UNK         0.5000 
     61 O           3.0678   -9.4131  -46.5301 O.2       2 UNK        -0.5000 
     62 CA          1.7828   -8.7878  -44.6071 C.3       2 UNK         0.1400 
     63 CB          0.7072   -7.7501  -44.2125 C.3       2 UNK        -0.1800 
     64 N           1.4774  -10.0937  -44.0148 N.am      2 UNK        -0.5000 
     65 C           0.4673  -10.9158  -44.3360 C.2       1 UNK         0.5000 
     66 O          -0.3495  -10.6911  -45.2319 O.2       1 UNK        -0.5000 
     67 C          -2.5202  -23.3102  -44.6402 C.2       11 UNK         0.5000 
     68 O          -3.4999  -24.0556  -44.5955 O.2       11 UNK        -0.5000 
     69 N          -1.3379  -23.6007  -44.0758 N.am      12 UNK        -0.5000 
     70 CA         -1.0244  -24.8500  -43.3751 C.3       12 UNK         0.1400 
     71 CB          0.3615  -24.7248  -42.7251 C.3       12 UNK        -0.1800 
     72 C          -1.0887  -26.1038  -44.2747 C.2       12 UNK         0.5000 
     73 O          -1.3334  -27.1987  -43.7681 O.2       12 UNK        -0.5000 
     74 N          -0.9068  -25.9189  -45.5883 N.am      13 UNK        -0.5000 
     75 CA         -1.0315  -26.9377  -46.6302 C.3       13 UNK         0.1400 
     76 CB          0.0966  -26.7319  -47.6577 C.3       13 UNK        -0.1800 
     77 C          -2.4264  -26.9170  -47.2935 C.2       13 UNK         0.5000 
     78 O          -2.5518  -27.3229  -48.4496 O.2       13 UNK        -0.5000 
     79 N          -3.4482  -26.4366  -46.5671 N.am      14 UNK        -0.5000 
     80 CA         -4.8561  -26.3377  -46.9687 C.3       14 UNK         0.1400 
     81 CB         -5.4710  -27.7399  -47.1646 C.3       14 UNK        -0.1800 
     82 C          -5.0551  -25.4166  -48.1881 C.2       14 UNK         0.5000 
     83 O          -5.6655  -25.8175  -49.1801 O.2       14 UNK        -0.5000 
     84 N          -4.4950  -24.2030  -48.0944 N.am      15 UNK        -0.5000 
     85 CA         -4.4594  -23.1620  -49.1295 C.3       15 UNK         0.1400 
     86 CB         -5.8759  -22.6255  -49.4198 C.3       15 UNK        -0.1800 
     87 C          -3.7142  -23.6339  -50.3950 C.2       15 UNK         0.5000 
     88 O          -4.1864  -23.4174  -51.5134 O.2       15 UNK        -0.5000 
     89 N          -2.5696  -24.2955  -50.1684 N.am      16 UNK        -0.5000 
     90 CA         -1.7054  -24.9642  -51.1437 C.3       16 UNK         0.1400 
     91 CB         -0.9910  -23.9287  -52.0368 C.3       16 UNK        -0.1800 
     92 C          -2.4668  -26.0438  -51.9387 C.2       16 UNK         0.5000 
     93 O          -2.4848  -26.0110  -53.1686 O.2       16 UNK        -0.5000 
     94 N          -3.1164  -26.9594  -51.2051 N.am      17 UNK        -0.5000 
     95 CA         -3.9978  -28.0246  -51.6953 C.3       17 UNK         0.1400 
     96 CB         -3.1882  -29.0970  -52.4534 C.3       17 UNK        -0.1800 
     97 C          -5.1902  -27.4722  -52.5059 C.2       17 UNK         0.5000 
     98 O          -5.4788  -27.9544  -53.6029 O.2       17 UNK        -0.5000 
     99 N          -5.8445  -26.4483  -51.9399 N.am      18 UNK        -0.5000 
    100 CA        -6.9874  -25.7032  -52.4744 C.3       18 UNK         0.1400 
    101 CB        -8.2298  -26.6118  -52.5827 C.3       18 UNK        -0.1800 
    102 C         -6.6950  -24.9286  -53.7790 C.2       18 UNK         0.5000 
    103 O         -7.6278  -24.6203  -54.5234 O.2       18 UNK        -0.5000 
    104 N         -5.4206  -24.5961  -54.0300 N.am      19 UNK        -0.5000 
    105 CA        -4.9953  -23.7571  -55.1532 C.3       19 UNK         0.1400 
    106 CB        -3.4992  -23.9707  -55.4204 C.3       19 UNK        -0.1800 
    107 C         -5.2888  -22.2624  -54.9233 C.2       19 UNK         0.5000 
    108 O         -5.4153  -21.5254  -55.9017 O.2       19 UNK        -0.5000 
    109 N         -5.3977  -21.8548  -53.6482 N.am      20 UNK        -0.5000 
    110 CA        -5.6662  -20.4981  -53.1643 C.3       20 UNK         0.1400 
    111 CB        -7.0538  -20.0016  -53.6217 C.3       20 UNK        -0.1800 
    112 C         -4.5196  -19.5353  -53.5236 C.2       20 UNK         0.5000 
    113 O         -4.6907  -18.6244  -54.3349 O.2       20 UNK        -0.5000 
    114 N         -3.3538  -19.7826  -52.9106 N.am      21 UNK        -0.5000 
    115 CA        -2.1187  -19.0129  -53.0949 C.3       21 UNK         0.1400 
    116 CB        -0.9684  -19.7631  -52.4060 C.3       21 UNK        -0.1800 
    117 C         -2.1880  -17.5573  -52.5821 C.2       21 UNK         0.5000 
    118 O         -1.3904  -16.7282  -53.0221 O.2       21 UNK        -0.5000 
    119 N         -3.1188  -17.2785  -51.6601 N.am      22 UNK        -0.5000 
    120 CA        -3.4149  -15.9486  -51.1048 C.3       22 UNK         0.1400 
    121 C         -3.8550  -14.9252  -52.1900 C.2       22 UNK         0.5000 
    122 N         -3.3068  -13.7177  -52.1760 N.am      22 UNK        -0.7600 
    123 O         -4.7259  -15.2010  -53.0115 O.2       22 UNK        -0.5000 
    124 C124       -4.4962  -16.0402  -49.9991 C.3       23 UNK        -0.0398 
    125 S125       -3.9319  -17.0018  -48.5550 S.3       23 UNK        -0.2404 
    126 C126       -4.2611  -15.8214  -47.2096 C.3       23 UNK        -0.0205 
    127 H127        3.7086  -15.2993  -43.3290 H         1 UNK         0.0600 
    128 H128        4.3837  -13.9793  -44.2918 H         1 UNK         0.0600 
    129 H129        3.0052  -14.9137  -44.8977 H         1 UNK         0.0600 
    130 H130        1.3598  -13.3906  -44.9957 H         1 UNK         0.3000 
    131 H131        0.5723  -11.9512  -42.4855 H         1 UNK         0.0600 
    132 H132       -1.2224  -13.2327  -44.6082 H         1 UNK         0.0800 
    133 H133       -1.7790  -12.1810  -43.3351 H         1 UNK         0.0800 
    134 H134       -0.0949  -15.4448  -44.3072 H         1 UNK         0.0800 
    135 H135       -0.3033  -16.4846  -42.9263 H         1 UNK         0.0800 
    136 H136       -2.0469  -15.0155  -45.8485 H         1 UNK         0.1150 
    137 H137       -5.3158  -17.7767  -45.6294 H         1 UNK         0.1150 
    138 H138       -2.3640  -17.6949  -42.5205 H         1 UNK         0.1150 
    139 H139       -4.1773  -19.1916  -42.3089 H         1 UNK         0.0800 
    140 H140       -5.6653  -18.7049  -43.0819 H         1 UNK         0.0800 
    141 H141       -2.2890  -20.7962  -43.6591 H         1 UNK         0.0800 
    142 H142       -2.5225  -19.8759  -45.1192 H         1 UNK         0.0800 
    143 H143       -3.4258  -22.1211  -46.1642 H         1 UNK         0.0600 
    144 H144       -0.8789  -20.9801  -46.1957 H         1 UNK         0.3000 
    145 H145        0.6250  -23.2789  -48.5244 H         1 UNK         0.0600 
    146 H146       -0.2516  -20.3442  -48.6525 H         1 UNK         0.0600 
    147 H147        0.9811  -21.1056  -49.6573 H         1 UNK         0.0600 
    148 H148       -0.6997  -21.6033  -49.7866 H         1 UNK         0.0600 
    149 H149        1.5830  -20.9808  -47.0558 H         1 UNK         0.3000 
    150 H150        2.9174  -22.7927  -44.3054 H         1 UNK         0.0600 
    151 H151        4.6725  -23.0799  -46.0474 H         1 UNK         0.0600 
    152 H152        5.0210  -21.6844  -45.0385 H         1 UNK         0.0600 
    153 H153        4.3634  -21.4601  -46.6594 H         1 UNK         0.0600 
    154 H154        2.9982  -20.0406  -45.1607 H         1 UNK         0.3000 
    155 H155        0.0292  -19.0037  -43.4674 H         1 UNK         0.0600 
    156 H156        1.7991  -19.0830  -41.7134 H         1 UNK         0.0600 
    157 H157        1.7247  -17.4772  -42.4186 H         1 UNK         0.0600 
    158 H158        3.0153  -18.5801  -42.8800 H         1 UNK         0.0600 
    159 H159        1.9818  -17.5497  -44.9364 H         1 UNK         0.3000 
    160 H160        1.0882  -18.2735  -48.1907 H         1 UNK         0.0600 
    161 H161       -0.0864  -15.8030  -46.8379 H         1 UNK         0.0600 
    162 H162       -0.9869  -16.9604  -47.8072 H         1 UNK         0.0600 
    163 H163        0.2573  -15.9739  -48.5606 H         1 UNK         0.0600 
    164 H164        2.3778  -15.9616  -47.1870 H         1 UNK         0.3000 
    165 H165        5.2628  -17.0402  -46.1361 H         1 UNK         0.0600 
    166 H166        5.4625  -17.1696  -49.1890 H         1 UNK         0.0600 
    167 H167        6.7810  -16.7318  -48.1029 H         1 UNK         0.0600 
    168 H168        6.0921  -18.3452  -48.0465 H         1 UNK         0.0600 
    169 H169        4.9391  -14.8841  -46.3113 H         1 UNK         0.3000 
    170 H170        4.1212  -12.9357  -46.8015 H         1 UNK         0.0600 
    171 H171        5.1030  -12.4304  -49.6637 H         1 UNK         0.0600 
    172 H172        5.0814  -11.2533  -48.3498 H         1 UNK         0.0600 
    173 H173        6.1370  -12.6553  -48.2572 H         1 UNK         0.0600 
    174 H174        2.7431  -11.9628  -49.0956 H         1 UNK         0.3000 
    175 H175        0.3688  -12.4756  -49.5017 H         1 UNK         0.0600 
    176 H176       -1.1162  -12.7369  -46.8383 H         1 UNK         0.0600 
    177 H177       -1.8560  -12.3702  -48.3908 H         1 UNK         0.0600 
    178 H178       -1.0905  -13.9263  -48.1340 H         1 UNK         0.0600 
    179 H179       -0.0059  -10.5586  -47.2654 H         1 UNK         0.3000 
    180 H180        2.0143   -8.0771  -48.7483 H         1 UNK         0.0600 
    181 H181       -0.0869   -7.6863  -50.0450 H         1 UNK         0.0600 
    182 H182        0.0041   -6.6244  -48.6491 H         1 UNK         0.0600 
    183 H183       -1.0498   -8.0389  -48.6151 H         1 UNK         0.0600 
    184 H184        0.2319   -8.0428  -46.5095 H         1 UNK         0.3000 
    185 H185        2.7276   -8.4608  -44.1704 H         1 UNK         0.0600 
    186 H186        0.6593   -7.6366  -43.1295 H         1 UNK         0.0600 
    187 H187        0.9388   -6.7676  -44.6261 H         1 UNK         0.0600 
    188 H188       -0.2896   -8.0296  -44.5552 H         1 UNK         0.0600 
    189 H189        2.1276  -10.4071  -43.3070 H         1 UNK         0.3000 
    190 H190       -0.5901  -22.9154  -44.1287 H         1 UNK         0.3000 
    191 H191       -1.7635  -24.9795  -42.5819 H         1 UNK         0.0600 
    192 H192        1.1420  -24.5730  -43.4712 H         1 UNK         0.0600 
    193 H193        0.3968  -23.8867  -42.0288 H         1 UNK         0.0600 
    194 H194        0.6140  -25.6251  -42.1635 H         1 UNK         0.0600 
    195 H195       -0.7323  -24.9795  -45.9212 H         1 UNK         0.3000 
    196 H196       -0.9049  -27.9295  -46.1924 H         1 UNK         0.0600 
    197 H197        1.0742  -26.7488  -47.1756 H         1 UNK         0.0600 
    198 H198        0.0003  -25.7793  -48.1779 H         1 UNK         0.0600 
    199 H199        0.0946  -27.5206  -48.4109 H         1 UNK         0.0600 
    200 H200       -3.2352  -26.0575  -45.6534 H         1 UNK         0.3000 
    201 H201       -5.3800  -25.8628  -46.1379 H         1 UNK         0.0600 
    202 H202       -6.5430  -27.6713  -47.3531 H         1 UNK         0.0600 
    203 H203       -5.3369  -28.3563  -46.2759 H         1 UNK         0.0600 
    204 H204       -5.0261  -28.2674  -48.0089 H         1 UNK         0.0600 
    205 H205       -3.9344  -24.0187  -47.2735 H         1 UNK         0.3000 
    206 H206       -3.8745  -22.3373  -48.7205 H         1 UNK         0.0600 
    207 H207       -6.3751  -22.3171  -48.5013 H         1 UNK         0.0600 
    208 H208       -6.5037  -23.3708  -49.9081 H         1 UNK         0.0600 
    209 H209       -5.8355  -21.7540  -50.0718 H         1 UNK         0.0600 
    210 H210       -2.2796  -24.3808  -49.1977 H         1 UNK         0.3000 
    211 H211       -0.9391  -25.4909  -50.5733 H         1 UNK         0.0600 
    212 H212       -0.3558  -23.2722  -51.4439 H         1 UNK         0.0600 
    213 H213       -0.3488  -24.4184  -52.7695 H         1 UNK         0.0600 
    214 H214       -1.6969  -23.3047  -52.5838 H         1 UNK         0.0600 
    215 H215       -3.0120  -26.9239  -50.1924 H         1 UNK         0.3000 
    216 H216       -4.4234  -28.4980  -50.8092 H         1 UNK         0.0600 
    217 H217       -3.8194  -29.9454  -52.7203 H         1 UNK         0.0600 
    218 H218       -2.7592  -28.7058  -53.3763 H         1 UNK         0.0600 
    219 H219       -2.3726  -29.4800  -51.8401 H         1 UNK         0.0600 
    220 H220       -5.5526  -26.1573  -51.0086 H         1 UNK         0.3000 
    221 H221       -7.2097  -24.9403  -51.7275 H         1 UNK         0.0600 
    222 H222       -8.1145  -27.3645  -53.3630 H         1 UNK         0.0600 
    223 H223       -8.4225  -27.1286  -51.6425 H         1 UNK         0.0600 
    224 H224       -9.1219  -26.0308  -52.8190 H         1 UNK         0.0600 
    225 H225       -4.7062  -24.8633  -53.3640 H         1 UNK         0.3000 
    226 H226       -5.5423  -24.0684  -56.0456 H         1 UNK         0.0600 
    227 H227       -3.2817  -25.0178  -55.6316 H         1 UNK         0.0600 
    228 H228       -3.1686  -23.3897  -56.2822 H         1 UNK         0.0600 
    229 H229       -2.8933  -23.6654  -54.5679 H         1 UNK         0.0600 
    230 H230       -5.1857  -22.5397  -52.9270 H         1 UNK         0.3000 
    231 H231       -5.6927  -20.5578  -52.0763 H         1 UNK         0.0600 
    232 H232       -7.2836  -19.0331  -53.1763 H         1 UNK         0.0600 
    233 H233       -7.8385  -20.6943  -53.3173 H         1 UNK         0.0600 
    234 H234       -7.1142  -19.8825  -54.7036 H         1 UNK         0.0600 
    235 H235       -3.2971  -20.5762  -52.2892 H         1 UNK         0.3000 
    236 H236       -1.9087  -18.9717  -54.1657 H         1 UNK         0.0600 
    237 H237       -0.8683  -20.7790  -52.7888 H         1 UNK         0.0600 
    238 H238       -0.0160  -19.2584  -52.5735 H         1 UNK         0.0600 
    239 H239       -1.1228  -19.8195  -51.3286 H         1 UNK         0.0600 
    240 H240       -3.7215  -18.0263  -51.3544 H         1 UNK         0.3000 
    241 H241       -2.4928  -15.5817  -50.6492 H         1 UNK         0.0600 
    242 H242       -3.5984  -13.0418  -52.8651 H         1 UNK         0.3800 
    243 H243       -2.5936  -13.4660  -51.5100 H         1 UNK         0.3800 
    244 H244       -4.7842  -15.0406  -49.6683 H         1 UNK         0.0800 
    245 H245       -5.4064  -16.5000  -50.3880 H         1 UNK         0.0800 
    246 H246       -5.3350  -15.6437  -47.1358 H         1 UNK         0.0800 
    247 H247       -3.8011  -14.8610  -47.4484 H         1 UNK         0.0800 
@<TRIPOS>BOND
     1    1    2 1    
     2    1  127 1    
     3    1  128 1    
     4    1  129 1    
     5    2    3 2    
     6    2    4 am   BACKBONE|DICT|INTERRES
     7    4    5 1    
     8    4  130 1    
     9    5    6 1    
    10    5   65 1    
    11    5  131 1    
    12    6    7 1    
    13    6  132 1    
    14    6  133 1    
    15    7    8 1    
    16    8    9 1    
    17    8  134 1    
    18    8  135 1    
    19    9   10 ar   
    20    9   14 ar   
    21   10   11 ar   
    22   10  136 1    
    23   11   12 ar   
    24   11  126 1    
    25   12   13 ar   
    26   12  137 1    
    27   13   14 ar   
    28   13   15 1    
    29   14  138 1    
    30   15   16 1    
    31   15  139 1    
    32   15  140 1    
    33   16   17 1    
    34   17   18 1    
    35   17  141 1    
    36   17  142 1    
    37   18   19 1    
    38   18   67 1    
    39   18  143 1    
    40   19   20 am   BACKBONE|DICT|INTERRES
    41   19  144 1    
    42   20   21 2    
    43   20   22 1    
    44   22   23 1    
    45   22   24 1    
    46   22  145 1    
    47   23  146 1    
    48   23  147 1    
    49   23  148 1    
    50   24   25 am   BACKBONE|DICT|INTERRES
    51   24  149 1    
    52   25   26 2    
    53   25   27 1    
    54   27   28 1    
    55   27   29 1    
    56   27  150 1    
    57   28  151 1    
    58   28  152 1    
    59   28  153 1    
    60   29   30 am   BACKBONE|DICT|INTERRES
    61   29  154 1    
    62   30   31 2    
    63   30   32 1    
    64   32   33 1    
    65   32   34 1    
    66   32  155 1    
    67   33  156 1    
    68   33  157 1    
    69   33  158 1    
    70   34   35 am   BACKBONE|DICT|INTERRES
    71   34  159 1    
    72   35   36 2    
    73   35   37 1    
    74   37   38 1    
    75   37   39 1    
    76   37  160 1    
    77   38  161 1    
    78   38  162 1    
    79   38  163 1    
    80   39   40 am   BACKBONE|DICT|INTERRES
    81   39  164 1    
    82   40   41 2    
    83   40   42 1    
    84   42   43 1    
    85   42   44 1    
    86   42  165 1    
    87   43  166 1    
    88   43  167 1    
    89   43  168 1    
    90   44   45 am   BACKBONE|DICT|INTERRES
    91   44  169 1    
    92   45   46 2    
    93   45   47 1    
    94   47   48 1    
    95   47   49 1    
    96   47  170 1    
    97   48  171 1    
    98   48  172 1    
    99   48  173 1    
   100   49   50 am   BACKBONE|DICT|INTERRES
   101   49  174 1    
   102   50   51 2    
   103   50   52 1    
   104   52   53 1    
   105   52   54 1    
   106   52  175 1    
   107   53  176 1    
   108   53  177 1    
   109   53  178 1    
   110   54   55 am   BACKBONE|DICT|INTERRES
   111   54  179 1    
   112   55   56 2    
   113   55   57 1    
   114   57   58 1    
   115   57   59 1    
   116   57  180 1    
   117   58  181 1    
   118   58  182 1    
   119   58  183 1    
   120   59   60 am   BACKBONE|DICT|INTERRES
   121   59  184 1    
   122   60   61 2    
   123   60   62 1    
   124   62   63 1    
   125   62   64 1    
   126   62  185 1    
   127   63  186 1    
   128   63  187 1    
   129   63  188 1    
   130   64   65 am   BACKBONE|DICT|INTERRES
   131   64  189 1    
   132   65   66 2    
   133   67   68 2    
   134   67   69 am   BACKBONE|DICT|INTERRES
   135   69   70 1    
   136   69  190 1    
   137   70   71 1    
   138   70   72 1    
   139   70  191 1    
   140   71  192 1    
   141   71  193 1    
   142   71  194 1    
   143   72   73 2    
   144   72   74 am   BACKBONE|DICT|INTERRES
   145   74   75 1    
   146   74  195 1    
   147   75   76 1    
   148   75   77 1    
   149   75  196 1    
   150   76  197 1    
   151   76  198 1    
   152   76  199 1    
   153   77   78 2    
   154   77   79 am   BACKBONE|DICT|INTERRES
   155   79   80 1    
   156   79  200 1    
   157   80   81 1    
   158   80   82 1    
   159   80  201 1    
   160   81  202 1    
   161   81  203 1    
   162   81  204 1    
   163   82   83 2    
   164   82   84 am   BACKBONE|DICT|INTERRES
   165   84   85 1    
   166   84  205 1    
   167   85   86 1    
   168   85   87 1    
   169   85  206 1    
   170   86  207 1    
   171   86  208 1    
   172   86  209 1    
   173   87   88 2    
   174   87   89 am   BACKBONE|DICT|INTERRES
   175   89   90 1    
   176   89  210 1    
   177   90   91 1    
   178   90   92 1    
   179   90  211 1    
   180   91  212 1    
   181   91  213 1    
   182   91  214 1    
   183   92   93 2    
   184   92   94 am   BACKBONE|DICT|INTERRES
   185   94   95 1    
   186   94  215 1    
   187   95   96 1    
   188   95   97 1    
   189   95  216 1    
   190   96  217 1    
   191   96  218 1    
   192   96  219 1    
   193   97   98 2    
   194   97   99 am   BACKBONE|DICT|INTERRES
   195   99  100 1    
   196   99  220 1    
   197  100  101 1    
   198  100  102 1    
   199  100  221 1    
   200  101  222 1    
   201  101  223 1    
   202  101  224 1    
   203  102  103 2    
   204  102  104 am   BACKBONE|DICT|INTERRES
   205  104  105 1    
   206  104  225 1    
   207  105  106 1    
   208  105  107 1    
   209  105  226 1    
   210  106  227 1    
   211  106  228 1    
   212  106  229 1    
   213  107  108 2    
   214  107  109 am   BACKBONE|DICT|INTERRES
   215  109  110 1    
   216  109  230 1    
   217  110  111 1    
   218  110  112 1    
   219  110  231 1    
   220  111  232 1    
   221  111  233 1    
   222  111  234 1    
   223  112  113 2    
   224  112  114 am   BACKBONE|DICT|INTERRES
   225  114  115 1    
   226  114  235 1    
   227  115  116 1    
   228  115  117 1    
   229  115  236 1    
   230  116  237 1    
   231  116  238 1    
   232  116  239 1    
   233  117  118 2    
   234  117  119 am   BACKBONE|DICT|INTERRES
   235  119  120 1    
   236  119  240 1    
   237  120  121 1    
   238  120  124 1    
   239  120  241 1    
   240  121  122 am   BACKBONE|DICT|INTERRES
   241  121  123 2    
   242  122  242 1    
   243  122  243 1    
   244  124  125 1    
   245  124  244 1    
   246  124  245 1    
   247  125  126 1    
   248  126  246 1    
   249  126  247 1    
@<TRIPOS>SUBSTRUCTURE
     1 UNK         1 GROUP             0       ****    0 ROOT    
