@<TRIPOS>MOLECULE
3R540
247   249    1
SMALL
USER_CHARGES


@<TRIPOS>ATOM
      1 CA         -3.0139   -9.0639  -48.2167 C.3       0 UNK        -0.1800 
      2 C          -1.9288   -9.9840  -48.7567 C.2       0 UNK         0.5000 
      3 O          -0.7446   -9.7199  -48.5513 O.2       0 UNK        -0.5000 
      4 N          -2.3285  -11.0615  -49.4449 N.am      1 UNK        -0.5000 
      5 CA         -1.4389  -12.0892  -50.0027 C.3       1 UNK         0.1400 
      6 C6         -2.1602  -12.9714  -51.0511 C.3       23 UNK        -0.0398 
      7 S7         -3.7175  -13.7311  -50.4595 S.3       23 UNK        -0.2404 
      8 C8         -3.4958  -15.4727  -50.9345 C.3       23 UNK        -0.0205 
      9 C9         -2.6231  -16.2294  -49.9463 C.ar      23 UNK        -0.0193 
     10 C10        -1.2457  -16.3417  -50.1574 C.ar      23 UNK        -0.1150 
     11 C11        -0.4419  -17.0413  -49.2529 C.ar      23 UNK        -0.0193 
     12 C12        -1.0343  -17.6455  -48.1410 C.ar      23 UNK        -0.1150 
     13 C13        -2.4085  -17.5426  -47.9161 C.ar      23 UNK        -0.0193 
     14 C14        -3.1981  -16.8277  -48.8208 C.ar      23 UNK        -0.1150 
     15 C15        -3.0263  -18.1843  -46.6826 C.3       23 UNK        -0.0205 
     16 S16        -4.0545  -19.6159  -47.1208 S.3       23 UNK        -0.2404 
     17 C17        -3.8442  -20.7066  -45.6714 C.3       23 UNK        -0.0398 
     18 CA         -2.9191  -21.8972  -46.0221 C.3       11 UNK         0.1400 
     19 N          -1.4940  -21.5456  -46.0269 N.am      11 UNK        -0.5000 
     20 C          -0.5597  -22.2496  -46.6859 C.2       10 UNK         0.5000 
     21 O          -0.8245  -23.2426  -47.3618 O.2       10 UNK        -0.5000 
     22 CA          0.9140  -21.8282  -46.5286 C.3       10 UNK         0.1400 
     23 CB          1.3638  -20.9954  -47.7364 C.3       10 UNK        -0.1800 
     24 N           1.1848  -21.0980  -45.2878 N.am      10 UNK        -0.5000 
     25 C           1.0663  -21.6320  -44.0611 C.2       9 UNK         0.5000 
     26 O           0.7500  -22.8057  -43.8691 O.2       9 UNK        -0.5000 
     27 CA          1.2838  -20.7126  -42.8411 C.3       9 UNK         0.1400 
     28 CB          2.7084  -20.8838  -42.2933 C.3       9 UNK        -0.1800 
     29 N           1.0412  -19.2926  -43.0969 N.am      9 UNK        -0.5000 
     30 C          -0.0891  -18.7617  -43.5835 C.2       8 UNK         0.5000 
     31 O          -1.1037  -19.4152  -43.8287 O.2       8 UNK        -0.5000 
     32 CA         -0.0562  -17.2578  -43.9137 C.3       8 UNK         0.1400 
     33 CB         -0.5116  -16.4425  -42.6948 C.3       8 UNK        -0.1800 
     34 N           1.2541  -16.7719  -44.3596 N.am      8 UNK        -0.5000 
     35 C           1.9679  -17.2560  -45.3884 C.2       7 UNK         0.5000 
     36 O           1.6276  -18.2238  -46.0653 O.2       7 UNK        -0.5000 
     37 CA          3.3154  -16.5765  -45.6705 C.3       7 UNK         0.1400 
     38 CB          3.1181  -15.2001  -46.3282 C.3       7 UNK        -0.1800 
     39 N           4.0831  -16.4402  -44.4345 N.am      7 UNK        -0.5000 
     40 C           4.7962  -17.4321  -43.8812 C.2       6 UNK         0.5000 
     41 O           4.9693  -18.5288  -44.4130 O.2       6 UNK        -0.5000 
     42 CA          5.4088  -17.1654  -42.4922 C.3       6 UNK         0.1400 
     43 CB          6.8402  -16.6254  -42.6308 C.3       6 UNK        -0.1800 
     44 N           4.6237  -16.2326  -41.6823 N.am      6 UNK        -0.5000 
     45 C           3.4006  -16.4832  -41.1938 C.2       5 UNK         0.5000 
     46 O           2.8058  -17.5496  -41.3481 O.2       5 UNK        -0.5000 
     47 CA          2.7059  -15.3192  -40.4585 C.3       5 UNK         0.1400 
     48 CB          3.0916  -15.3148  -38.9720 C.3       5 UNK        -0.1800 
     49 N           2.9940  -14.0023  -41.0401 N.am      5 UNK        -0.5000 
     50 C           2.7278  -13.6542  -42.3056 C.2       4 UNK         0.5000 
     51 O           2.2175  -14.4183  -43.1299 O.2       4 UNK        -0.5000 
     52 CA          3.1477  -12.2454  -42.7407 C.3       4 UNK         0.1400 
     53 CB          4.6792  -12.1375  -42.8577 C.3       4 UNK        -0.1800 
     54 N           2.5387  -11.9744  -44.0363 N.am      4 UNK        -0.5000 
     55 C           2.2566  -10.7724  -44.5433 C.2       3 UNK         0.5000 
     56 O           2.5167   -9.7131  -43.9707 O.2       3 UNK        -0.5000 
     57 CA          1.5789  -10.7380  -45.9278 C.3       3 UNK         0.1400 
     58 CB          2.6037  -10.3713  -47.0125 C.3       3 UNK        -0.1800 
     59 N           0.9103  -11.9811  -46.3262 N.am      3 UNK        -0.5000 
     60 C          -0.1912  -12.4913  -45.7605 C.2       2 UNK         0.5000 
     61 O          -0.7059  -12.0395  -44.7366 O.2       2 UNK        -0.5000 
     62 CA         -0.8639  -13.6478  -46.5291 C.3       2 UNK         0.1400 
     63 CB         -1.9971  -14.3152  -45.7319 C.3       2 UNK        -0.1800 
     64 N          -1.4202  -13.1281  -47.7760 N.am      2 UNK        -0.5000 
     65 C          -0.7328  -12.9184  -48.9064 C.2       1 UNK         0.5000 
     66 O           0.4333  -13.2820  -49.0683 O.2       1 UNK        -0.5000 
     67 C          -3.2350  -23.1674  -45.2014 C.2       11 UNK         0.5000 
     68 O          -4.3286  -23.7128  -45.3553 O.2       11 UNK        -0.5000 
     69 N          -2.2744  -23.6753  -44.4126 N.am      12 UNK        -0.5000 
     70 CA         -2.3606  -24.9949  -43.7815 C.3       12 UNK         0.1400 
     71 CB         -1.2503  -25.1390  -42.7307 C.3       12 UNK        -0.1800 
     72 C          -2.2894  -26.1491  -44.8038 C.2       12 UNK         0.5000 
     73 O          -2.8321  -27.2227  -44.5388 O.2       12 UNK        -0.5000 
     74 N          -1.6595  -25.9120  -45.9653 N.am      13 UNK        -0.5000 
     75 CA         -1.5634  -26.8568  -47.0774 C.3       13 UNK         0.1400 
     76 CB         -0.2873  -26.5613  -47.8861 C.3       13 UNK        -0.1800 
     77 C          -2.8389  -26.8090  -47.9406 C.2       13 UNK         0.5000 
     78 O          -2.7929  -26.3748  -49.0935 O.2       13 UNK        -0.5000 
     79 N          -3.9625  -27.2323  -47.3439 N.am      14 UNK        -0.5000 
     80 CA         -5.2963  -27.3615  -47.9421 C.3       14 UNK         0.1400 
     81 CB         -5.3134  -28.5338  -48.9457 C.3       14 UNK        -0.1800 
     82 C          -5.8076  -26.0443  -48.5601 C.2       14 UNK         0.5000 
     83 O          -6.1547  -26.0110  -49.7420 O.2       14 UNK        -0.5000 
     84 N          -5.7984  -24.9694  -47.7563 N.am      15 UNK        -0.5000 
     85 CA         -6.1702  -23.5992  -48.1350 C.3       15 UNK         0.1400 
     86 CB         -7.6736  -23.5062  -48.4737 C.3       15 UNK        -0.1800 
     87 C          -5.2661  -23.0328  -49.2488 C.2       15 UNK         0.5000 
     88 O          -5.7530  -22.3507  -50.1501 O.2       15 UNK        -0.5000 
     89 N          -3.9682  -23.3632  -49.1720 N.am      16 UNK        -0.5000 
     90 CA         -2.9076  -23.0350  -50.1261 C.3       16 UNK         0.1400 
     91 CB         -2.6326  -21.5166  -50.1604 C.3       16 UNK        -0.1800 
     92 C          -3.2146  -23.6363  -51.5075 C.2       16 UNK         0.5000 
     93 O          -3.3790  -22.9017  -52.4832 O.2       16 UNK        -0.5000 
     94 N          -3.3319  -24.9720  -51.5276 N.am      17 UNK        -0.5000 
     95 CA         -3.6572  -25.8230  -52.6744 C.3       17 UNK         0.1400 
     96 CB         -2.4806  -25.8533  -53.6712 C.3       17 UNK        -0.1800 
     97 C          -5.0038  -25.4507  -53.3288 C.2       17 UNK         0.5000 
     98 O          -5.0773  -25.2896  -54.5481 O.2       17 UNK        -0.5000 
     99 N          -6.0403  -25.3164  -52.4885 N.am      18 UNK        -0.5000 
    100 CA        -7.4112  -24.9259  -52.8243 C.3       18 UNK         0.1400 
    101 CB        -8.1018  -26.0182  -53.6679 C.3       18 UNK        -0.1800 
    102 C         -7.4823  -23.5223  -53.4598 C.2       18 UNK         0.5000 
    103 O         -8.0464  -23.3570  -54.5433 O.2       18 UNK        -0.5000 
    104 N         -6.9047  -22.5392  -52.7547 N.am      19 UNK        -0.5000 
    105 CA        -6.8423  -21.1175  -53.0964 C.3       19 UNK         0.1400 
    106 CB        -8.2509  -20.4864  -53.0945 C.3       19 UNK        -0.1800 
    107 C         -6.0464  -20.8394  -54.3871 C.2       19 UNK         0.5000 
    108 O         -6.4879  -20.0594  -55.2331 O.2       19 UNK        -0.5000 
    109 N         -4.8609  -21.4550  -54.5006 N.am      20 UNK        -0.5000 
    110 CA        -3.9020  -21.2081  -55.5828 C.3       20 UNK         0.1400 
    111 CB        -2.9948  -22.4380  -55.7448 C.3       20 UNK        -0.1800 
    112 C         -3.0557  -19.9366  -55.3542 C.2       20 UNK         0.5000 
    113 O         -2.2798  -19.5695  -56.2371 O.2       20 UNK        -0.5000 
    114 N         -3.2169  -19.2981  -54.1834 N.am      21 UNK        -0.5000 
    115 CA        -2.5105  -18.1048  -53.7055 C.3       21 UNK         0.1400 
    116 CB        -2.7880  -16.8839  -54.6095 C.3       21 UNK        -0.1800 
    117 C         -1.0112  -18.3698  -53.4635 C.2       21 UNK         0.5000 
    118 O         -0.1701  -17.5544  -53.8444 O.2       21 UNK        -0.5000 
    119 N         -0.7368  -19.5148  -52.8216 N.am      22 UNK        -0.5000 
    120 CA         0.5783  -20.0319  -52.4083 C.3       22 UNK         0.1400 
    121 C          1.6386  -20.1227  -53.5515 C.2       22 UNK         0.5000 
    122 N          2.9229  -19.9342  -53.2760 N.am      22 UNK        -0.7600 
    123 O          1.3092  -20.4446  -54.6908 O.2       22 UNK        -0.5000 
    124 C124        1.0681  -19.4434  -51.0490 C.3       23 UNK        -0.0398 
    125 S125        1.5919  -17.6932  -51.0797 S.3       23 UNK        -0.2404 
    126 C126        1.0701  -17.1008  -49.4378 C.3       23 UNK        -0.0205 
    127 H127       -2.9467   -9.0035  -47.1304 H         1 UNK         0.0600 
    128 H128       -4.0121   -9.4172  -48.4768 H         1 UNK         0.0600 
    129 H129       -2.8915   -8.0602  -48.6236 H         1 UNK         0.0600 
    130 H130       -3.3158  -11.2250  -49.5866 H         1 UNK         0.3000 
    131 H131       -0.6440  -11.5608  -50.5339 H         1 UNK         0.0600 
    132 H132       -2.4137  -12.3561  -51.9154 H         1 UNK         0.0800 
    133 H133       -1.4824  -13.7328  -51.4365 H         1 UNK         0.0800 
    134 H134       -3.0766  -15.5261  -51.9389 H         1 UNK         0.0800 
    135 H135       -4.4766  -15.9471  -50.9916 H         1 UNK         0.0800 
    136 H136       -0.7901  -15.8798  -51.0213 H         1 UNK         0.1150 
    137 H137       -0.4252  -18.1850  -47.4339 H         1 UNK         0.1150 
    138 H138       -4.2618  -16.7414  -48.6490 H         1 UNK         0.1150 
    139 H139       -2.2400  -18.5001  -45.9991 H         1 UNK         0.0800 
    140 H140       -3.6311  -17.4530  -46.1450 H         1 UNK         0.0800 
    141 H141       -4.8441  -21.0506  -45.4005 H         1 UNK         0.0800 
    142 H142       -3.4755  -20.1524  -44.8078 H         1 UNK         0.0800 
    143 H143       -3.1645  -22.1848  -47.0415 H         1 UNK         0.0600 
    144 H144       -1.2142  -20.7665  -45.4412 H         1 UNK         0.3000 
    145 H145        1.5120  -22.7417  -46.5100 H         1 UNK         0.0600 
    146 H146        2.4089  -20.6980  -47.6486 H         1 UNK         0.0600 
    147 H147        1.2626  -21.5671  -48.6597 H         1 UNK         0.0600 
    148 H148        0.7658  -20.0921  -47.8453 H         1 UNK         0.0600 
    149 H149        1.4203  -20.1147  -45.3832 H         1 UNK         0.3000 
    150 H150        0.5789  -21.0287  -42.0698 H         1 UNK         0.0600 
    151 H151        2.9245  -21.9316  -42.0804 H         1 UNK         0.0600 
    152 H152        2.8431  -20.3308  -41.3636 H         1 UNK         0.0600 
    153 H153        3.4559  -20.5308  -43.0049 H         1 UNK         0.0600 
    154 H154        1.8000  -18.6607  -42.8685 H         1 UNK         0.3000 
    155 H155       -0.7567  -17.0795  -44.7308 H         1 UNK         0.0600 
    156 H156       -1.5485  -16.6682  -42.4429 H         1 UNK         0.0600 
    157 H157       -0.4444  -15.3700  -42.8766 H         1 UNK         0.0600 
    158 H158        0.0933  -16.6688  -41.8173 H         1 UNK         0.0600 
    159 H159        1.6244  -15.9688  -43.8559 H         1 UNK         0.3000 
    160 H160        3.8714  -17.2035  -46.3711 H         1 UNK         0.0600 
    161 H161        4.0755  -14.7204  -46.5322 H         1 UNK         0.0600 
    162 H162        2.5327  -14.5253  -45.7062 H         1 UNK         0.0600 
    163 H163        2.5947  -15.2963  -47.2797 H         1 UNK         0.0600 
    164 H164        3.9374  -15.5933  -43.9033 H         1 UNK         0.3000 
    165 H165        5.4516  -18.1196  -41.9625 H         1 UNK         0.0600 
    166 H166        7.3134  -16.5064  -41.6559 H         1 UNK         0.0600 
    167 H167        7.4613  -17.3095  -43.2106 H         1 UNK         0.0600 
    168 H168        6.8588  -15.6580  -43.1345 H         1 UNK         0.0600 
    169 H169        5.0334  -15.3275  -41.5057 H         1 UNK         0.3000 
    170 H170        1.6292  -15.4801  -40.5272 H         1 UNK         0.0600 
    171 H171        2.8691  -16.2769  -38.5083 H         1 UNK         0.0600 
    172 H172        4.1558  -15.1209  -38.8317 H         1 UNK         0.0600 
    173 H173        2.5359  -14.5550  -38.4223 H         1 UNK         0.0600 
    174 H174        3.4211  -13.3245  -40.4252 H         1 UNK         0.3000 
    175 H175        2.7757  -11.5319  -42.0026 H         1 UNK         0.0600 
    176 H176        5.0779  -12.8524  -43.5788 H         1 UNK         0.0600 
    177 H177        4.9815  -11.1399  -43.1769 H         1 UNK         0.0600 
    178 H178        5.1649  -12.3284  -41.9003 H         1 UNK         0.0600 
    179 H179        2.2260  -12.8014  -44.5272 H         1 UNK         0.3000 
    180 H180        0.8216   -9.9518  -45.8965 H         1 UNK         0.0600 
    181 H181        3.3736  -11.1375  -47.1124 H         1 UNK         0.0600 
    182 H182        3.1036   -9.4303  -46.7790 H         1 UNK         0.0600 
    183 H183        2.1223  -10.2488  -47.9832 H         1 UNK         0.0600 
    184 H184        1.2173  -12.3915  -47.1999 H         1 UNK         0.3000 
    185 H185       -0.1077  -14.4061  -46.7448 H         1 UNK         0.0600 
    186 H186       -1.6318  -14.7015  -44.7820 H         1 UNK         0.0600 
    187 H187       -2.8051  -13.6164  -45.5123 H         1 UNK         0.0600 
    188 H188       -2.4224  -15.1528  -46.2831 H         1 UNK         0.0600 
    189 H189       -2.3612  -12.7666  -47.7268 H         1 UNK         0.3000 
    190 H190       -1.3863  -23.1945  -44.3348 H         1 UNK         0.3000 
    191 H191       -3.3222  -25.0642  -43.2685 H         1 UNK         0.0600 
    192 H192       -1.2738  -24.3196  -42.0121 H         1 UNK         0.0600 
    193 H193       -1.3651  -26.0676  -42.1702 H         1 UNK         0.0600 
    194 H194       -0.2614  -25.1571  -43.1897 H         1 UNK         0.0600 
    195 H195       -1.2863  -24.9872  -46.1420 H         1 UNK         0.3000 
    196 H196       -1.4707  -27.8707  -46.6821 H         1 UNK         0.0600 
    197 H197       -0.1518  -27.2989  -48.6778 H         1 UNK         0.0600 
    198 H198        0.5991  -26.5975  -47.2528 H         1 UNK         0.0600 
    199 H199       -0.3205  -25.5805  -48.3601 H         1 UNK         0.0600 
    200 H200       -3.8865  -27.5106  -46.3715 H         1 UNK         0.3000 
    201 H201       -5.9825  -27.6093  -47.1311 H         1 UNK         0.0600 
    202 H202       -4.9918  -29.4617  -48.4730 H         1 UNK         0.0600 
    203 H203       -4.6588  -28.3478  -49.7980 H         1 UNK         0.0600 
    204 H204       -6.3184  -28.7003  -49.3354 H         1 UNK         0.0600 
    205 H205       -5.4539  -25.0721  -46.8093 H         1 UNK         0.3000 
    206 H206       -5.9980  -22.9724  -47.2598 H         1 UNK         0.0600 
    207 H207       -8.2848  -23.9098  -47.6666 H         1 UNK         0.0600 
    208 H208       -7.9760  -22.4686  -48.6205 H         1 UNK         0.0600 
    209 H209       -7.9219  -24.0483  -49.3863 H         1 UNK         0.0600 
    210 H210       -3.6952  -23.9972  -48.4355 H         1 UNK         0.3000 
    211 H211       -2.0009  -23.5251  -49.7690 H         1 UNK         0.0600 
    212 H212       -3.4937  -20.9479  -50.5122 H         1 UNK         0.0600 
    213 H213       -1.7977  -21.2935  -50.8225 H         1 UNK         0.0600 
    214 H214       -2.3646  -21.1422  -49.1730 H         1 UNK         0.0600 
    215 H215       -3.1986  -25.4694  -50.6482 H         1 UNK         0.3000 
    216 H216       -3.7798  -26.8326  -52.2795 H         1 UNK         0.0600 
    217 H217       -2.6742  -26.5536  -54.4844 H         1 UNK         0.0600 
    218 H218       -1.5599  -26.1711  -53.1822 H         1 UNK         0.0600 
    219 H219       -2.3017  -24.8753  -54.1167 H         1 UNK         0.0600 
    220 H220       -5.8834  -25.4932  -51.4976 H         1 UNK         0.3000 
    221 H221       -7.9478  -24.8600  -51.8767 H         1 UNK         0.0600 
    222 H222       -7.6416  -26.1277  -54.6503 H         1 UNK         0.0600 
    223 H223       -8.0599  -26.9858  -53.1680 H         1 UNK         0.0600 
    224 H224       -9.1542  -25.7799  -53.8257 H         1 UNK         0.0600 
    225 H225       -6.4517  -22.7693  -51.8734 H         1 UNK         0.3000 
    226 H226       -6.2781  -20.6436  -52.2919 H         1 UNK         0.0600 
    227 H227       -8.7672  -20.6801  -52.1543 H         1 UNK         0.0600 
    228 H228       -8.1930  -19.4039  -53.2142 H         1 UNK         0.0600 
    229 H229       -8.8716  -20.8708  -53.9043 H         1 UNK         0.0600 
    230 H230       -4.5432  -22.0775  -53.7603 H         1 UNK         0.3000 
    231 H231       -4.4515  -21.0730  -56.5166 H         1 UNK         0.0600 
    232 H232       -2.3372  -22.5679  -54.8853 H         1 UNK         0.0600 
    233 H233       -2.3600  -22.3407  -56.6262 H         1 UNK         0.0600 
    234 H234       -3.5796  -23.3499  -55.8652 H         1 UNK         0.0600 
    235 H235       -3.8769  -19.7043  -53.5369 H         1 UNK         0.3000 
    236 H236       -2.9321  -17.8819  -52.7246 H         1 UNK         0.0600 
    237 H237       -3.8583  -16.7078  -54.7155 H         1 UNK         0.0600 
    238 H238       -2.3498  -15.9780  -54.1898 H         1 UNK         0.0600 
    239 H239       -2.3676  -17.0098  -55.6072 H         1 UNK         0.0600 
    240 H240       -1.5157  -20.1236  -52.6221 H         1 UNK         0.3000 
    241 H241        0.3744  -21.0828  -52.2000 H         1 UNK         0.0600 
    242 H242        3.6004  -20.0231  -54.0172 H         1 UNK         0.3800 
    243 H243        3.2247  -19.6419  -52.3601 H         1 UNK         0.3800 
    244 H244        0.2698  -19.5549  -50.3145 H         1 UNK         0.0800 
    245 H245        1.8966  -20.0364  -50.6601 H         1 UNK         0.0800 
    246 H246        1.5340  -17.7300  -48.6777 H         1 UNK         0.0800 
    247 H247        1.4685  -16.0963  -49.2920 H         1 UNK         0.0800 
@<TRIPOS>BOND
     1    1    2 1    
     2    1  127 1    
     3    1  128 1    
     4    1  129 1    
     5    2    3 2    
     6    2    4 am   BACKBONE|DICT|INTERRES
     7    4    5 1    
     8    4  130 1    
     9    5    6 1    
    10    5   65 1    
    11    5  131 1    
    12    6    7 1    
    13    6  132 1    
    14    6  133 1    
    15    7    8 1    
    16    8    9 1    
    17    8  134 1    
    18    8  135 1    
    19    9   10 ar   
    20    9   14 ar   
    21   10   11 ar   
    22   10  136 1    
    23   11   12 ar   
    24   11  126 1    
    25   12   13 ar   
    26   12  137 1    
    27   13   14 ar   
    28   13   15 1    
    29   14  138 1    
    30   15   16 1    
    31   15  139 1    
    32   15  140 1    
    33   16   17 1    
    34   17   18 1    
    35   17  141 1    
    36   17  142 1    
    37   18   19 1    
    38   18   67 1    
    39   18  143 1    
    40   19   20 am   BACKBONE|DICT|INTERRES
    41   19  144 1    
    42   20   21 2    
    43   20   22 1    
    44   22   23 1    
    45   22   24 1    
    46   22  145 1    
    47   23  146 1    
    48   23  147 1    
    49   23  148 1    
    50   24   25 am   BACKBONE|DICT|INTERRES
    51   24  149 1    
    52   25   26 2    
    53   25   27 1    
    54   27   28 1    
    55   27   29 1    
    56   27  150 1    
    57   28  151 1    
    58   28  152 1    
    59   28  153 1    
    60   29   30 am   BACKBONE|DICT|INTERRES
    61   29  154 1    
    62   30   31 2    
    63   30   32 1    
    64   32   33 1    
    65   32   34 1    
    66   32  155 1    
    67   33  156 1    
    68   33  157 1    
    69   33  158 1    
    70   34   35 am   BACKBONE|DICT|INTERRES
    71   34  159 1    
    72   35   36 2    
    73   35   37 1    
    74   37   38 1    
    75   37   39 1    
    76   37  160 1    
    77   38  161 1    
    78   38  162 1    
    79   38  163 1    
    80   39   40 am   BACKBONE|DICT|INTERRES
    81   39  164 1    
    82   40   41 2    
    83   40   42 1    
    84   42   43 1    
    85   42   44 1    
    86   42  165 1    
    87   43  166 1    
    88   43  167 1    
    89   43  168 1    
    90   44   45 am   BACKBONE|DICT|INTERRES
    91   44  169 1    
    92   45   46 2    
    93   45   47 1    
    94   47   48 1    
    95   47   49 1    
    96   47  170 1    
    97   48  171 1    
    98   48  172 1    
    99   48  173 1    
   100   49   50 am   BACKBONE|DICT|INTERRES
   101   49  174 1    
   102   50   51 2    
   103   50   52 1    
   104   52   53 1    
   105   52   54 1    
   106   52  175 1    
   107   53  176 1    
   108   53  177 1    
   109   53  178 1    
   110   54   55 am   BACKBONE|DICT|INTERRES
   111   54  179 1    
   112   55   56 2    
   113   55   57 1    
   114   57   58 1    
   115   57   59 1    
   116   57  180 1    
   117   58  181 1    
   118   58  182 1    
   119   58  183 1    
   120   59   60 am   BACKBONE|DICT|INTERRES
   121   59  184 1    
   122   60   61 2    
   123   60   62 1    
   124   62   63 1    
   125   62   64 1    
   126   62  185 1    
   127   63  186 1    
   128   63  187 1    
   129   63  188 1    
   130   64   65 am   BACKBONE|DICT|INTERRES
   131   64  189 1    
   132   65   66 2    
   133   67   68 2    
   134   67   69 am   BACKBONE|DICT|INTERRES
   135   69   70 1    
   136   69  190 1    
   137   70   71 1    
   138   70   72 1    
   139   70  191 1    
   140   71  192 1    
   141   71  193 1    
   142   71  194 1    
   143   72   73 2    
   144   72   74 am   BACKBONE|DICT|INTERRES
   145   74   75 1    
   146   74  195 1    
   147   75   76 1    
   148   75   77 1    
   149   75  196 1    
   150   76  197 1    
   151   76  198 1    
   152   76  199 1    
   153   77   78 2    
   154   77   79 am   BACKBONE|DICT|INTERRES
   155   79   80 1    
   156   79  200 1    
   157   80   81 1    
   158   80   82 1    
   159   80  201 1    
   160   81  202 1    
   161   81  203 1    
   162   81  204 1    
   163   82   83 2    
   164   82   84 am   BACKBONE|DICT|INTERRES
   165   84   85 1    
   166   84  205 1    
   167   85   86 1    
   168   85   87 1    
   169   85  206 1    
   170   86  207 1    
   171   86  208 1    
   172   86  209 1    
   173   87   88 2    
   174   87   89 am   BACKBONE|DICT|INTERRES
   175   89   90 1    
   176   89  210 1    
   177   90   91 1    
   178   90   92 1    
   179   90  211 1    
   180   91  212 1    
   181   91  213 1    
   182   91  214 1    
   183   92   93 2    
   184   92   94 am   BACKBONE|DICT|INTERRES
   185   94   95 1    
   186   94  215 1    
   187   95   96 1    
   188   95   97 1    
   189   95  216 1    
   190   96  217 1    
   191   96  218 1    
   192   96  219 1    
   193   97   98 2    
   194   97   99 am   BACKBONE|DICT|INTERRES
   195   99  100 1    
   196   99  220 1    
   197  100  101 1    
   198  100  102 1    
   199  100  221 1    
   200  101  222 1    
   201  101  223 1    
   202  101  224 1    
   203  102  103 2    
   204  102  104 am   BACKBONE|DICT|INTERRES
   205  104  105 1    
   206  104  225 1    
   207  105  106 1    
   208  105  107 1    
   209  105  226 1    
   210  106  227 1    
   211  106  228 1    
   212  106  229 1    
   213  107  108 2    
   214  107  109 am   BACKBONE|DICT|INTERRES
   215  109  110 1    
   216  109  230 1    
   217  110  111 1    
   218  110  112 1    
   219  110  231 1    
   220  111  232 1    
   221  111  233 1    
   222  111  234 1    
   223  112  113 2    
   224  112  114 am   BACKBONE|DICT|INTERRES
   225  114  115 1    
   226  114  235 1    
   227  115  116 1    
   228  115  117 1    
   229  115  236 1    
   230  116  237 1    
   231  116  238 1    
   232  116  239 1    
   233  117  118 2    
   234  117  119 am   BACKBONE|DICT|INTERRES
   235  119  120 1    
   236  119  240 1    
   237  120  121 1    
   238  120  124 1    
   239  120  241 1    
   240  121  122 am   BACKBONE|DICT|INTERRES
   241  121  123 2    
   242  122  242 1    
   243  122  243 1    
   244  124  125 1    
   245  124  244 1    
   246  124  245 1    
   247  125  126 1    
   248  126  246 1    
   249  126  247 1    
@<TRIPOS>SUBSTRUCTURE
     1 UNK         1 GROUP             0       ****    0 ROOT    
