@<TRIPOS>MOLECULE
3R540
247   249    1
SMALL
USER_CHARGES


@<TRIPOS>ATOM
      1 CA          0.5780  -12.1406  -52.8177 C.3       0 UNK        -0.1800 
      2 C           0.7463  -12.9276  -51.5259 C.2       0 UNK         0.5000 
      3 O           1.5647  -13.8450  -51.4720 O.2       0 UNK        -0.5000 
      4 N          -0.0312  -12.5779  -50.4925 N.am      1 UNK        -0.5000 
      5 CA         -0.0119  -13.2265  -49.1749 C.3       1 UNK         0.1400 
      6 C6         -1.3025  -12.9101  -48.3750 C.3       23 UNK        -0.0398 
      7 S7         -1.8041  -14.2611  -47.2534 S.3       23 UNK        -0.2404 
      8 C8         -3.2022  -15.0130  -48.1456 C.3       23 UNK        -0.0205 
      9 C9         -2.7445  -16.0635  -49.1464 C.ar      23 UNK        -0.0193 
     10 C10        -2.2938  -15.6887  -50.4155 C.ar      23 UNK        -0.1150 
     11 C11        -1.8976  -16.6577  -51.3417 C.ar      23 UNK        -0.0193 
     12 C12        -1.9678  -18.0112  -50.9983 C.ar      23 UNK        -0.1150 
     13 C13        -2.4366  -18.3986  -49.7404 C.ar      23 UNK        -0.0193 
     14 C14        -2.8092  -17.4201  -48.8144 C.ar      23 UNK        -0.1150 
     15 C15        -2.5905  -19.8698  -49.3925 C.3       23 UNK        -0.0205 
     16 S16        -1.1663  -20.4840  -48.4452 S.3       23 UNK        -0.2404 
     17 C17        -1.9937  -21.6074  -47.2707 C.3       23 UNK        -0.0398 
     18 CA         -1.1042  -22.8042  -46.8629 C.3       11 UNK         0.1400 
     19 N           0.0342  -22.4195  -46.0272 N.am      11 UNK        -0.5000 
     20 C           1.0337  -23.2370  -45.6696 C.2       10 UNK         0.5000 
     21 O           1.1191  -24.4089  -46.0354 O.2       10 UNK        -0.5000 
     22 CA          2.0834  -22.6715  -44.6960 C.3       10 UNK         0.1400 
     23 CB          3.0903  -21.7712  -45.4270 C.3       10 UNK        -0.1800 
     24 N           1.4757  -21.9383  -43.5849 N.am      10 UNK        -0.5000 
     25 C           0.6769  -22.4910  -42.6607 C.2       9 UNK         0.5000 
     26 O           0.4068  -23.6924  -42.6209 O.2       9 UNK        -0.5000 
     27 CA          0.0364  -21.5348  -41.6375 C.3       9 UNK         0.1400 
     28 CB          1.0239  -21.1804  -40.5156 C.3       9 UNK        -0.1800 
     29 N          -0.4634  -20.3077  -42.2584 N.am      9 UNK        -0.5000 
     30 C          -1.4856  -20.2640  -43.1251 C.2       8 UNK         0.5000 
     31 O          -2.1396  -21.2501  -43.4634 O.2       8 UNK        -0.5000 
     32 CA         -1.7981  -18.8980  -43.7623 C.3       8 UNK         0.1400 
     33 CB         -2.6500  -18.0409  -42.8150 C.3       8 UNK        -0.1800 
     34 N          -0.5958  -18.1596  -44.1534 N.am      8 UNK        -0.5000 
     35 C           0.3129  -18.6090  -45.0309 C.2       7 UNK         0.5000 
     36 O           0.2223  -19.6885  -45.6063 O.2       7 UNK        -0.5000 
     37 CA          1.5679  -17.7547  -45.2584 C.3       7 UNK         0.1400 
     38 CB          1.2746  -16.5987  -46.2187 C.3       7 UNK        -0.1800 
     39 N           2.1347  -17.2424  -44.0131 N.am      7 UNK        -0.5000 
     40 C           2.6108  -18.0105  -43.0228 C.2       6 UNK         0.5000 
     41 O           2.6363  -19.2412  -43.0596 O.2       6 UNK        -0.5000 
     42 CA          3.1062  -17.2783  -41.7664 C.3       6 UNK         0.1400 
     43 CB          4.5356  -16.7508  -41.9645 C.3       6 UNK        -0.1800 
     44 N           2.2187  -16.1714  -41.4147 N.am      6 UNK        -0.5000 
     45 C           1.0294  -16.3223  -40.8162 C.2       5 UNK         0.5000 
     46 O           0.5793  -17.4092  -40.4511 O.2       5 UNK        -0.5000 
     47 CA          0.1919  -15.0442  -40.6179 C.3       5 UNK         0.1400 
     48 CB          0.6194  -14.3085  -39.3390 C.3       5 UNK        -0.1800 
     49 N           0.2714  -14.1246  -41.7558 N.am      5 UNK        -0.5000 
     50 C          -0.2127  -14.3975  -42.9749 C.2       4 UNK         0.5000 
     51 O          -0.7821  -15.4489  -43.2608 O.2       4 UNK        -0.5000 
     52 CA         -0.0002  -13.3397  -44.0714 C.3       4 UNK         0.1400 
     53 CB         -1.1441  -12.3154  -44.0668 C.3       4 UNK        -0.1800 
     54 N           1.2803  -12.6324  -44.0294 N.am      4 UNK        -0.5000 
     55 C           2.4948  -13.1959  -44.0157 C.2       3 UNK         0.5000 
     56 O           2.6949  -14.4006  -43.8487 O.2       3 UNK        -0.5000 
     57 CA          3.6745  -12.2444  -44.2956 C.3       3 UNK         0.1400 
     58 CB          5.0212  -12.8350  -43.8412 C.3       3 UNK        -0.1800 
     59 N           3.7462  -11.9478  -45.7267 N.am      3 UNK        -0.5000 
     60 C           2.9137  -11.1406  -46.3989 C.2       2 UNK         0.5000 
     61 O           2.0628  -10.4351  -45.8520 O.2       2 UNK        -0.5000 
     62 CA          3.0173  -11.1294  -47.9404 C.3       2 UNK         0.1400 
     63 CB          4.2736  -11.8374  -48.4967 C.3       2 UNK        -0.1800 
     64 N           1.8070  -11.6717  -48.5713 N.am      2 UNK        -0.5000 
     65 C           1.2634  -12.8850  -48.3705 C.2       1 UNK         0.5000 
     66 O           1.7381  -13.7272  -47.6114 O.2       1 UNK        -0.5000 
     67 C          -1.9569  -23.9023  -46.2033 C.2       11 UNK         0.5000 
     68 O          -2.3459  -24.8407  -46.8953 O.2       11 UNK        -0.5000 
     69 N          -2.2030  -23.8001  -44.8890 N.am      12 UNK        -0.5000 
     70 CA         -2.9254  -24.8085  -44.1105 C.3       12 UNK         0.1400 
     71 CB         -3.1777  -24.2894  -42.6872 C.3       12 UNK        -0.1800 
     72 C          -2.2047  -26.1692  -44.0794 C.2       12 UNK         0.5000 
     73 O          -2.8618  -27.2028  -44.2050 O.2       12 UNK        -0.5000 
     74 N          -0.8701  -26.1444  -43.9552 N.am      13 UNK        -0.5000 
     75 CA         -0.0136  -27.3296  -44.0185 C.3       13 UNK         0.1400 
     76 CB          1.3959  -26.9681  -43.5254 C.3       13 UNK        -0.1800 
     77 C           0.0379  -27.9526  -45.4278 C.2       13 UNK         0.5000 
     78 O           0.0012  -29.1773  -45.5525 O.2       13 UNK        -0.5000 
     79 N           0.1083  -27.1022  -46.4608 N.am      14 UNK        -0.5000 
     80 CA          0.1482  -27.4961  -47.8718 C.3       14 UNK         0.1400 
     81 CB          0.6881  -26.3156  -48.6952 C.3       14 UNK        -0.1800 
     82 C          -1.2128  -27.9506  -48.4381 C.2       14 UNK         0.5000 
     83 O          -1.2367  -28.5813  -49.4957 O.2       14 UNK        -0.5000 
     84 N          -2.3080  -27.5959  -47.7505 N.am      15 UNK        -0.5000 
     85 CA         -3.7091  -27.7113  -48.1728 C.3       15 UNK         0.1400 
     86 CB         -4.1255  -29.1846  -48.3657 C.3       15 UNK        -0.1800 
     87 C          -4.0233  -26.8134  -49.3912 C.2       15 UNK         0.5000 
     88 O          -4.7599  -27.2147  -50.2944 O.2       15 UNK        -0.5000 
     89 N          -3.4453  -25.6073  -49.3837 N.am      16 UNK        -0.5000 
     90 CA         -3.6427  -24.5489  -50.3701 C.3       16 UNK         0.1400 
     91 CB         -2.2929  -23.8483  -50.5915 C.3       16 UNK        -0.1800 
     92 C          -4.7022  -23.5461  -49.8768 C.2       16 UNK         0.5000 
     93 O          -5.0525  -23.5472  -48.6936 O.2       16 UNK        -0.5000 
     94 N          -5.1796  -22.6912  -50.7874 N.am      17 UNK        -0.5000 
     95 CA         -6.1690  -21.6511  -50.5178 C.3       17 UNK         0.1400 
     96 CB         -7.5468  -22.1219  -51.0106 C.3       17 UNK        -0.1800 
     97 C          -5.7571  -20.3530  -51.2228 C.2       17 UNK         0.5000 
     98 O          -5.1458  -20.4035  -52.2944 O.2       17 UNK        -0.5000 
     99 N          -6.1186  -19.2169  -50.6134 N.am      18 UNK        -0.5000 
    100 CA        -5.8867  -17.8710  -51.1388 C.3       18 UNK         0.1400 
    101 CB        -6.3114  -16.8392  -50.0833 C.3       18 UNK        -0.1800 
    102 C         -6.6270  -17.6289  -52.4663 C.2       18 UNK         0.5000 
    103 O         -7.6807  -18.2245  -52.7053 O.2       18 UNK        -0.5000 
    104 N         -6.0366  -16.7783  -53.3137 N.am      19 UNK        -0.5000 
    105 CA        -6.3948  -16.4589  -54.7019 C.3       19 UNK         0.1400 
    106 CB        -7.8312  -15.9152  -54.8243 C.3       19 UNK        -0.1800 
    107 C         -6.1403  -17.6217  -55.6814 C.2       19 UNK         0.5000 
    108 O         -5.5585  -17.3971  -56.7426 O.2       19 UNK        -0.5000 
    109 N         -6.5513  -18.8387  -55.3045 N.am      20 UNK        -0.5000 
    110 CA        -6.3908  -20.0703  -56.0743 C.3       20 UNK         0.1400 
    111 CB        -7.2076  -21.1905  -55.4108 C.3       20 UNK        -0.1800 
    112 C         -4.9183  -20.4867  -56.2335 C.2       20 UNK         0.5000 
    113 O         -4.4798  -20.7571  -57.3524 O.2       20 UNK        -0.5000 
    114 N         -4.1773  -20.5180  -55.1175 N.am      21 UNK        -0.5000 
    115 CA        -2.7712  -20.9294  -55.0811 C.3       21 UNK         0.1400 
    116 CB        -2.4406  -21.4329  -53.6694 C.3       21 UNK        -0.1800 
    117 C         -1.7873  -19.8225  -55.5068 C.2       21 UNK         0.5000 
    118 O         -0.6057  -20.1141  -55.6963 O.2       21 UNK        -0.5000 
    119 N         -2.2700  -18.5802  -55.6341 N.am      22 UNK        -0.5000 
    120 CA        -1.4570  -17.3954  -55.9607 C.3       22 UNK         0.1400 
    121 C         -1.0209  -17.2927  -57.4523 C.2       22 UNK         0.5000 
    122 N         -1.5453  -18.1089  -58.3587 N.am      22 UNK        -0.7600 
    123 O         -0.1858  -16.4591  -57.7920 O.2       22 UNK        -0.5000 
    124 C124       -2.1145  -16.0681  -55.4911 C.3       23 UNK        -0.0398 
    125 S125       -2.8758  -16.1373  -53.8343 S.3       23 UNK        -0.2404 
    126 C126       -1.4397  -16.2493  -52.7308 C.3       23 UNK        -0.0205 
    127 H127       -0.1789  -11.3615  -52.7234 H         1 UNK         0.0600 
    128 H128        0.2793  -12.8080  -53.6262 H         1 UNK         0.0600 
    129 H129        1.5203  -11.6678  -53.0945 H         1 UNK         0.0600 
    130 H130       -0.6825  -11.8136  -50.6031 H         1 UNK         0.3000 
    131 H131        0.0159  -14.3030  -49.3596 H         1 UNK         0.0600 
    132 H132       -1.1947  -11.9937  -47.7916 H         1 UNK         0.0800 
    133 H133       -2.1308  -12.7143  -49.0565 H         1 UNK         0.0800 
    134 H134       -3.8676  -15.4695  -47.4113 H         1 UNK         0.0800 
    135 H135       -3.7974  -14.2480  -48.6458 H         1 UNK         0.0800 
    136 H136       -2.2602  -14.6438  -50.6882 H         1 UNK         0.1150 
    137 H137       -1.6826  -18.7627  -51.7205 H         1 UNK         0.1150 
    138 H138       -3.1692  -17.7184  -47.8397 H         1 UNK         0.1150 
    139 H139       -3.5113  -19.9982  -48.8218 H         1 UNK         0.0800 
    140 H140       -2.7055  -20.4703  -50.2962 H         1 UNK         0.0800 
    141 H141       -2.9137  -21.9658  -47.7364 H         1 UNK         0.0800 
    142 H142       -2.2981  -21.0354  -46.3926 H         1 UNK         0.0800 
    143 H143       -0.6847  -23.2392  -47.7712 H         1 UNK         0.0600 
    144 H144        0.0688  -21.4420  -45.7377 H         1 UNK         0.3000 
    145 H145        2.6317  -23.5164  -44.2742 H         1 UNK         0.0600 
    146 H146        3.8633  -21.4119  -44.7474 H         1 UNK         0.0600 
    147 H147        3.5884  -22.3165  -46.2295 H         1 UNK         0.0600 
    148 H148        2.6077  -20.9017  -45.8725 H         1 UNK         0.0600 
    149 H149        1.6727  -20.9437  -43.5309 H         1 UNK         0.3000 
    150 H150       -0.8133  -22.0525  -41.1874 H         1 UNK         0.0600 
    151 H151        1.3809  -22.0802  -40.0130 H         1 UNK         0.0600 
    152 H152        0.5527  -20.5505  -39.7607 H         1 UNK         0.0600 
    153 H153        1.8966  -20.6488  -40.8951 H         1 UNK         0.0600 
    154 H154        0.0337  -19.4529  -42.0489 H         1 UNK         0.3000 
    155 H155       -2.3792  -19.0823  -44.6681 H         1 UNK         0.0600 
    156 H156       -2.0942  -17.7580  -41.9198 H         1 UNK         0.0600 
    157 H157       -2.9822  -17.1259  -43.3056 H         1 UNK         0.0600 
    158 H158       -3.5427  -18.5792  -42.4941 H         1 UNK         0.0600 
    159 H159       -0.4802  -17.2337  -43.7481 H         1 UNK         0.3000 
    160 H160        2.3233  -18.3914  -45.7231 H         1 UNK         0.0600 
    161 H161        2.1761  -16.0186  -46.4138 H         1 UNK         0.0600 
    162 H162        0.5192  -15.9250  -45.8180 H         1 UNK         0.0600 
    163 H163        0.9068  -16.9668  -47.1774 H         1 UNK         0.0600 
    164 H164        2.1891  -16.2319  -43.9146 H         1 UNK         0.3000 
    165 H165        3.1210  -17.9950  -40.9422 H         1 UNK         0.0600 
    166 H166        4.9059  -16.2680  -41.0601 H         1 UNK         0.0600 
    167 H167        5.2206  -17.5656  -42.2023 H         1 UNK         0.0600 
    168 H168        4.5933  -16.0269  -42.7780 H         1 UNK         0.0600 
    169 H169        2.4756  -15.2580  -41.7642 H         1 UNK         0.3000 
    170 H170       -0.8509  -15.3482  -40.5029 H         1 UNK         0.0600 
    171 H171        1.6482  -13.9521  -39.4030 H         1 UNK         0.0600 
    172 H172       -0.0228  -13.4492  -39.1450 H         1 UNK         0.0600 
    173 H173        0.5527  -14.9654  -38.4706 H         1 UNK         0.0600 
    174 H174        0.7363  -13.2412  -41.6062 H         1 UNK         0.3000 
    175 H175       -0.0241  -13.8622  -45.0266 H         1 UNK         0.0600 
    176 H176       -1.0713  -11.6409  -44.9203 H         1 UNK         0.0600 
    177 H177       -1.1410  -11.7124  -43.1581 H         1 UNK         0.0600 
    178 H178       -2.1132  -12.8124  -44.1310 H         1 UNK         0.0600 
    179 H179        1.2421  -11.6435  -44.2452 H         1 UNK         0.3000 
    180 H180        3.5073  -11.3178  -43.7424 H         1 UNK         0.0600 
    181 H181        5.2677  -13.7485  -44.3842 H         1 UNK         0.0600 
    182 H182        5.0004  -13.0807  -42.7787 H         1 UNK         0.0600 
    183 H183        5.8340  -12.1251  -43.9948 H         1 UNK         0.0600 
    184 H184        4.3751  -12.5254  -46.2652 H         1 UNK         0.3000 
    185 H185        3.0765  -10.0798  -48.2318 H         1 UNK         0.0600 
    186 H186        4.2774  -12.9065  -48.2813 H         1 UNK         0.0600 
    187 H187        4.3333  -11.7235  -49.5792 H         1 UNK         0.0600 
    188 H188        5.1857  -11.4080  -48.0801 H         1 UNK         0.0600 
    189 H189        1.3342  -11.0478  -49.2092 H         1 UNK         0.3000 
    190 H190       -1.8981  -22.9711  -44.3872 H         1 UNK         0.3000 
    191 H191       -3.8949  -24.9616  -44.5893 H         1 UNK         0.0600 
    192 H192       -3.7741  -23.3772  -42.7011 H         1 UNK         0.0600 
    193 H193       -3.7229  -25.0244  -42.0938 H         1 UNK         0.0600 
    194 H194       -2.2458  -24.0717  -42.1653 H         1 UNK         0.0600 
    195 H195       -0.4090  -25.2518  -43.8159 H         1 UNK         0.3000 
    196 H196       -0.4249  -28.0794  -43.3394 H         1 UNK         0.0600 
    197 H197        2.0480  -27.8423  -43.5318 H         1 UNK         0.0600 
    198 H198        1.3699  -26.5880  -42.5040 H         1 UNK         0.0600 
    199 H199        1.8612  -26.2066  -44.1517 H         1 UNK         0.0600 
    200 H200        0.2075  -26.1095  -46.2663 H         1 UNK         0.3000 
    201 H201        0.8432  -28.3315  -47.9774 H         1 UNK         0.0600 
    202 H202        1.6780  -26.0142  -48.3521 H         1 UNK         0.0600 
    203 H203        0.0312  -25.4478  -48.6277 H         1 UNK         0.0600 
    204 H204        0.7761  -26.5788  -49.7500 H         1 UNK         0.0600 
    205 H205       -2.1585  -27.0188  -46.9320 H         1 UNK         0.3000 
    206 H206       -4.3004  -27.3123  -47.3473 H         1 UNK         0.0600 
    207 H207       -3.8788  -29.7815  -47.4876 H         1 UNK         0.0600 
    208 H208       -5.2017  -29.2661  -48.5214 H         1 UNK         0.0600 
    209 H209       -3.6381  -29.6382  -49.2288 H         1 UNK         0.0600 
    210 H210       -2.9467  -25.3360  -48.5386 H         1 UNK         0.3000 
    211 H211       -3.9799  -24.9749  -51.3172 H         1 UNK         0.0600 
    212 H212       -1.9229  -23.3931  -49.6754 H         1 UNK         0.0600 
    213 H213       -2.3711  -23.0555  -51.3329 H         1 UNK         0.0600 
    214 H214       -1.5372  -24.5504  -50.9445 H         1 UNK         0.0600 
    215 H215       -4.8064  -22.6856  -51.7271 H         1 UNK         0.3000 
    216 H216       -6.2246  -21.4490  -49.4459 H         1 UNK         0.0600 
    217 H217       -8.3076  -21.3600  -50.8363 H         1 UNK         0.0600 
    218 H218       -7.8639  -23.0244  -50.4879 H         1 UNK         0.0600 
    219 H219       -7.5385  -22.3392  -52.0794 H         1 UNK         0.0600 
    220 H220       -6.6563  -19.2707  -49.7614 H         1 UNK         0.3000 
    221 H221       -4.8158  -17.7654  -51.3193 H         1 UNK         0.0600 
    222 H222       -7.3802  -16.8953  -49.8730 H         1 UNK         0.0600 
    223 H223       -5.7759  -16.9888  -49.1458 H         1 UNK         0.0600 
    224 H224       -6.0942  -15.8246  -50.4197 H         1 UNK         0.0600 
    225 H225       -5.1539  -16.3768  -53.0234 H         1 UNK         0.3000 
    226 H226       -5.7222  -15.6519  -54.9966 H         1 UNK         0.0600 
    227 H227       -7.9951  -15.0785  -54.1452 H         1 UNK         0.0600 
    228 H228       -8.0215  -15.5552  -55.8360 H         1 UNK         0.0600 
    229 H229       -8.5809  -16.6762  -54.6077 H         1 UNK         0.0600 
    230 H230       -7.0185  -18.9136  -54.4058 H         1 UNK         0.3000 
    231 H231       -6.7985  -19.8974  -57.0725 H         1 UNK         0.0600 
    232 H232       -6.8775  -21.3797  -54.3886 H         1 UNK         0.0600 
    233 H233       -7.1133  -22.1248  -55.9656 H         1 UNK         0.0600 
    234 H234       -8.2675  -20.9378  -55.3773 H         1 UNK         0.0600 
    235 H235       -4.6089  -20.3046  -54.2224 H         1 UNK         0.3000 
    236 H236       -2.6327  -21.7646  -55.7710 H         1 UNK         0.0600 
    237 H237       -3.1066  -22.2476  -53.3872 H         1 UNK         0.0600 
    238 H238       -1.4193  -21.8115  -53.6131 H         1 UNK         0.0600 
    239 H239       -2.5401  -20.6418  -52.9265 H         1 UNK         0.0600 
    240 H240       -3.2533  -18.4221  -55.4727 H         1 UNK         0.3000 
    241 H241       -0.5243  -17.4951  -55.4030 H         1 UNK         0.0600 
    242 H242       -2.2356  -18.7936  -58.0914 H         1 UNK         0.3800 
    243 H243       -1.2542  -18.0377  -59.3212 H         1 UNK         0.3800 
    244 H244       -1.3859  -15.2557  -55.5055 H         1 UNK         0.0800 
    245 H245       -2.9041  -15.7781  -56.1869 H         1 UNK         0.0800 
    246 H246       -0.9219  -15.2899  -52.6992 H         1 UNK         0.0800 
    247 H247       -0.7258  -16.9799  -53.1123 H         1 UNK         0.0800 
@<TRIPOS>BOND
     1    1    2 1    
     2    1  127 1    
     3    1  128 1    
     4    1  129 1    
     5    2    3 2    
     6    2    4 am   BACKBONE|DICT|INTERRES
     7    4    5 1    
     8    4  130 1    
     9    5    6 1    
    10    5   65 1    
    11    5  131 1    
    12    6    7 1    
    13    6  132 1    
    14    6  133 1    
    15    7    8 1    
    16    8    9 1    
    17    8  134 1    
    18    8  135 1    
    19    9   10 ar   
    20    9   14 ar   
    21   10   11 ar   
    22   10  136 1    
    23   11   12 ar   
    24   11  126 1    
    25   12   13 ar   
    26   12  137 1    
    27   13   14 ar   
    28   13   15 1    
    29   14  138 1    
    30   15   16 1    
    31   15  139 1    
    32   15  140 1    
    33   16   17 1    
    34   17   18 1    
    35   17  141 1    
    36   17  142 1    
    37   18   19 1    
    38   18   67 1    
    39   18  143 1    
    40   19   20 am   BACKBONE|DICT|INTERRES
    41   19  144 1    
    42   20   21 2    
    43   20   22 1    
    44   22   23 1    
    45   22   24 1    
    46   22  145 1    
    47   23  146 1    
    48   23  147 1    
    49   23  148 1    
    50   24   25 am   BACKBONE|DICT|INTERRES
    51   24  149 1    
    52   25   26 2    
    53   25   27 1    
    54   27   28 1    
    55   27   29 1    
    56   27  150 1    
    57   28  151 1    
    58   28  152 1    
    59   28  153 1    
    60   29   30 am   BACKBONE|DICT|INTERRES
    61   29  154 1    
    62   30   31 2    
    63   30   32 1    
    64   32   33 1    
    65   32   34 1    
    66   32  155 1    
    67   33  156 1    
    68   33  157 1    
    69   33  158 1    
    70   34   35 am   BACKBONE|DICT|INTERRES
    71   34  159 1    
    72   35   36 2    
    73   35   37 1    
    74   37   38 1    
    75   37   39 1    
    76   37  160 1    
    77   38  161 1    
    78   38  162 1    
    79   38  163 1    
    80   39   40 am   BACKBONE|DICT|INTERRES
    81   39  164 1    
    82   40   41 2    
    83   40   42 1    
    84   42   43 1    
    85   42   44 1    
    86   42  165 1    
    87   43  166 1    
    88   43  167 1    
    89   43  168 1    
    90   44   45 am   BACKBONE|DICT|INTERRES
    91   44  169 1    
    92   45   46 2    
    93   45   47 1    
    94   47   48 1    
    95   47   49 1    
    96   47  170 1    
    97   48  171 1    
    98   48  172 1    
    99   48  173 1    
   100   49   50 am   BACKBONE|DICT|INTERRES
   101   49  174 1    
   102   50   51 2    
   103   50   52 1    
   104   52   53 1    
   105   52   54 1    
   106   52  175 1    
   107   53  176 1    
   108   53  177 1    
   109   53  178 1    
   110   54   55 am   BACKBONE|DICT|INTERRES
   111   54  179 1    
   112   55   56 2    
   113   55   57 1    
   114   57   58 1    
   115   57   59 1    
   116   57  180 1    
   117   58  181 1    
   118   58  182 1    
   119   58  183 1    
   120   59   60 am   BACKBONE|DICT|INTERRES
   121   59  184 1    
   122   60   61 2    
   123   60   62 1    
   124   62   63 1    
   125   62   64 1    
   126   62  185 1    
   127   63  186 1    
   128   63  187 1    
   129   63  188 1    
   130   64   65 am   BACKBONE|DICT|INTERRES
   131   64  189 1    
   132   65   66 2    
   133   67   68 2    
   134   67   69 am   BACKBONE|DICT|INTERRES
   135   69   70 1    
   136   69  190 1    
   137   70   71 1    
   138   70   72 1    
   139   70  191 1    
   140   71  192 1    
   141   71  193 1    
   142   71  194 1    
   143   72   73 2    
   144   72   74 am   BACKBONE|DICT|INTERRES
   145   74   75 1    
   146   74  195 1    
   147   75   76 1    
   148   75   77 1    
   149   75  196 1    
   150   76  197 1    
   151   76  198 1    
   152   76  199 1    
   153   77   78 2    
   154   77   79 am   BACKBONE|DICT|INTERRES
   155   79   80 1    
   156   79  200 1    
   157   80   81 1    
   158   80   82 1    
   159   80  201 1    
   160   81  202 1    
   161   81  203 1    
   162   81  204 1    
   163   82   83 2    
   164   82   84 am   BACKBONE|DICT|INTERRES
   165   84   85 1    
   166   84  205 1    
   167   85   86 1    
   168   85   87 1    
   169   85  206 1    
   170   86  207 1    
   171   86  208 1    
   172   86  209 1    
   173   87   88 2    
   174   87   89 am   BACKBONE|DICT|INTERRES
   175   89   90 1    
   176   89  210 1    
   177   90   91 1    
   178   90   92 1    
   179   90  211 1    
   180   91  212 1    
   181   91  213 1    
   182   91  214 1    
   183   92   93 2    
   184   92   94 am   BACKBONE|DICT|INTERRES
   185   94   95 1    
   186   94  215 1    
   187   95   96 1    
   188   95   97 1    
   189   95  216 1    
   190   96  217 1    
   191   96  218 1    
   192   96  219 1    
   193   97   98 2    
   194   97   99 am   BACKBONE|DICT|INTERRES
   195   99  100 1    
   196   99  220 1    
   197  100  101 1    
   198  100  102 1    
   199  100  221 1    
   200  101  222 1    
   201  101  223 1    
   202  101  224 1    
   203  102  103 2    
   204  102  104 am   BACKBONE|DICT|INTERRES
   205  104  105 1    
   206  104  225 1    
   207  105  106 1    
   208  105  107 1    
   209  105  226 1    
   210  106  227 1    
   211  106  228 1    
   212  106  229 1    
   213  107  108 2    
   214  107  109 am   BACKBONE|DICT|INTERRES
   215  109  110 1    
   216  109  230 1    
   217  110  111 1    
   218  110  112 1    
   219  110  231 1    
   220  111  232 1    
   221  111  233 1    
   222  111  234 1    
   223  112  113 2    
   224  112  114 am   BACKBONE|DICT|INTERRES
   225  114  115 1    
   226  114  235 1    
   227  115  116 1    
   228  115  117 1    
   229  115  236 1    
   230  116  237 1    
   231  116  238 1    
   232  116  239 1    
   233  117  118 2    
   234  117  119 am   BACKBONE|DICT|INTERRES
   235  119  120 1    
   236  119  240 1    
   237  120  121 1    
   238  120  124 1    
   239  120  241 1    
   240  121  122 am   BACKBONE|DICT|INTERRES
   241  121  123 2    
   242  122  242 1    
   243  122  243 1    
   244  124  125 1    
   245  124  244 1    
   246  124  245 1    
   247  125  126 1    
   248  126  246 1    
   249  126  247 1    
@<TRIPOS>SUBSTRUCTURE
     1 UNK         1 GROUP             0       ****    0 ROOT    
