@<TRIPOS>MOLECULE
3R540
247   249    1
SMALL
USER_CHARGES


@<TRIPOS>ATOM
      1 CA         -2.0439  -16.3196  -45.3091 C.3       0 UNK        -0.1800 
      2 C          -1.3623  -15.6628  -46.4958 C.2       0 UNK         0.5000 
      3 O          -0.2495  -15.1554  -46.3627 O.2       0 UNK        -0.5000 
      4 N          -2.0407  -15.6644  -47.6503 N.am      1 UNK        -0.5000 
      5 CA         -1.6510  -15.0424  -48.9237 C.3       1 UNK         0.1400 
      6 C6         -0.2932  -15.5235  -49.5017 C.3       23 UNK        -0.0398 
      7 S7         -0.2552  -17.3170  -49.8378 S.3       23 UNK        -0.2404 
      8 C8          1.1756  -17.3791  -50.9539 C.3       23 UNK        -0.0205 
      9 C9          1.4615  -18.7857  -51.4557 C.ar      23 UNK        -0.0193 
     10 C10         0.7276  -19.3070  -52.5238 C.ar      23 UNK        -0.1150 
     11 C11         1.0507  -20.5500  -53.0726 C.ar      23 UNK        -0.0193 
     12 C12         2.1042  -21.2881  -52.5246 C.ar      23 UNK        -0.1150 
     13 C13         2.8409  -20.7842  -51.4472 C.ar      23 UNK        -0.0193 
     14 C14         2.5090  -19.5354  -50.9110 C.ar      23 UNK        -0.1150 
     15 C15         4.0442  -21.5558  -50.9227 C.3       23 UNK        -0.0205 
     16 S16         3.5776  -22.9179  -49.8112 S.3       23 UNK        -0.2404 
     17 C17         3.3295  -22.0411  -48.2306 C.3       23 UNK        -0.0398 
     18 CA          2.2202  -22.6919  -47.3712 C.3       11 UNK         0.1400 
     19 N           2.3991  -22.4073  -45.9457 N.am      11 UNK        -0.5000 
     20 C           1.7049  -22.9733  -44.9513 C.2       10 UNK         0.5000 
     21 O           0.8469  -23.8385  -45.1305 O.2       10 UNK        -0.5000 
     22 CA          1.9711  -22.4496  -43.5296 C.3       10 UNK         0.1400 
     23 CB          3.2819  -23.0138  -42.9525 C.3       10 UNK        -0.1800 
     24 N           1.9129  -20.9872  -43.4150 N.am      10 UNK        -0.5000 
     25 C           2.7334  -20.0499  -43.9139 C.2       9 UNK         0.5000 
     26 O           3.7046  -20.2924  -44.6316 O.2       9 UNK        -0.5000 
     27 CA          2.4031  -18.5890  -43.5526 C.3       9 UNK         0.1400 
     28 CB          1.4169  -17.9931  -44.5669 C.3       9 UNK        -0.1800 
     29 N           1.8399  -18.4598  -42.2088 N.am      9 UNK        -0.5000 
     30 C           2.5196  -18.6732  -41.0731 C.2       8 UNK         0.5000 
     31 O           3.7278  -18.9070  -41.0271 O.2       8 UNK        -0.5000 
     32 CA          1.6984  -18.6564  -39.7734 C.3       8 UNK         0.1400 
     33 CB          1.4501  -17.2168  -39.2958 C.3       8 UNK        -0.1800 
     34 N           0.4212  -19.3520  -39.9414 N.am      8 UNK        -0.5000 
     35 C           0.2842  -20.6862  -39.9586 C.2       7 UNK         0.5000 
     36 O           1.2163  -21.4706  -39.7819 O.2       7 UNK        -0.5000 
     37 CA         -1.1276  -21.2454  -40.2214 C.3       7 UNK         0.1400 
     38 CB         -1.8476  -21.5299  -38.8947 C.3       7 UNK        -0.1800 
     39 N          -1.9582  -20.3542  -41.0319 N.am      7 UNK        -0.5000 
     40 C          -1.7957  -20.1561  -42.3462 C.2       6 UNK         0.5000 
     41 O          -0.9346  -20.7142  -43.0261 O.2       6 UNK        -0.5000 
     42 CA         -2.7226  -19.1179  -43.0012 C.3       6 UNK         0.1400 
     43 CB         -4.0617  -19.7519  -43.4029 C.3       6 UNK        -0.1800 
     44 N          -2.9582  -17.9260  -42.1775 N.am      6 UNK        -0.5000 
     45 C          -1.9893  -17.1038  -41.7536 C.2       5 UNK         0.5000 
     46 O          -0.7888  -17.3165  -41.9447 O.2       5 UNK        -0.5000 
     47 CA         -2.4187  -15.8625  -40.9540 C.3       5 UNK         0.1400 
     48 CB         -2.5485  -16.2110  -39.4633 C.3       5 UNK        -0.1800 
     49 N          -1.4096  -14.8161  -41.1100 N.am      5 UNK        -0.5000 
     50 C          -1.3695  -13.9518  -42.1295 C.2       4 UNK         0.5000 
     51 O          -2.2957  -13.7756  -42.9257 O.2       4 UNK        -0.5000 
     52 CA         -0.0550  -13.1802  -42.3012 C.3       4 UNK         0.1400 
     53 CB          1.0441  -14.0996  -42.8703 C.3       4 UNK        -0.1800 
     54 N          -0.2715  -12.0492  -43.1986 N.am      4 UNK        -0.5000 
     55 C           0.4993  -10.9590  -43.2711 C.2       3 UNK         0.5000 
     56 O           1.4911  -10.7871  -42.5592 O.2       3 UNK        -0.5000 
     57 CA          0.0860   -9.8729  -44.2920 C.3       3 UNK         0.1400 
     58 CB          1.2579   -8.9443  -44.6757 C.3       3 UNK        -0.1800 
     59 N          -0.5730  -10.3795  -45.5053 N.am      3 UNK        -0.5000 
     60 C          -0.0745  -11.2483  -46.3969 C.2       2 UNK         0.5000 
     61 O           1.0035  -11.8334  -46.2734 O.2       2 UNK        -0.5000 
     62 CA         -0.9069  -11.4673  -47.6679 C.3       2 UNK         0.1400 
     63 CB         -0.3255  -10.6524  -48.8396 C.3       2 UNK        -0.1800 
     64 N          -0.9212  -12.8915  -47.9802 N.am      2 UNK        -0.5000 
     65 C          -1.7341  -13.5030  -48.8481 C.2       1 UNK         0.5000 
     66 O          -2.5558  -12.9102  -49.5482 O.2       1 UNK        -0.5000 
     67 C           0.8115  -22.2951  -47.8575 C.2       11 UNK         0.5000 
     68 O           0.2277  -23.0061  -48.6715 O.2       11 UNK        -0.5000 
     69 N           0.2642  -21.2073  -47.2962 N.am      12 UNK        -0.5000 
     70 CA         -1.0931  -20.7348  -47.5586 C.3       12 UNK         0.1400 
     71 CB         -1.2946  -19.3831  -46.8681 C.3       12 UNK        -0.1800 
     72 C          -2.1736  -21.7340  -47.1044 C.2       12 UNK         0.5000 
     73 O          -3.1431  -21.9485  -47.8320 O.2       12 UNK        -0.5000 
     74 N          -1.9692  -22.3472  -45.9282 N.am      13 UNK        -0.5000 
     75 CA         -2.8288  -23.4019  -45.3897 C.3       13 UNK         0.1400 
     76 CB         -2.5136  -23.6351  -43.9041 C.3       13 UNK        -0.1800 
     77 C          -2.7115  -24.7126  -46.1860 C.2       13 UNK         0.5000 
     78 O          -3.7304  -25.3562  -46.4350 O.2       13 UNK        -0.5000 
     79 N          -1.4861  -25.0647  -46.6031 N.am      14 UNK        -0.5000 
     80 CA         -1.2012  -26.2232  -47.4552 C.3       14 UNK         0.1400 
     81 CB          0.3174  -26.4385  -47.5391 C.3       14 UNK        -0.1800 
     82 C          -1.8171  -26.0914  -48.8626 C.2       14 UNK         0.5000 
     83 O          -2.3528  -27.0668  -49.3896 O.2       14 UNK        -0.5000 
     84 N          -1.7611  -24.8766  -49.4246 N.am      15 UNK        -0.5000 
     85 CA         -2.3888  -24.4898  -50.6886 C.3       15 UNK         0.1400 
     86 CB         -1.8092  -23.1346  -51.1214 C.3       15 UNK        -0.1800 
     87 C          -3.9279  -24.4157  -50.6152 C.2       15 UNK         0.5000 
     88 O          -4.5836  -24.4691  -51.6561 O.2       15 UNK        -0.5000 
     89 N          -4.4718  -24.2756  -49.3976 N.am      16 UNK        -0.5000 
     90 CA         -5.8825  -24.1937  -48.9996 C.3       16 UNK         0.1400 
     91 CB         -6.6668  -25.4500  -49.4225 C.3       16 UNK        -0.1800 
     92 C          -6.5892  -22.9038  -49.4546 C.2       16 UNK         0.5000 
     93 O          -7.1892  -22.2185  -48.6263 O.2       16 UNK        -0.5000 
     94 N          -6.4854  -22.5793  -50.7483 N.am      17 UNK        -0.5000 
     95 CA         -6.9867  -21.3423  -51.3522 C.3       17 UNK         0.1400 
     96 CB         -7.4350  -21.6352  -52.7938 C.3       17 UNK        -0.1800 
     97 C          -5.9516  -20.1984  -51.2997 C.2       17 UNK         0.5000 
     98 O          -6.2389  -19.1041  -51.7867 O.2       17 UNK        -0.5000 
     99 N          -4.7736  -20.4625  -50.7125 N.am      18 UNK        -0.5000 
    100 CA        -3.6474  -19.5455  -50.5332 C.3       18 UNK         0.1400 
    101 CB        -3.9999  -18.4664  -49.4855 C.3       18 UNK        -0.1800 
    102 C         -3.1453  -18.9944  -51.8823 C.2       18 UNK         0.5000 
    103 O         -2.8123  -19.7879  -52.7627 O.2       18 UNK        -0.5000 
    104 N         -3.1242  -17.6643  -52.0425 N.am      19 UNK        -0.5000 
    105 CA        -2.6927  -16.9674  -53.2564 C.3       19 UNK         0.1400 
    106 CB        -2.7420  -15.4523  -53.0118 C.3       19 UNK        -0.1800 
    107 C         -3.5028  -17.3453  -54.5113 C.2       19 UNK         0.5000 
    108 O         -2.9378  -17.4027  -55.6036 O.2       19 UNK        -0.5000 
    109 N         -4.7958  -17.6503  -54.3354 N.am      20 UNK        -0.5000 
    110 CA        -5.6945  -18.0692  -55.4121 C.3       20 UNK         0.1400 
    111 CB        -7.1500  -17.9245  -54.9420 C.3       20 UNK        -0.1800 
    112 C         -5.4192  -19.4950  -55.9334 C.2       20 UNK         0.5000 
    113 O         -5.9363  -19.8481  -56.9941 O.2       20 UNK        -0.5000 
    114 N         -4.6167  -20.2885  -55.2070 N.am      21 UNK        -0.5000 
    115 CA        -4.2301  -21.6405  -55.6103 C.3       21 UNK         0.1400 
    116 CB        -3.7337  -22.4196  -54.3851 C.3       21 UNK        -0.1800 
    117 C         -3.1429  -21.6586  -56.7009 C.2       21 UNK         0.5000 
    118 O         -3.0318  -22.6651  -57.4028 O.2       21 UNK        -0.5000 
    119 N         -2.3477  -20.5843  -56.8156 N.am      22 UNK        -0.5000 
    120 CA        -1.2026  -20.5190  -57.7386 C.3       22 UNK         0.1400 
    121 C         -0.9425  -19.1337  -58.3967 C.2       22 UNK         0.5000 
    122 N         -1.5864  -18.0465  -57.9913 N.am      22 UNK        -0.7600 
    123 O         -0.1520  -19.0460  -59.3327 O.2       22 UNK        -0.5000 
    124 C124        0.0746  -21.1641  -57.1322 C.3       23 UNK        -0.0398 
    125 S125        0.8620  -20.1996  -55.7931 S.3       23 UNK        -0.2404 
    126 C126        0.2974  -21.0607  -54.2917 C.3       23 UNK        -0.0205 
    127 H127       -1.2967  -16.7451  -44.6417 H         1 UNK         0.0600 
    128 H128       -2.6204  -15.5827  -44.7533 H         1 UNK         0.0600 
    129 H129       -2.7226  -17.1119  -45.6223 H         1 UNK         0.0600 
    130 H130       -2.9632  -16.0743  -47.6545 H         1 UNK         0.3000 
    131 H131       -2.4205  -15.3472  -49.6348 H         1 UNK         0.0600 
    132 H132        0.5340  -15.2788  -48.8345 H         1 UNK         0.0800 
    133 H133       -0.0886  -15.0006  -50.4377 H         1 UNK         0.0800 
    134 H134        0.9955  -16.7246  -51.8083 H         1 UNK         0.0800 
    135 H135        2.0489  -16.9766  -50.4380 H         1 UNK         0.0800 
    136 H136       -0.0722  -18.7286  -52.9594 H         1 UNK         0.1150 
    137 H137        2.3723  -22.2428  -52.9548 H         1 UNK         0.1150 
    138 H138        3.0916  -19.1276  -50.0970 H         1 UNK         0.1150 
    139 H139        4.5936  -21.9731  -51.7679 H         1 UNK         0.0800 
    140 H140        4.7422  -20.8886  -50.4144 H         1 UNK         0.0800 
    141 H141        3.1266  -20.9829  -48.4026 H         1 UNK         0.0800 
    142 H142        4.2827  -22.0791  -47.7012 H         1 UNK         0.0800 
    143 H143        2.3036  -23.7759  -47.4730 H         1 UNK         0.0600 
    144 H144        3.0654  -21.6817  -45.6917 H         1 UNK         0.3000 
    145 H145        1.1564  -22.8200  -42.9050 H         1 UNK         0.0600 
    146 H146        3.4259  -22.6899  -41.9215 H         1 UNK         0.0600 
    147 H147        3.2677  -24.1043  -42.9523 H         1 UNK         0.0600 
    148 H148        4.1535  -22.7000  -43.5273 H         1 UNK         0.0600 
    149 H149        1.0827  -20.6538  -42.9368 H         1 UNK         0.3000 
    150 H150        3.3311  -18.0151  -43.5955 H         1 UNK         0.0600 
    151 H151        1.7855  -18.0943  -45.5885 H         1 UNK         0.0600 
    152 H152        1.2582  -16.9305  -44.3828 H         1 UNK         0.0600 
    153 H153        0.4477  -18.4869  -44.5112 H         1 UNK         0.0600 
    154 H154        0.8576  -18.2036  -42.1469 H         1 UNK         0.3000 
    155 H155        2.2770  -19.1698  -39.0023 H         1 UNK         0.0600 
    156 H156        0.9016  -16.6311  -40.0325 H         1 UNK         0.0600 
    157 H157        2.3941  -16.7030  -39.1102 H         1 UNK         0.0600 
    158 H158        0.8843  -17.2022  -38.3643 H         1 UNK         0.0600 
    159 H159       -0.3816  -18.7793  -40.1566 H         1 UNK         0.3000 
    160 H160       -1.0136  -22.1906  -40.7571 H         1 UNK         0.0600 
    161 H161       -2.8195  -21.9933  -39.0651 H         1 UNK         0.0600 
    162 H162       -2.0059  -20.6176  -38.3182 H         1 UNK         0.0600 
    163 H163       -1.2672  -22.2141  -38.2742 H         1 UNK         0.0600 
    164 H164       -2.6894  -19.8488  -40.5535 H         1 UNK         0.3000 
    165 H165       -2.2271  -18.7866  -43.9113 H         1 UNK         0.0600 
    166 H166       -4.6836  -19.0443  -43.9514 H         1 UNK         0.0600 
    167 H167       -3.9059  -20.6137  -44.0533 H         1 UNK         0.0600 
    168 H168       -4.6249  -20.0921  -42.5332 H         1 UNK         0.0600 
    169 H169       -3.9211  -17.7028  -41.9698 H         1 UNK         0.3000 
    170 H170       -3.3840  -15.5108  -41.3243 H         1 UNK         0.0600 
    171 H171       -3.3104  -16.9750  -39.3036 H         1 UNK         0.0600 
    172 H172       -1.6124  -16.5898  -39.0513 H         1 UNK         0.0600 
    173 H173       -2.8401  -15.3373  -38.8802 H         1 UNK         0.0600 
    174 H174       -0.5881  -14.9141  -40.5324 H         1 UNK         0.3000 
    175 H175        0.2487  -12.8085  -41.3202 H         1 UNK         0.0600 
    176 H176        0.7814  -14.4626  -43.8647 H         1 UNK         0.0600 
    177 H177        1.9983  -13.5789  -42.9484 H         1 UNK         0.0600 
    178 H178        1.2039  -14.9726  -42.2360 H         1 UNK         0.0600 
    179 H179       -1.0988  -12.1250  -43.7768 H         1 UNK         0.3000 
    180 H180       -0.6578   -9.2602  -43.7808 H         1 UNK         0.0600 
    181 H181        2.0720   -9.4967  -45.1462 H         1 UNK         0.0600 
    182 H182        1.6668   -8.4417  -43.7984 H         1 UNK         0.0600 
    183 H183        0.9354   -8.1676  -45.3691 H         1 UNK         0.0600 
    184 H184       -1.4766   -9.9697  -45.6989 H         1 UNK         0.3000 
    185 H185       -1.9331  -11.1447  -47.4800 H         1 UNK         0.0600 
    186 H186        0.6790  -10.9882  -49.1001 H         1 UNK         0.0600 
    187 H187       -0.9462  -10.7301  -49.7319 H         1 UNK         0.0600 
    188 H188       -0.2620   -9.5938  -48.5845 H         1 UNK         0.0600 
    189 H189       -0.3217  -13.4673  -47.3919 H         1 UNK         0.3000 
    190 H190        0.8059  -20.6896  -46.6215 H         1 UNK         0.3000 
    191 H191       -1.1867  -20.5913  -48.6356 H         1 UNK         0.0600 
    192 H192       -1.2086  -19.4796  -45.7879 H         1 UNK         0.0600 
    193 H193       -2.2818  -18.9775  -47.0875 H         1 UNK         0.0600 
    194 H194       -0.5573  -18.6519  -47.1982 H         1 UNK         0.0600 
    195 H195       -1.1413  -22.1236  -45.3946 H         1 UNK         0.3000 
    196 H196       -3.8654  -23.0657  -45.4631 H         1 UNK         0.0600 
    197 H197       -1.4603  -23.8634  -43.7411 H         1 UNK         0.0600 
    198 H198       -3.0949  -24.4681  -43.5069 H         1 UNK         0.0600 
    199 H199       -2.7639  -22.7603  -43.3068 H         1 UNK         0.0600 
    200 H200       -0.6923  -24.5059  -46.3078 H         1 UNK         0.3000 
    201 H201       -1.6420  -27.1019  -46.9798 H         1 UNK         0.0600 
    202 H202        0.7566  -26.5511  -46.5476 H         1 UNK         0.0600 
    203 H203        0.8163  -25.6055  -48.0339 H         1 UNK         0.0600 
    204 H204        0.5512  -27.3413  -48.1045 H         1 UNK         0.0600 
    205 H205       -1.2112  -24.1553  -48.9633 H         1 UNK         0.3000 
    206 H206       -2.1318  -25.2339  -51.4449 H         1 UNK         0.0600 
    207 H207       -0.7390  -23.2054  -51.3178 H         1 UNK         0.0600 
    208 H208       -2.2818  -22.7731  -52.0307 H         1 UNK         0.0600 
    209 H209       -1.9568  -22.3734  -50.3562 H         1 UNK         0.0600 
    210 H210       -3.8217  -24.1886  -48.6276 H         1 UNK         0.3000 
    211 H211       -5.8714  -24.1728  -47.9087 H         1 UNK         0.0600 
    212 H212       -6.7414  -25.5437  -50.5061 H         1 UNK         0.0600 
    213 H213       -7.6834  -25.4227  -49.0285 H         1 UNK         0.0600 
    214 H214       -6.1935  -26.3542  -49.0394 H         1 UNK         0.0600 
    215 H215       -5.9481  -23.2042  -51.3448 H         1 UNK         0.3000 
    216 H216       -7.8632  -21.0006  -50.7982 H         1 UNK         0.0600 
    217 H217       -7.8843  -20.7540  -53.2517 H         1 UNK         0.0600 
    218 H218       -8.1854  -22.4255  -52.8177 H         1 UNK         0.0600 
    219 H219       -6.6060  -21.9454  -53.4271 H         1 UNK         0.0600 
    220 H220       -4.6373  -21.3939  -50.3488 H         1 UNK         0.3000 
    221 H221       -2.8288  -20.1408  -50.1336 H         1 UNK         0.0600 
    222 H222       -4.8062  -17.8123  -49.8190 H         1 UNK         0.0600 
    223 H223       -4.3194  -18.9281  -48.5510 H         1 UNK         0.0600 
    224 H224       -3.1354  -17.8461  -49.2539 H         1 UNK         0.0600 
    225 H225       -3.4444  -17.0866  -51.2808 H         1 UNK         0.3000 
    226 H226       -1.6553  -17.2413  -53.4488 H         1 UNK         0.0600 
    227 H227       -2.0793  -15.1624  -52.1966 H         1 UNK         0.0600 
    228 H228       -2.4217  -14.9030  -53.8981 H         1 UNK         0.0600 
    229 H229       -3.7495  -15.1164  -52.7633 H         1 UNK         0.0600 
    230 H230       -5.1778  -17.6535  -53.3983 H         1 UNK         0.3000 
    231 H231       -5.5498  -17.3900  -56.2549 H         1 UNK         0.0600 
    232 H232       -7.3646  -16.9021  -54.6308 H         1 UNK         0.0600 
    233 H233       -7.3712  -18.5832  -54.1036 H         1 UNK         0.0600 
    234 H234       -7.8467  -18.1719  -55.7439 H         1 UNK         0.0600 
    235 H235       -4.2000  -19.9338  -54.3534 H         1 UNK         0.3000 
    236 H236       -5.1134  -22.1510  -56.0000 H         1 UNK         0.0600 
    237 H237       -3.6654  -23.4860  -54.6025 H         1 UNK         0.0600 
    238 H238       -2.7406  -22.0867  -54.0906 H         1 UNK         0.0600 
    239 H239       -4.3900  -22.3025  -53.5247 H         1 UNK         0.0600 
    240 H240       -2.4925  -19.7889  -56.2107 H         1 UNK         0.3000 
    241 H241       -1.4647  -21.1327  -58.6028 H         1 UNK         0.0600 
    242 H242       -1.3937  -17.1781  -58.4640 H         1 UNK         0.3800 
    243 H243       -2.1878  -18.0244  -57.1733 H         1 UNK         0.3800 
    244 H244       -0.1476  -22.1699  -56.7737 H         1 UNK         0.0800 
    245 H245        0.8206  -21.3004  -57.9168 H         1 UNK         0.0800 
    246 H246       -0.7708  -20.8905  -54.1605 H         1 UNK         0.0800 
    247 H247        0.4364  -22.1370  -54.4028 H         1 UNK         0.0800 
@<TRIPOS>BOND
     1    1    2 1    
     2    1  127 1    
     3    1  128 1    
     4    1  129 1    
     5    2    3 2    
     6    2    4 am   BACKBONE|DICT|INTERRES
     7    4    5 1    
     8    4  130 1    
     9    5    6 1    
    10    5   65 1    
    11    5  131 1    
    12    6    7 1    
    13    6  132 1    
    14    6  133 1    
    15    7    8 1    
    16    8    9 1    
    17    8  134 1    
    18    8  135 1    
    19    9   10 ar   
    20    9   14 ar   
    21   10   11 ar   
    22   10  136 1    
    23   11   12 ar   
    24   11  126 1    
    25   12   13 ar   
    26   12  137 1    
    27   13   14 ar   
    28   13   15 1    
    29   14  138 1    
    30   15   16 1    
    31   15  139 1    
    32   15  140 1    
    33   16   17 1    
    34   17   18 1    
    35   17  141 1    
    36   17  142 1    
    37   18   19 1    
    38   18   67 1    
    39   18  143 1    
    40   19   20 am   BACKBONE|DICT|INTERRES
    41   19  144 1    
    42   20   21 2    
    43   20   22 1    
    44   22   23 1    
    45   22   24 1    
    46   22  145 1    
    47   23  146 1    
    48   23  147 1    
    49   23  148 1    
    50   24   25 am   BACKBONE|DICT|INTERRES
    51   24  149 1    
    52   25   26 2    
    53   25   27 1    
    54   27   28 1    
    55   27   29 1    
    56   27  150 1    
    57   28  151 1    
    58   28  152 1    
    59   28  153 1    
    60   29   30 am   BACKBONE|DICT|INTERRES
    61   29  154 1    
    62   30   31 2    
    63   30   32 1    
    64   32   33 1    
    65   32   34 1    
    66   32  155 1    
    67   33  156 1    
    68   33  157 1    
    69   33  158 1    
    70   34   35 am   BACKBONE|DICT|INTERRES
    71   34  159 1    
    72   35   36 2    
    73   35   37 1    
    74   37   38 1    
    75   37   39 1    
    76   37  160 1    
    77   38  161 1    
    78   38  162 1    
    79   38  163 1    
    80   39   40 am   BACKBONE|DICT|INTERRES
    81   39  164 1    
    82   40   41 2    
    83   40   42 1    
    84   42   43 1    
    85   42   44 1    
    86   42  165 1    
    87   43  166 1    
    88   43  167 1    
    89   43  168 1    
    90   44   45 am   BACKBONE|DICT|INTERRES
    91   44  169 1    
    92   45   46 2    
    93   45   47 1    
    94   47   48 1    
    95   47   49 1    
    96   47  170 1    
    97   48  171 1    
    98   48  172 1    
    99   48  173 1    
   100   49   50 am   BACKBONE|DICT|INTERRES
   101   49  174 1    
   102   50   51 2    
   103   50   52 1    
   104   52   53 1    
   105   52   54 1    
   106   52  175 1    
   107   53  176 1    
   108   53  177 1    
   109   53  178 1    
   110   54   55 am   BACKBONE|DICT|INTERRES
   111   54  179 1    
   112   55   56 2    
   113   55   57 1    
   114   57   58 1    
   115   57   59 1    
   116   57  180 1    
   117   58  181 1    
   118   58  182 1    
   119   58  183 1    
   120   59   60 am   BACKBONE|DICT|INTERRES
   121   59  184 1    
   122   60   61 2    
   123   60   62 1    
   124   62   63 1    
   125   62   64 1    
   126   62  185 1    
   127   63  186 1    
   128   63  187 1    
   129   63  188 1    
   130   64   65 am   BACKBONE|DICT|INTERRES
   131   64  189 1    
   132   65   66 2    
   133   67   68 2    
   134   67   69 am   BACKBONE|DICT|INTERRES
   135   69   70 1    
   136   69  190 1    
   137   70   71 1    
   138   70   72 1    
   139   70  191 1    
   140   71  192 1    
   141   71  193 1    
   142   71  194 1    
   143   72   73 2    
   144   72   74 am   BACKBONE|DICT|INTERRES
   145   74   75 1    
   146   74  195 1    
   147   75   76 1    
   148   75   77 1    
   149   75  196 1    
   150   76  197 1    
   151   76  198 1    
   152   76  199 1    
   153   77   78 2    
   154   77   79 am   BACKBONE|DICT|INTERRES
   155   79   80 1    
   156   79  200 1    
   157   80   81 1    
   158   80   82 1    
   159   80  201 1    
   160   81  202 1    
   161   81  203 1    
   162   81  204 1    
   163   82   83 2    
   164   82   84 am   BACKBONE|DICT|INTERRES
   165   84   85 1    
   166   84  205 1    
   167   85   86 1    
   168   85   87 1    
   169   85  206 1    
   170   86  207 1    
   171   86  208 1    
   172   86  209 1    
   173   87   88 2    
   174   87   89 am   BACKBONE|DICT|INTERRES
   175   89   90 1    
   176   89  210 1    
   177   90   91 1    
   178   90   92 1    
   179   90  211 1    
   180   91  212 1    
   181   91  213 1    
   182   91  214 1    
   183   92   93 2    
   184   92   94 am   BACKBONE|DICT|INTERRES
   185   94   95 1    
   186   94  215 1    
   187   95   96 1    
   188   95   97 1    
   189   95  216 1    
   190   96  217 1    
   191   96  218 1    
   192   96  219 1    
   193   97   98 2    
   194   97   99 am   BACKBONE|DICT|INTERRES
   195   99  100 1    
   196   99  220 1    
   197  100  101 1    
   198  100  102 1    
   199  100  221 1    
   200  101  222 1    
   201  101  223 1    
   202  101  224 1    
   203  102  103 2    
   204  102  104 am   BACKBONE|DICT|INTERRES
   205  104  105 1    
   206  104  225 1    
   207  105  106 1    
   208  105  107 1    
   209  105  226 1    
   210  106  227 1    
   211  106  228 1    
   212  106  229 1    
   213  107  108 2    
   214  107  109 am   BACKBONE|DICT|INTERRES
   215  109  110 1    
   216  109  230 1    
   217  110  111 1    
   218  110  112 1    
   219  110  231 1    
   220  111  232 1    
   221  111  233 1    
   222  111  234 1    
   223  112  113 2    
   224  112  114 am   BACKBONE|DICT|INTERRES
   225  114  115 1    
   226  114  235 1    
   227  115  116 1    
   228  115  117 1    
   229  115  236 1    
   230  116  237 1    
   231  116  238 1    
   232  116  239 1    
   233  117  118 2    
   234  117  119 am   BACKBONE|DICT|INTERRES
   235  119  120 1    
   236  119  240 1    
   237  120  121 1    
   238  120  124 1    
   239  120  241 1    
   240  121  122 am   BACKBONE|DICT|INTERRES
   241  121  123 2    
   242  122  242 1    
   243  122  243 1    
   244  124  125 1    
   245  124  244 1    
   246  124  245 1    
   247  125  126 1    
   248  126  246 1    
   249  126  247 1    
@<TRIPOS>SUBSTRUCTURE
     1 UNK         1 GROUP             0       ****    0 ROOT    
