@<TRIPOS>MOLECULE
3R540
247   249    1
SMALL
USER_CHARGES


@<TRIPOS>ATOM
      1 CA          5.4507  -15.0992  -52.1794 C.3       0 UNK        -0.1800 
      2 C           4.5925  -15.9362  -51.2409 C.2       0 UNK         0.5000 
      3 O           4.4834  -17.1483  -51.4284 O.2       0 UNK        -0.5000 
      4 N           3.9785  -15.2929  -50.2408 N.am      1 UNK        -0.5000 
      5 CA          3.1452  -15.9287  -49.2133 C.3       1 UNK         0.1400 
      6 C6          2.2675  -14.8955  -48.4539 C.3       23 UNK        -0.0398 
      7 S7          1.3033  -13.7998  -49.5626 S.3       23 UNK        -0.2404 
      8 C8         -0.3882  -13.8798  -48.8692 C.3       23 UNK        -0.0205 
      9 C9         -1.2556  -15.0439  -49.3535 C.ar      23 UNK        -0.0193 
     10 C10        -2.6472  -14.9308  -49.2698 C.ar      23 UNK        -0.1150 
     11 C11        -3.4787  -15.9919  -49.6428 C.ar      23 UNK        -0.0193 
     12 C12        -2.9084  -17.1861  -50.0904 C.ar      23 UNK        -0.1150 
     13 C13        -1.5220  -17.3152  -50.1913 C.ar      23 UNK        -0.0193 
     14 C14        -0.7087  -16.2349  -49.8408 C.ar      23 UNK        -0.1150 
     15 C15        -0.9059  -18.6391  -50.6309 C.3       23 UNK        -0.0205 
     16 S16         0.4495  -19.1987  -49.5456 S.3       23 UNK        -0.2404 
     17 C17        -0.3198  -19.0813  -47.8996 C.3       23 UNK        -0.0398 
     18 CA         -0.5101  -20.4407  -47.1986 C.3       11 UNK         0.1400 
     19 N          -0.4673  -20.2713  -45.7426 N.am      11 UNK        -0.5000 
     20 C          -0.4359  -21.2548  -44.8346 C.2       10 UNK         0.5000 
     21 O          -0.4713  -22.4508  -45.1218 O.2       10 UNK        -0.5000 
     22 CA         -0.4225  -20.8204  -43.3587 C.3       10 UNK         0.1400 
     23 CB          0.9688  -20.3314  -42.9326 C.3       10 UNK        -0.1800 
     24 N          -1.4136  -19.7762  -43.1007 N.am      10 UNK        -0.5000 
     25 C          -2.7374  -19.9832  -43.1282 C.2       9 UNK         0.5000 
     26 O          -3.2501  -21.0953  -43.2487 O.2       9 UNK        -0.5000 
     27 CA         -3.6401  -18.7402  -43.0481 C.3       9 UNK         0.1400 
     28 CB         -3.9386  -18.3766  -41.5863 C.3       9 UNK        -0.1800 
     29 N          -3.0615  -17.5862  -43.7401 N.am      9 UNK        -0.5000 
     30 C          -2.9684  -17.4764  -45.0734 C.2       8 UNK         0.5000 
     31 O          -3.3638  -18.3381  -45.8564 O.2       8 UNK        -0.5000 
     32 CA         -2.2909  -16.2096  -45.6290 C.3       8 UNK         0.1400 
     33 CB         -3.3158  -15.0787  -45.7952 C.3       8 UNK        -0.1800 
     34 N          -1.1796  -15.7369  -44.8022 N.am      8 UNK        -0.5000 
     35 C          -0.0450  -16.4199  -44.5999 C.2       7 UNK         0.5000 
     36 O           0.1756  -17.5339  -45.0709 O.2       7 UNK        -0.5000 
     37 CA          0.9876  -15.7716  -43.6643 C.3       7 UNK         0.1400 
     38 CB          1.7139  -14.6218  -44.3793 C.3       7 UNK        -0.1800 
     39 N           0.4204  -15.2773  -42.4061 N.am      7 UNK        -0.5000 
     40 C          -0.3247  -15.9854  -41.5460 C.2       6 UNK         0.5000 
     41 O          -0.6842  -17.1477  -41.7421 O.2       6 UNK        -0.5000 
     42 CA         -0.6514  -15.2844  -40.2181 C.3       6 UNK         0.1400 
     43 CB         -1.7348  -16.0137  -39.4044 C.3       6 UNK        -0.1800 
     44 N           0.5820  -15.2466  -39.4422 N.am      6 UNK        -0.5000 
     45 C           1.3267  -14.1592  -39.2095 C.2       5 UNK         0.5000 
     46 O           0.9831  -13.0123  -39.4969 O.2       5 UNK        -0.5000 
     47 CA          2.7189  -14.4137  -38.5978 C.3       5 UNK         0.1400 
     48 CB          2.6409  -14.4446  -37.0638 C.3       5 UNK        -0.1800 
     49 N           3.3205  -15.6626  -39.0807 N.am      5 UNK        -0.5000 
     50 C           3.7025  -15.8727  -40.3478 C.2       4 UNK         0.5000 
     51 O           3.6619  -15.0092  -41.2288 O.2       4 UNK        -0.5000 
     52 CA          4.1752  -17.2912  -40.6936 C.3       4 UNK         0.1400 
     53 CB          2.9814  -18.2588  -40.7910 C.3       4 UNK        -0.1800 
     54 N           4.8851  -17.2427  -41.9661 N.am      4 UNK        -0.5000 
     55 C           5.7683  -18.1393  -42.4100 C.2       3 UNK         0.5000 
     56 O           6.0393  -19.1868  -41.8192 O.2       3 UNK        -0.5000 
     57 CA          6.4598  -17.8062  -43.7451 C.3       3 UNK         0.1400 
     58 CB          7.9163  -18.3018  -43.7776 C.3       3 UNK        -0.1800 
     59 N           5.7402  -18.3844  -44.8774 N.am      3 UNK        -0.5000 
     60 C           4.6008  -17.9039  -45.3883 C.2       2 UNK         0.5000 
     61 O           4.0009  -16.9288  -44.9325 O.2       2 UNK        -0.5000 
     62 CA          4.0428  -18.6475  -46.6188 C.3       2 UNK         0.1400 
     63 CB          3.0345  -19.7210  -46.1843 C.3       2 UNK        -0.1800 
     64 N           3.4017  -17.7557  -47.5901 N.am      2 UNK        -0.5000 
     65 C           4.0116  -16.7470  -48.2286 C.2       1 UNK         0.5000 
     66 O           5.1996  -16.4529  -48.0647 O.2       1 UNK        -0.5000 
     67 C          -1.7812  -21.1687  -47.6919 C.2       11 UNK         0.5000 
     68 O          -1.7230  -21.8993  -48.6847 O.2       11 UNK        -0.5000 
     69 N          -2.8937  -21.0107  -46.9595 N.am      12 UNK        -0.5000 
     70 CA         -4.1494  -21.7358  -47.1610 C.3       12 UNK         0.1400 
     71 CB         -5.2228  -21.2050  -46.2009 C.3       12 UNK        -0.1800 
     72 C          -4.0088  -23.2655  -47.0363 C.2       12 UNK         0.5000 
     73 O          -4.7592  -23.9892  -47.6901 O.2       12 UNK        -0.5000 
     74 N          -3.0369  -23.7253  -46.2379 N.am      13 UNK        -0.5000 
     75 CA         -2.6562  -25.1291  -46.1255 C.3       13 UNK         0.1400 
     76 CB         -2.3540  -25.4586  -44.6546 C.3       13 UNK        -0.1800 
     77 C          -1.4426  -25.4359  -47.0183 C.2       13 UNK         0.5000 
     78 O          -1.4960  -26.3775  -47.8092 O.2       13 UNK        -0.5000 
     79 N          -0.3722  -24.6404  -46.8765 N.am      14 UNK        -0.5000 
     80 CA          0.9475  -24.8930  -47.4614 C.3       14 UNK         0.1400 
     81 CB          1.9676  -23.9178  -46.8529 C.3       14 UNK        -0.1800 
     82 C           0.9969  -24.8340  -48.9986 C.2       14 UNK         0.5000 
     83 O           1.7472  -25.6028  -49.6012 O.2       14 UNK        -0.5000 
     84 N           0.2054  -23.9392  -49.6020 N.am      15 UNK        -0.5000 
     85 CA          0.1041  -23.7608  -51.0533 C.3       15 UNK         0.1400 
     86 CB          0.5563  -22.3357  -51.4095 C.3       15 UNK        -0.1800 
     87 C          -1.3277  -24.0172  -51.5537 C.2       15 UNK         0.5000 
     88 O          -1.6384  -23.6682  -52.6943 O.2       15 UNK        -0.5000 
     89 N          -2.1903  -24.5721  -50.6875 N.am      16 UNK        -0.5000 
     90 CA         -3.6186  -24.8224  -50.9078 C.3       16 UNK         0.1400 
     91 CB         -3.8108  -25.9709  -51.9202 C.3       16 UNK        -0.1800 
     92 C          -4.3921  -23.5440  -51.2994 C.2       16 UNK         0.5000 
     93 O          -5.2422  -23.5896  -52.1884 O.2       16 UNK        -0.5000 
     94 N          -4.0397  -22.4138  -50.6656 N.am      17 UNK        -0.5000 
     95 CA         -4.5547  -21.0645  -50.9316 C.3       17 UNK         0.1400 
     96 CB         -6.0647  -20.9668  -50.6190 C.3       17 UNK        -0.1800 
     97 C          -4.2021  -20.5830  -52.3525 C.2       17 UNK         0.5000 
     98 O          -5.0547  -20.0293  -53.0473 O.2       17 UNK        -0.5000 
     99 N          -2.9464  -20.8314  -52.7547 N.am      18 UNK        -0.5000 
    100 CA        -2.3754  -20.5735  -54.0807 C.3       18 UNK         0.1400 
    101 CB        -2.3356  -19.0589  -54.3815 C.3       18 UNK        -0.1800 
    102 C         -3.0987  -21.3898  -55.1700 C.2       18 UNK         0.5000 
    103 O         -3.5298  -20.8323  -56.1791 O.2       18 UNK        -0.5000 
    104 N         -3.2621  -22.6963  -54.9111 N.am      19 UNK        -0.5000 
    105 CA        -4.0419  -23.6559  -55.7036 C.3       19 UNK         0.1400 
    106 CB        -3.3337  -23.9603  -57.0397 C.3       19 UNK        -0.1800 
    107 C         -5.5093  -23.2043  -55.8798 C.2       19 UNK         0.5000 
    108 O         -6.0309  -23.1805  -56.9958 O.2       19 UNK        -0.5000 
    109 N         -6.1222  -22.8154  -54.7542 N.am      20 UNK        -0.5000 
    110 CA        -7.4782  -22.2920  -54.5738 C.3       20 UNK         0.1400 
    111 CB        -8.5342  -23.3169  -55.0356 C.3       20 UNK        -0.1800 
    112 C         -7.7373  -20.8899  -55.1659 C.2       20 UNK         0.5000 
    113 O         -8.8610  -20.3999  -55.0386 O.2       20 UNK        -0.5000 
    114 N         -6.7280  -20.2347  -55.7607 N.am      21 UNK        -0.5000 
    115 CA        -6.8517  -18.9009  -56.3620 C.3       21 UNK         0.1400 
    116 CB        -5.5786  -18.5639  -57.1505 C.3       21 UNK        -0.1800 
    117 C         -7.1633  -17.7882  -55.3418 C.2       21 UNK         0.5000 
    118 O         -7.8453  -16.8235  -55.6903 O.2       21 UNK        -0.5000 
    119 N         -6.6863  -17.9563  -54.1031 N.am      22 UNK        -0.5000 
    120 CA        -7.0008  -17.1060  -52.9462 C.3       22 UNK         0.1400 
    121 C         -8.2596  -17.5832  -52.1542 C.2       22 UNK         0.5000 
    122 N         -8.9925  -18.5988  -52.5985 N.am      22 UNK        -0.7600 
    123 O         -8.5971  -17.0159  -51.1196 O.2       22 UNK        -0.5000 
    124 C124       -5.7475  -16.9348  -52.0457 C.3       23 UNK        -0.0398 
    125 S125       -5.7170  -15.3490  -51.1387 S.3       23 UNK        -0.2404 
    126 C126       -4.9905  -15.8511  -49.5462 C.3       23 UNK        -0.0205 
    127 H127        5.4441  -14.0445  -51.9029 H         1 UNK         0.0600 
    128 H128        5.0823  -15.1847  -53.2017 H         1 UNK         0.0600 
    129 H129        6.4825  -15.4500  -52.1569 H         1 UNK         0.0600 
    130 H130        4.1132  -14.2980  -50.1345 H         1 UNK         0.3000 
    131 H131        2.4910  -16.6359  -49.7243 H         1 UNK         0.0600 
    132 H132        1.5823  -15.4130  -47.7802 H         1 UNK         0.0800 
    133 H133        2.8893  -14.2586  -47.8219 H         1 UNK         0.0800 
    134 H134       -0.3359  -13.9042  -47.7798 H         1 UNK         0.0800 
    135 H135       -0.8849  -12.9433  -49.1275 H         1 UNK         0.0800 
    136 H136       -3.0875  -14.0139  -48.9035 H         1 UNK         0.1150 
    137 H137       -3.5453  -18.0158  -50.3562 H         1 UNK         0.1150 
    138 H138        0.3572  -16.3484  -49.9232 H         1 UNK         0.1150 
    139 H139       -1.6621  -19.4232  -50.6599 H         1 UNK         0.0800 
    140 H140       -0.5194  -18.5340  -51.6444 H         1 UNK         0.0800 
    141 H141       -1.2558  -18.5229  -47.9152 H         1 UNK         0.0800 
    142 H142        0.3713  -18.4627  -47.3323 H         1 UNK         0.0800 
    143 H143        0.3358  -21.0786  -47.4568 H         1 UNK         0.0600 
    144 H144       -0.4072  -19.3123  -45.4088 H         1 UNK         0.3000 
    145 H145       -0.6728  -21.6942  -42.7534 H         1 UNK         0.0600 
    146 H146        0.9996  -20.1497  -41.8586 H         1 UNK         0.0600 
    147 H147        1.7345  -21.0743  -43.1596 H         1 UNK         0.0600 
    148 H148        1.2483  -19.4050  -43.4344 H         1 UNK         0.0600 
    149 H149       -1.0703  -18.8351  -42.9409 H         1 UNK         0.3000 
    150 H150       -4.5872  -18.9851  -43.5340 H         1 UNK         0.0600 
    151 H151       -4.5623  -17.4854  -41.5168 H         1 UNK         0.0600 
    152 H152       -4.4719  -19.1871  -41.0882 H         1 UNK         0.0600 
    153 H153       -3.0247  -18.1964  -41.0212 H         1 UNK         0.0600 
    154 H154       -2.6460  -16.8709  -43.1614 H         1 UNK         0.3000 
    155 H155       -1.8930  -16.4545  -46.6160 H         1 UNK         0.0600 
    156 H156       -3.7358  -14.7700  -44.8372 H         1 UNK         0.0600 
    157 H157       -4.1440  -15.3948  -46.4307 H         1 UNK         0.0600 
    158 H158       -2.8647  -14.2033  -46.2626 H         1 UNK         0.0600 
    159 H159       -1.2896  -14.8382  -44.3561 H         1 UNK         0.3000 
    160 H160        1.7254  -16.5356  -43.4136 H         1 UNK         0.0600 
    161 H161        1.0440  -13.7898  -44.5988 H         1 UNK         0.0600 
    162 H162        2.1419  -14.9581  -45.3242 H         1 UNK         0.0600 
    163 H163        2.5365  -14.2417  -43.7732 H         1 UNK         0.0600 
    164 H164        0.7022  -14.3466  -42.1328 H         1 UNK         0.3000 
    165 H165       -1.0111  -14.2779  -40.4418 H         1 UNK         0.0600 
    166 H166       -1.9241  -15.5036  -38.4599 H         1 UNK         0.0600 
    167 H167       -2.6775  -16.0408  -39.9513 H         1 UNK         0.0600 
    168 H168       -1.4521  -17.0422  -39.1760 H         1 UNK         0.0600 
    169 H169        0.9710  -16.1451  -39.1959 H         1 UNK         0.3000 
    170 H170        3.3682  -13.5860  -38.8912 H         1 UNK         0.0600 
    171 H171        2.2150  -13.5180  -36.6767 H         1 UNK         0.0600 
    172 H172        2.0184  -15.2661  -36.7070 H         1 UNK         0.0600 
    173 H173        3.6308  -14.5556  -36.6208 H         1 UNK         0.0600 
    174 H174        3.3996  -16.4142  -38.4105 H         1 UNK         0.3000 
    175 H175        4.8607  -17.6260  -39.9123 H         1 UNK         0.0600 
    176 H176        2.2694  -17.9392  -41.5519 H         1 UNK         0.0600 
    177 H177        3.3073  -19.2680  -41.0426 H         1 UNK         0.0600 
    178 H178        2.4433  -18.3220  -39.8449 H         1 UNK         0.0600 
    179 H179        4.6925  -16.4106  -42.5127 H         1 UNK         0.3000 
    180 H180        6.4804  -16.7200  -43.8599 H         1 UNK         0.0600 
    181 H181        7.9775  -19.3894  -43.7227 H         1 UNK         0.0600 
    182 H182        8.4838  -17.8981  -42.9381 H         1 UNK         0.0600 
    183 H183        8.4195  -17.9843  -44.6911 H         1 UNK         0.0600 
    184 H184        6.1502  -19.2115  -45.2860 H         1 UNK         0.3000 
    185 H185        4.8720  -19.1408  -47.1301 H         1 UNK         0.0600 
    186 H186        3.4850  -20.4263  -45.4849 H         1 UNK         0.0600 
    187 H187        2.1737  -19.2747  -45.6881 H         1 UNK         0.0600 
    188 H188        2.6747  -20.2957  -47.0377 H         1 UNK         0.0600 
    189 H189        2.4259  -17.9317  -47.7722 H         1 UNK         0.3000 
    190 H190       -2.8877  -20.3218  -46.2155 H         1 UNK         0.3000 
    191 H191       -4.4855  -21.5198  -48.1709 H         1 UNK         0.0600 
    192 H192       -5.3682  -20.1316  -46.3219 H         1 UNK         0.0600 
    193 H193       -6.1840  -21.6842  -46.3908 H         1 UNK         0.0600 
    194 H194       -4.9647  -21.3964  -45.1606 H         1 UNK         0.0600 
    195 H195       -2.4466  -23.0587  -45.7555 H         1 UNK         0.3000 
    196 H196       -3.4791  -25.7721  -46.4453 H         1 UNK         0.0600 
    197 H197       -2.0577  -26.5021  -44.5415 H         1 UNK         0.0600 
    198 H198       -3.2336  -25.3009  -44.0303 H         1 UNK         0.0600 
    199 H199       -1.5482  -24.8427  -44.2538 H         1 UNK         0.0600 
    200 H200       -0.4201  -23.8742  -46.2072 H         1 UNK         0.3000 
    201 H201        1.2400  -25.9039  -47.1696 H         1 UNK         0.0600 
    202 H202        1.9977  -24.0040  -45.7665 H         1 UNK         0.0600 
    203 H203        1.7339  -22.8828  -47.0991 H         1 UNK         0.0600 
    204 H204        2.9731  -24.1225  -47.2227 H         1 UNK         0.0600 
    205 H205       -0.3883  -23.3353  -49.0417 H         1 UNK         0.3000 
    206 H206        0.7501  -24.4654  -51.5800 H         1 UNK         0.0600 
    207 H207        1.5389  -22.1130  -50.9934 H         1 UNK         0.0600 
    208 H208        0.6228  -22.2012  -52.4897 H         1 UNK         0.0600 
    209 H209       -0.1462  -21.5949  -51.0304 H         1 UNK         0.0600 
    210 H210       -1.8316  -24.8428  -49.7822 H         1 UNK         0.3000 
    211 H211       -4.0289  -25.1536  -49.9538 H         1 UNK         0.0600 
    212 H212       -3.4555  -25.6998  -52.9145 H         1 UNK         0.0600 
    213 H213       -4.8635  -26.2411  -52.0110 H         1 UNK         0.0600 
    214 H214       -3.2739  -26.8656  -51.6055 H         1 UNK         0.0600 
    215 H215       -3.2902  -22.4704  -49.9844 H         1 UNK         0.3000 
    216 H216       -4.0326  -20.3966  -50.2460 H         1 UNK         0.0600 
    217 H217       -6.4076  -19.9330  -50.6599 H         1 UNK         0.0600 
    218 H218       -6.2951  -21.3431  -49.6231 H         1 UNK         0.0600 
    219 H219       -6.6660  -21.5317  -51.3308 H         1 UNK         0.0600 
    220 H220       -2.3569  -21.3673  -52.1347 H         1 UNK         0.3000 
    221 H221       -1.3463  -20.9346  -54.0540 H         1 UNK         0.0600 
    222 H222       -3.3345  -18.6307  -54.4653 H         1 UNK         0.0600 
    223 H223       -1.8067  -18.5120  -53.6029 H         1 UNK         0.0600 
    224 H224       -1.8194  -18.8634  -55.3219 H         1 UNK         0.0600 
    225 H225       -2.8404  -23.0646  -54.0617 H         1 UNK         0.3000 
    226 H226       -4.0719  -24.5811  -55.1265 H         1 UNK         0.0600 
    227 H227       -2.3115  -24.3004  -56.8741 H         1 UNK         0.0600 
    228 H228       -3.8536  -24.7485  -57.5854 H         1 UNK         0.0600 
    229 H229       -3.2948  -23.0846  -57.6883 H         1 UNK         0.0600 
    230 H230       -5.6064  -22.9198  -53.8826 H         1 UNK         0.3000 
    231 H231       -7.5944  -22.1752  -53.4958 H         1 UNK         0.0600 
    232 H232       -8.5327  -23.4429  -56.1184 H         1 UNK         0.0600 
    233 H233       -9.5377  -23.0016  -54.7479 H         1 UNK         0.0600 
    234 H234       -8.3609  -24.2929  -54.5821 H         1 UNK         0.0600 
    235 H235       -5.8153  -20.6708  -55.8019 H         1 UNK         0.3000 
    236 H236       -7.6830  -18.9380  -57.0691 H         1 UNK         0.0600 
    237 H237       -5.3515  -19.3354  -57.8865 H         1 UNK         0.0600 
    238 H238       -5.6922  -17.6223  -57.6891 H         1 UNK         0.0600 
    239 H239       -4.7154  -18.4606  -56.4930 H         1 UNK         0.0600 
    240 H240       -6.1388  -18.7897  -53.8950 H         1 UNK         0.3000 
    241 H241       -7.2611  -16.1174  -53.3282 H         1 UNK         0.0600 
    242 H242       -9.8046  -18.8804  -52.0731 H         1 UNK         0.3800 
    243 H243       -8.7782  -19.0670  -53.4705 H         1 UNK         0.3800 
    244 H244       -5.6617  -17.7719  -51.3536 H         1 UNK         0.0800 
    245 H245       -4.8404  -16.9592  -52.6521 H         1 UNK         0.0800 
    246 H246       -5.4411  -16.7827  -49.2003 H         1 UNK         0.0800 
    247 H247       -5.2452  -15.0996  -48.7975 H         1 UNK         0.0800 
@<TRIPOS>BOND
     1    1    2 1    
     2    1  127 1    
     3    1  128 1    
     4    1  129 1    
     5    2    3 2    
     6    2    4 am   BACKBONE|DICT|INTERRES
     7    4    5 1    
     8    4  130 1    
     9    5    6 1    
    10    5   65 1    
    11    5  131 1    
    12    6    7 1    
    13    6  132 1    
    14    6  133 1    
    15    7    8 1    
    16    8    9 1    
    17    8  134 1    
    18    8  135 1    
    19    9   10 ar   
    20    9   14 ar   
    21   10   11 ar   
    22   10  136 1    
    23   11   12 ar   
    24   11  126 1    
    25   12   13 ar   
    26   12  137 1    
    27   13   14 ar   
    28   13   15 1    
    29   14  138 1    
    30   15   16 1    
    31   15  139 1    
    32   15  140 1    
    33   16   17 1    
    34   17   18 1    
    35   17  141 1    
    36   17  142 1    
    37   18   19 1    
    38   18   67 1    
    39   18  143 1    
    40   19   20 am   BACKBONE|DICT|INTERRES
    41   19  144 1    
    42   20   21 2    
    43   20   22 1    
    44   22   23 1    
    45   22   24 1    
    46   22  145 1    
    47   23  146 1    
    48   23  147 1    
    49   23  148 1    
    50   24   25 am   BACKBONE|DICT|INTERRES
    51   24  149 1    
    52   25   26 2    
    53   25   27 1    
    54   27   28 1    
    55   27   29 1    
    56   27  150 1    
    57   28  151 1    
    58   28  152 1    
    59   28  153 1    
    60   29   30 am   BACKBONE|DICT|INTERRES
    61   29  154 1    
    62   30   31 2    
    63   30   32 1    
    64   32   33 1    
    65   32   34 1    
    66   32  155 1    
    67   33  156 1    
    68   33  157 1    
    69   33  158 1    
    70   34   35 am   BACKBONE|DICT|INTERRES
    71   34  159 1    
    72   35   36 2    
    73   35   37 1    
    74   37   38 1    
    75   37   39 1    
    76   37  160 1    
    77   38  161 1    
    78   38  162 1    
    79   38  163 1    
    80   39   40 am   BACKBONE|DICT|INTERRES
    81   39  164 1    
    82   40   41 2    
    83   40   42 1    
    84   42   43 1    
    85   42   44 1    
    86   42  165 1    
    87   43  166 1    
    88   43  167 1    
    89   43  168 1    
    90   44   45 am   BACKBONE|DICT|INTERRES
    91   44  169 1    
    92   45   46 2    
    93   45   47 1    
    94   47   48 1    
    95   47   49 1    
    96   47  170 1    
    97   48  171 1    
    98   48  172 1    
    99   48  173 1    
   100   49   50 am   BACKBONE|DICT|INTERRES
   101   49  174 1    
   102   50   51 2    
   103   50   52 1    
   104   52   53 1    
   105   52   54 1    
   106   52  175 1    
   107   53  176 1    
   108   53  177 1    
   109   53  178 1    
   110   54   55 am   BACKBONE|DICT|INTERRES
   111   54  179 1    
   112   55   56 2    
   113   55   57 1    
   114   57   58 1    
   115   57   59 1    
   116   57  180 1    
   117   58  181 1    
   118   58  182 1    
   119   58  183 1    
   120   59   60 am   BACKBONE|DICT|INTERRES
   121   59  184 1    
   122   60   61 2    
   123   60   62 1    
   124   62   63 1    
   125   62   64 1    
   126   62  185 1    
   127   63  186 1    
   128   63  187 1    
   129   63  188 1    
   130   64   65 am   BACKBONE|DICT|INTERRES
   131   64  189 1    
   132   65   66 2    
   133   67   68 2    
   134   67   69 am   BACKBONE|DICT|INTERRES
   135   69   70 1    
   136   69  190 1    
   137   70   71 1    
   138   70   72 1    
   139   70  191 1    
   140   71  192 1    
   141   71  193 1    
   142   71  194 1    
   143   72   73 2    
   144   72   74 am   BACKBONE|DICT|INTERRES
   145   74   75 1    
   146   74  195 1    
   147   75   76 1    
   148   75   77 1    
   149   75  196 1    
   150   76  197 1    
   151   76  198 1    
   152   76  199 1    
   153   77   78 2    
   154   77   79 am   BACKBONE|DICT|INTERRES
   155   79   80 1    
   156   79  200 1    
   157   80   81 1    
   158   80   82 1    
   159   80  201 1    
   160   81  202 1    
   161   81  203 1    
   162   81  204 1    
   163   82   83 2    
   164   82   84 am   BACKBONE|DICT|INTERRES
   165   84   85 1    
   166   84  205 1    
   167   85   86 1    
   168   85   87 1    
   169   85  206 1    
   170   86  207 1    
   171   86  208 1    
   172   86  209 1    
   173   87   88 2    
   174   87   89 am   BACKBONE|DICT|INTERRES
   175   89   90 1    
   176   89  210 1    
   177   90   91 1    
   178   90   92 1    
   179   90  211 1    
   180   91  212 1    
   181   91  213 1    
   182   91  214 1    
   183   92   93 2    
   184   92   94 am   BACKBONE|DICT|INTERRES
   185   94   95 1    
   186   94  215 1    
   187   95   96 1    
   188   95   97 1    
   189   95  216 1    
   190   96  217 1    
   191   96  218 1    
   192   96  219 1    
   193   97   98 2    
   194   97   99 am   BACKBONE|DICT|INTERRES
   195   99  100 1    
   196   99  220 1    
   197  100  101 1    
   198  100  102 1    
   199  100  221 1    
   200  101  222 1    
   201  101  223 1    
   202  101  224 1    
   203  102  103 2    
   204  102  104 am   BACKBONE|DICT|INTERRES
   205  104  105 1    
   206  104  225 1    
   207  105  106 1    
   208  105  107 1    
   209  105  226 1    
   210  106  227 1    
   211  106  228 1    
   212  106  229 1    
   213  107  108 2    
   214  107  109 am   BACKBONE|DICT|INTERRES
   215  109  110 1    
   216  109  230 1    
   217  110  111 1    
   218  110  112 1    
   219  110  231 1    
   220  111  232 1    
   221  111  233 1    
   222  111  234 1    
   223  112  113 2    
   224  112  114 am   BACKBONE|DICT|INTERRES
   225  114  115 1    
   226  114  235 1    
   227  115  116 1    
   228  115  117 1    
   229  115  236 1    
   230  116  237 1    
   231  116  238 1    
   232  116  239 1    
   233  117  118 2    
   234  117  119 am   BACKBONE|DICT|INTERRES
   235  119  120 1    
   236  119  240 1    
   237  120  121 1    
   238  120  124 1    
   239  120  241 1    
   240  121  122 am   BACKBONE|DICT|INTERRES
   241  121  123 2    
   242  122  242 1    
   243  122  243 1    
   244  124  125 1    
   245  124  244 1    
   246  124  245 1    
   247  125  126 1    
   248  126  246 1    
   249  126  247 1    
@<TRIPOS>SUBSTRUCTURE
     1 UNK         1 GROUP             0       ****    0 ROOT    
