@<TRIPOS>MOLECULE
3R540
247   249    1
SMALL
USER_CHARGES


@<TRIPOS>ATOM
      1 CA          2.6175  -18.1283  -43.4458 C.3       0 UNK        -0.1800 
      2 C           2.7757  -16.7235  -44.0055 C.2       0 UNK         0.5000 
      3 O           3.5848  -15.9442  -43.5042 O.2       0 UNK        -0.5000 
      4 N           2.0208  -16.3959  -45.0606 N.am      1 UNK        -0.5000 
      5 CA          1.9995  -15.0863  -45.7282 C.3       1 UNK         0.1400 
      6 C6          0.8376  -14.9695  -46.7487 C.3       23 UNK        -0.0398 
      7 S7          0.6768  -16.4193  -47.8463 S.3       23 UNK        -0.2404 
      8 C8          1.3728  -15.7827  -49.4031 C.3       23 UNK        -0.0205 
      9 C9          1.7420  -16.9346  -50.3216 C.ar      23 UNK        -0.0193 
     10 C10         0.9822  -17.2327  -51.4563 C.ar      23 UNK        -0.1150 
     11 C11         1.3014  -18.3377  -52.2557 C.ar      23 UNK        -0.0193 
     12 C12         2.3979  -19.1376  -51.9108 C.ar      23 UNK        -0.1150 
     13 C13         3.1764  -18.8338  -50.7901 C.ar      23 UNK        -0.0193 
     14 C14         2.8494  -17.7231  -50.0114 C.ar      23 UNK        -0.1150 
     15 C15         4.3805  -19.6885  -50.4200 C.3       23 UNK        -0.0205 
     16 S16         3.9255  -21.2248  -49.5518 S.3       23 UNK        -0.2404 
     17 C17         3.0677  -20.6241  -48.0503 C.3       23 UNK        -0.0398 
     18 CA          1.7684  -21.4079  -47.7495 C.3       11 UNK         0.1400 
     19 N           1.2388  -21.1062  -46.4163 N.am      11 UNK        -0.5000 
     20 C           0.3644  -21.8912  -45.7715 C.2       10 UNK         0.5000 
     21 O          -0.0657  -22.9498  -46.2282 O.2       10 UNK        -0.5000 
     22 CA         -0.1334  -21.4066  -44.3971 C.3       10 UNK         0.1400 
     23 CB          0.8548  -21.8106  -43.2926 C.3       10 UNK        -0.1800 
     24 N          -0.3951  -19.9674  -44.3013 N.am      10 UNK        -0.5000 
     25 C          -1.2385  -19.2721  -45.0785 C.2       9 UNK         0.5000 
     26 O          -1.7675  -19.7340  -46.0898 O.2       9 UNK        -0.5000 
     27 CA         -1.5431  -17.8234  -44.6321 C.3       9 UNK         0.1400 
     28 CB         -2.8187  -17.2579  -45.2862 C.3       9 UNK        -0.1800 
     29 N          -1.5946  -17.6537  -43.1724 N.am      9 UNK        -0.5000 
     30 C          -2.3795  -18.3176  -42.3054 C.2       8 UNK         0.5000 
     31 O          -3.1848  -19.1926  -42.6238 O.2       8 UNK        -0.5000 
     32 CA         -2.2416  -17.9253  -40.8268 C.3       8 UNK         0.1400 
     33 CB         -0.8778  -18.3598  -40.2624 C.3       8 UNK        -0.1800 
     34 N          -2.4049  -16.4824  -40.6697 N.am      8 UNK        -0.5000 
     35 C          -3.5748  -15.8714  -40.4310 C.2       7 UNK         0.5000 
     36 O          -4.6310  -16.4704  -40.2249 O.2       7 UNK        -0.5000 
     37 CA         -3.5721  -14.3286  -40.4258 C.3       7 UNK         0.1400 
     38 CB         -3.3672  -13.7957  -38.9995 C.3       7 UNK        -0.1800 
     39 N          -2.5424  -13.7634  -41.2979 N.am      7 UNK        -0.5000 
     40 C          -2.5613  -13.8232  -42.6368 C.2       6 UNK         0.5000 
     41 O          -3.5231  -14.2334  -43.2851 O.2       6 UNK        -0.5000 
     42 CA         -1.2830  -13.3811  -43.3778 C.3       6 UNK         0.1400 
     43 CB         -1.4722  -12.0002  -44.0221 C.3       6 UNK        -0.1800 
     44 N          -0.0831  -13.3513  -42.5358 N.am      6 UNK        -0.5000 
     45 C           0.4994  -14.4161  -41.9704 C.2       5 UNK         0.5000 
     46 O           0.0763  -15.5672  -42.1002 O.2       5 UNK        -0.5000 
     47 CA          1.7620  -14.1262  -41.1382 C.3       5 UNK         0.1400 
     48 CB          2.2953  -15.3676  -40.4011 C.3       5 UNK        -0.1800 
     49 N           2.8098  -13.5713  -41.9956 N.am      5 UNK        -0.5000 
     50 C           2.9347  -12.2740  -42.3106 C.2       4 UNK         0.5000 
     51 O           2.1789  -11.4080  -41.8659 O.2       4 UNK        -0.5000 
     52 CA          4.0220  -11.8695  -43.3293 C.3       4 UNK         0.1400 
     53 CB          4.7468  -10.5671  -42.9308 C.3       4 UNK        -0.1800 
     54 N           4.9749  -12.9335  -43.6632 N.am      4 UNK        -0.5000 
     55 C           5.9251  -13.4782  -42.8862 C.2       3 UNK         0.5000 
     56 O           6.1470  -13.1225  -41.7283 O.2       3 UNK        -0.5000 
     57 CA          6.7555  -14.6262  -43.5010 C.3       3 UNK         0.1400 
     58 CB          6.9427  -15.7824  -42.5026 C.3       3 UNK        -0.1800 
     59 N           6.1190  -15.1560  -44.7081 N.am      3 UNK        -0.5000 
     60 C           6.5030  -14.9208  -45.9699 C.2       2 UNK         0.5000 
     61 O           7.5074  -14.2751  -46.2698 O.2       2 UNK        -0.5000 
     62 CA          5.5985  -15.4787  -47.0907 C.3       2 UNK         0.1400 
     63 CB          6.1572  -16.8118  -47.6114 C.3       2 UNK        -0.1800 
     64 N           4.2039  -15.6704  -46.6771 N.am      2 UNK        -0.5000 
     65 C           3.3595  -14.6827  -46.3423 C.2       1 UNK         0.5000 
     66 O           3.6458  -13.4891  -46.4322 O.2       1 UNK        -0.5000 
     67 C           0.6865  -21.2409  -48.8393 C.2       11 UNK         0.5000 
     68 O           0.5738  -22.1078  -49.7055 O.2       11 UNK        -0.5000 
     69 N          -0.1389  -20.1870  -48.7427 N.am      12 UNK        -0.5000 
     70 CA         -1.2716  -19.9658  -49.6459 C.3       12 UNK         0.1400 
     71 CB         -1.8653  -18.5661  -49.4336 C.3       12 UNK        -0.1800 
     72 C          -2.3608  -21.0397  -49.4944 C.2       12 UNK         0.5000 
     73 O          -2.9107  -21.4904  -50.4950 O.2       12 UNK        -0.5000 
     74 N          -2.6229  -21.4608  -48.2496 N.am      13 UNK        -0.5000 
     75 CA         -3.5434  -22.5485  -47.9175 C.3       13 UNK         0.1400 
     76 CB         -3.7616  -22.5769  -46.3977 C.3       13 UNK        -0.1800 
     77 C          -3.0764  -23.9269  -48.4284 C.2       13 UNK         0.5000 
     78 O          -3.9167  -24.7922  -48.6711 O.2       13 UNK        -0.5000 
     79 N          -1.7599  -24.1143  -48.5858 N.am      14 UNK        -0.5000 
     80 CA         -1.1677  -25.3100  -49.1786 C.3       14 UNK         0.1400 
     81 CB          0.2648  -25.4917  -48.6524 C.3       14 UNK        -0.1800 
     82 C          -1.1904  -25.2485  -50.7160 C.2       14 UNK         0.5000 
     83 O          -1.6075  -26.2168  -51.3531 O.2       14 UNK        -0.5000 
     84 N          -0.7388  -24.1198  -51.2812 N.am      15 UNK        -0.5000 
     85 CA         -0.5947  -23.8666  -52.7156 C.3       15 UNK         0.1400 
     86 CB          0.0677  -22.4945  -52.9155 C.3       15 UNK        -0.1800 
     87 C          -1.9281  -23.9751  -53.4830 C.2       15 UNK         0.5000 
     88 O          -2.7607  -23.0712  -53.4092 O.2       15 UNK        -0.5000 
     89 N          -2.1012  -25.1036  -54.1878 N.am      16 UNK        -0.5000 
     90 CA         -3.3002  -25.5199  -54.9298 C.3       16 UNK         0.1400 
     91 CB         -3.6104  -24.5378  -56.0807 C.3       16 UNK        -0.1800 
     92 C          -4.5295  -25.7937  -54.0323 C.2       16 UNK         0.5000 
     93 O          -5.6496  -25.8420  -54.5431 O.2       16 UNK        -0.5000 
     94 N          -4.2889  -25.9958  -52.7267 N.am      17 UNK        -0.5000 
     95 CA         -5.2466  -26.1449  -51.6261 C.3       17 UNK         0.1400 
     96 CB         -6.1854  -27.3468  -51.8548 C.3       17 UNK        -0.1800 
     97 C          -6.0480  -24.8602  -51.3314 C.2       17 UNK         0.5000 
     98 O          -6.1864  -23.9801  -52.1831 O.2       17 UNK        -0.5000 
     99 N          -6.6057  -24.7874  -50.1163 N.am      18 UNK        -0.5000 
    100 CA        -7.3509  -23.6394  -49.5873 C.3       18 UNK         0.1400 
    101 CB        -7.6181  -23.8694  -48.0923 C.3       18 UNK        -0.1800 
    102 C         -8.6611  -23.3182  -50.3367 C.2       18 UNK         0.5000 
    103 O         -9.1942  -22.2209  -50.1734 O.2       18 UNK        -0.5000 
    104 N         -9.1443  -24.2603  -51.1589 N.am      19 UNK        -0.5000 
    105 CA       -10.2528  -24.0666  -52.0938 C.3       19 UNK         0.1400 
    106 CB       -10.6563  -25.4275  -52.6815 C.3       19 UNK        -0.1800 
    107 C         -9.9151  -23.0684  -53.2206 C.2       19 UNK         0.5000 
    108 O        -10.8032  -22.3382  -53.6625 O.2       19 UNK        -0.5000 
    109 N         -8.6454  -23.0447  -53.6497 N.am      20 UNK        -0.5000 
    110 CA        -8.1113  -22.0809  -54.6120 C.3       20 UNK         0.1400 
    111 CB        -7.1718  -22.8059  -55.5875 C.3       20 UNK        -0.1800 
    112 C         -7.3565  -20.9509  -53.8941 C.2       20 UNK         0.5000 
    113 O         -7.4455  -19.7975  -54.3187 O.2       20 UNK        -0.5000 
    114 N         -6.6119  -21.3097  -52.8358 N.am      21 UNK        -0.5000 
    115 CA        -5.7750  -20.4521  -51.9895 C.3       21 UNK         0.1400 
    116 CB        -6.6578  -19.5779  -51.0764 C.3       21 UNK        -0.1800 
    117 C         -4.7424  -19.6323  -52.7956 C.2       21 UNK         0.5000 
    118 O         -4.5205  -18.4587  -52.4930 O.2       21 UNK        -0.5000 
    119 N         -4.2030  -20.2609  -53.8513 N.am      22 UNK        -0.5000 
    120 CA        -3.3850  -19.6879  -54.9354 C.3       22 UNK         0.1400 
    121 C         -3.9318  -18.3964  -55.6231 C.2       22 UNK         0.5000 
    122 N         -5.2329  -18.1290  -55.5841 N.am      22 UNK        -0.7600 
    123 O         -3.1825  -17.6480  -56.2454 O.2       22 UNK        -0.5000 
    124 C124       -1.8578  -19.6857  -54.6433 C.3       23 UNK        -0.0398 
    125 S125       -1.3051  -18.7122  -53.2040 S.3       23 UNK        -0.2404 
    126 C126        0.4909  -18.6614  -53.5069 C.3       23 UNK        -0.0205 
    127 H127        3.5733  -18.4950  -43.0717 H         1 UNK         0.0600 
    128 H128        2.2658  -18.8224  -44.2077 H         1 UNK         0.0600 
    129 H129        1.9058  -18.1234  -42.6204 H         1 UNK         0.0600 
    130 H130        1.4099  -17.0841  -45.4722 H         1 UNK         0.3000 
    131 H131        1.8056  -14.3486  -44.9463 H         1 UNK         0.0600 
    132 H132        0.9110  -14.0529  -47.3373 H         1 UNK         0.0800 
    133 H133       -0.1035  -14.8840  -46.2052 H         1 UNK         0.0800 
    134 H134        0.6510  -15.1176  -49.8793 H         1 UNK         0.0800 
    135 H135        2.2644  -15.1877  -49.2002 H         1 UNK         0.0800 
    136 H136        0.1309  -16.6165  -51.7090 H         1 UNK         0.1150 
    137 H137        2.6533  -19.9956  -52.5167 H         1 UNK         0.1150 
    138 H138        3.4386  -17.4826  -49.1391 H         1 UNK         0.1150 
    139 H139        4.9285  -19.9486  -51.3266 H         1 UNK         0.0800 
    140 H140        5.0775  -19.1237  -49.7999 H         1 UNK         0.0800 
    141 H141        2.8599  -19.5582  -48.1108 H         1 UNK         0.0800 
    142 H142        3.7645  -20.7410  -47.2193 H         1 UNK         0.0800 
    143 H143        2.0393  -22.4667  -47.7448 H         1 UNK         0.0600 
    144 H144        1.5417  -20.2516  -45.9768 H         1 UNK         0.3000 
    145 H145       -1.0802  -21.9143  -44.2026 H         1 UNK         0.0600 
    146 H146        0.4590  -21.5775  -42.3038 H         1 UNK         0.0600 
    147 H147        1.0509  -22.8835  -43.3168 H         1 UNK         0.0600 
    148 H148        1.8124  -21.2998  -43.4001 H         1 UNK         0.0600 
    149 H149       -0.0334  -19.5069  -43.4801 H         1 UNK         0.3000 
    150 H150       -0.7073  -17.2169  -44.9785 H         1 UNK         0.0600 
    151 H151       -2.7362  -17.2564  -46.3731 H         1 UNK         0.0600 
    152 H152       -2.9950  -16.2281  -44.9792 H         1 UNK         0.0600 
    153 H153       -3.7007  -17.8426  -45.0236 H         1 UNK         0.0600 
    154 H154       -0.9686  -16.9462  -42.7934 H         1 UNK         0.3000 
    155 H155       -3.0154  -18.4506  -40.2626 H         1 UNK         0.0600 
    156 H156       -0.0452  -17.8698  -40.7672 H         1 UNK         0.0600 
    157 H157       -0.7378  -19.4362  -40.3698 H         1 UNK         0.0600 
    158 H158       -0.8032  -18.1278  -39.2000 H         1 UNK         0.0600 
    159 H159       -1.5938  -15.9171  -40.8855 H         1 UNK         0.3000 
    160 H160       -4.5483  -13.9919  -40.7813 H         1 UNK         0.0600 
    161 H161       -2.3987  -14.0908  -38.5938 H         1 UNK         0.0600 
    162 H162       -4.1355  -14.1783  -38.3262 H         1 UNK         0.0600 
    163 H163       -3.4262  -12.7074  -38.9725 H         1 UNK         0.0600 
    164 H164       -1.7249  -13.3798  -40.8482 H         1 UNK         0.3000 
    165 H165       -1.1121  -14.1091  -44.1726 H         1 UNK         0.0600 
    166 H166       -0.6051  -11.7229  -44.6221 H         1 UNK         0.0600 
    167 H167       -2.3396  -11.9918  -44.6837 H         1 UNK         0.0600 
    168 H168       -1.6238  -11.2243  -43.2708 H         1 UNK         0.0600 
    169 H169        0.3434  -12.4449  -42.3812 H         1 UNK         0.3000 
    170 H170        1.4882  -13.3939  -40.3758 H         1 UNK         0.0600 
    171 H171        1.5429  -15.7685  -39.7208 H         1 UNK         0.0600 
    172 H172        2.5721  -16.1678  -41.0852 H         1 UNK         0.0600 
    173 H173        3.1741  -15.1218  -39.8051 H         1 UNK         0.0600 
    174 H174        3.4044  -14.2506  -42.4597 H         1 UNK         0.3000 
    175 H175        3.4849  -11.6644  -44.2563 H         1 UNK         0.0600 
    176 H176        5.2374  -10.6535  -41.9611 H         1 UNK         0.0600 
    177 H177        5.5021  -10.2940  -43.6676 H         1 UNK         0.0600 
    178 H178        4.0457   -9.7343  -42.8646 H         1 UNK         0.0600 
    179 H179        4.8752  -13.3046  -44.5995 H         1 UNK         0.3000 
    180 H180        7.7402  -14.2189  -43.7378 H         1 UNK         0.0600 
    181 H181        5.9857  -16.1906  -42.1754 H         1 UNK         0.0600 
    182 H182        7.4807  -15.4523  -41.6132 H         1 UNK         0.0600 
    183 H183        7.5195  -16.5947  -42.9450 H         1 UNK         0.0600 
    184 H184        5.2535  -15.6595  -44.5428 H         1 UNK         0.3000 
    185 H185        5.6132  -14.7577  -47.9108 H         1 UNK         0.0600 
    186 H186        7.2077  -16.7148  -47.8892 H         1 UNK         0.0600 
    187 H187        6.0880  -17.6002  -46.8610 H         1 UNK         0.0600 
    188 H188        5.6234  -17.1416  -48.5008 H         1 UNK         0.0600 
    189 H189        3.8939  -16.6226  -46.5553 H         1 UNK         0.3000 
    190 H190       -0.0398  -19.5415  -47.9739 H         1 UNK         0.3000 
    191 H191       -0.8928  -20.0232  -50.6671 H         1 UNK         0.0600 
    192 H192       -1.1404  -17.7910  -49.6721 H         1 UNK         0.0600 
    193 H193       -2.7255  -18.4072  -50.0856 H         1 UNK         0.0600 
    194 H194       -2.1976  -18.4166  -48.4072 H         1 UNK         0.0600 
    195 H195       -2.1693  -20.9873  -47.4722 H         1 UNK         0.3000 
    196 H196       -4.5009  -22.3313  -48.3950 H         1 UNK         0.0600 
    197 H197       -4.4823  -23.3471  -46.1206 H         1 UNK         0.0600 
    198 H198       -4.1472  -21.6234  -46.0359 H         1 UNK         0.0600 
    199 H199       -2.8346  -22.7867  -45.8638 H         1 UNK         0.0600 
    200 H200       -1.1282  -23.3678  -48.3278 H         1 UNK         0.3000 
    201 H201       -1.7448  -26.1843  -48.8697 H         1 UNK         0.0600 
    202 H202        0.2743  -25.5868  -47.5664 H         1 UNK         0.0600 
    203 H203        0.9075  -24.6521  -48.9172 H         1 UNK         0.0600 
    204 H204        0.7188  -26.3944  -49.0629 H         1 UNK         0.0600 
    205 H205       -0.4116  -23.3731  -50.6728 H         1 UNK         0.3000 
    206 H206        0.0916  -24.6187  -53.1096 H         1 UNK         0.0600 
    207 H207        1.0525  -22.4586  -52.4491 H         1 UNK         0.0600 
    208 H208        0.2033  -22.2751  -53.9747 H         1 UNK         0.0600 
    209 H209       -0.5332  -21.6951  -52.4803 H         1 UNK         0.0600 
    210 H210       -1.3664  -25.7967  -54.1480 H         1 UNK         0.3000 
    211 H211       -3.0500  -26.4799  -55.3831 H         1 UNK         0.0600 
    212 H212       -3.9392  -23.5667  -55.7108 H         1 UNK         0.0600 
    213 H213       -4.4025  -24.9241  -56.7231 H         1 UNK         0.0600 
    214 H214       -2.7346  -24.3779  -56.7094 H         1 UNK         0.0600 
    215 H215       -3.3198  -25.9477  -52.4293 H         1 UNK         0.3000 
    216 H216       -4.6401  -26.3573  -50.7448 H         1 UNK         0.0600 
    217 H217       -6.7690  -27.5628  -50.9593 H         1 UNK         0.0600 
    218 H218       -5.6213  -28.2475  -52.0966 H         1 UNK         0.0600 
    219 H219       -6.8934  -27.1664  -52.6641 H         1 UNK         0.0600 
    220 H220       -6.4286  -25.5363  -49.4619 H         1 UNK         0.3000 
    221 H221       -6.7092  -22.7613  -49.6850 H         1 UNK         0.0600 
    222 H222       -8.2388  -24.7507  -47.9267 H         1 UNK         0.0600 
    223 H223       -6.6868  -24.0048  -47.5417 H         1 UNK         0.0600 
    224 H224       -8.1335  -23.0159  -47.6497 H         1 UNK         0.0600 
    225 H225       -8.6490  -25.1374  -51.2154 H         1 UNK         0.3000 
    226 H226      -11.1025  -23.6669  -51.5364 H         1 UNK         0.0600 
    227 H227      -10.9646  -26.1201  -51.8981 H         1 UNK         0.0600 
    228 H228      -11.4961  -25.3216  -53.3695 H         1 UNK         0.0600 
    229 H229       -9.8354  -25.8874  -53.2335 H         1 UNK         0.0600 
    230 H230       -7.9682  -23.6563  -53.2085 H         1 UNK         0.3000 
    231 H231       -8.9199  -21.6321  -55.1927 H         1 UNK         0.0600 
    232 H232       -6.7709  -22.1161  -56.3312 H         1 UNK         0.0600 
    233 H233       -6.3259  -23.2567  -55.0681 H         1 UNK         0.0600 
    234 H234       -7.6940  -23.5983  -56.1237 H         1 UNK         0.0600 
    235 H235       -6.5429  -22.3033  -52.6201 H         1 UNK         0.3000 
    236 H236       -5.2148  -21.1316  -51.3507 H         1 UNK         0.0600 
    237 H237       -6.0504  -19.0235  -50.3601 H         1 UNK         0.0600 
    238 H238       -7.2361  -18.8530  -51.6501 H         1 UNK         0.0600 
    239 H239       -7.3569  -20.1862  -50.5033 H         1 UNK         0.0600 
    240 H240       -4.4104  -21.2451  -53.9501 H         1 UNK         0.3000 
    241 H241       -3.5032  -20.4233  -55.7320 H         1 UNK         0.0600 
    242 H242       -5.5790  -17.3014  -56.0425 H         1 UNK         0.3800 
    243 H243       -5.8780  -18.7261  -55.0780 H         1 UNK         0.3800 
    244 H244       -1.5414  -20.7145  -54.4785 H         1 UNK         0.0800 
    245 H245       -1.3057  -19.3541  -55.5240 H         1 UNK         0.0800 
    246 H246        0.8048  -19.6230  -53.9156 H         1 UNK         0.0800 
    247 H247        0.7028  -17.9140  -54.2723 H         1 UNK         0.0800 
@<TRIPOS>BOND
     1    1    2 1    
     2    1  127 1    
     3    1  128 1    
     4    1  129 1    
     5    2    3 2    
     6    2    4 am   BACKBONE|DICT|INTERRES
     7    4    5 1    
     8    4  130 1    
     9    5    6 1    
    10    5   65 1    
    11    5  131 1    
    12    6    7 1    
    13    6  132 1    
    14    6  133 1    
    15    7    8 1    
    16    8    9 1    
    17    8  134 1    
    18    8  135 1    
    19    9   10 ar   
    20    9   14 ar   
    21   10   11 ar   
    22   10  136 1    
    23   11   12 ar   
    24   11  126 1    
    25   12   13 ar   
    26   12  137 1    
    27   13   14 ar   
    28   13   15 1    
    29   14  138 1    
    30   15   16 1    
    31   15  139 1    
    32   15  140 1    
    33   16   17 1    
    34   17   18 1    
    35   17  141 1    
    36   17  142 1    
    37   18   19 1    
    38   18   67 1    
    39   18  143 1    
    40   19   20 am   BACKBONE|DICT|INTERRES
    41   19  144 1    
    42   20   21 2    
    43   20   22 1    
    44   22   23 1    
    45   22   24 1    
    46   22  145 1    
    47   23  146 1    
    48   23  147 1    
    49   23  148 1    
    50   24   25 am   BACKBONE|DICT|INTERRES
    51   24  149 1    
    52   25   26 2    
    53   25   27 1    
    54   27   28 1    
    55   27   29 1    
    56   27  150 1    
    57   28  151 1    
    58   28  152 1    
    59   28  153 1    
    60   29   30 am   BACKBONE|DICT|INTERRES
    61   29  154 1    
    62   30   31 2    
    63   30   32 1    
    64   32   33 1    
    65   32   34 1    
    66   32  155 1    
    67   33  156 1    
    68   33  157 1    
    69   33  158 1    
    70   34   35 am   BACKBONE|DICT|INTERRES
    71   34  159 1    
    72   35   36 2    
    73   35   37 1    
    74   37   38 1    
    75   37   39 1    
    76   37  160 1    
    77   38  161 1    
    78   38  162 1    
    79   38  163 1    
    80   39   40 am   BACKBONE|DICT|INTERRES
    81   39  164 1    
    82   40   41 2    
    83   40   42 1    
    84   42   43 1    
    85   42   44 1    
    86   42  165 1    
    87   43  166 1    
    88   43  167 1    
    89   43  168 1    
    90   44   45 am   BACKBONE|DICT|INTERRES
    91   44  169 1    
    92   45   46 2    
    93   45   47 1    
    94   47   48 1    
    95   47   49 1    
    96   47  170 1    
    97   48  171 1    
    98   48  172 1    
    99   48  173 1    
   100   49   50 am   BACKBONE|DICT|INTERRES
   101   49  174 1    
   102   50   51 2    
   103   50   52 1    
   104   52   53 1    
   105   52   54 1    
   106   52  175 1    
   107   53  176 1    
   108   53  177 1    
   109   53  178 1    
   110   54   55 am   BACKBONE|DICT|INTERRES
   111   54  179 1    
   112   55   56 2    
   113   55   57 1    
   114   57   58 1    
   115   57   59 1    
   116   57  180 1    
   117   58  181 1    
   118   58  182 1    
   119   58  183 1    
   120   59   60 am   BACKBONE|DICT|INTERRES
   121   59  184 1    
   122   60   61 2    
   123   60   62 1    
   124   62   63 1    
   125   62   64 1    
   126   62  185 1    
   127   63  186 1    
   128   63  187 1    
   129   63  188 1    
   130   64   65 am   BACKBONE|DICT|INTERRES
   131   64  189 1    
   132   65   66 2    
   133   67   68 2    
   134   67   69 am   BACKBONE|DICT|INTERRES
   135   69   70 1    
   136   69  190 1    
   137   70   71 1    
   138   70   72 1    
   139   70  191 1    
   140   71  192 1    
   141   71  193 1    
   142   71  194 1    
   143   72   73 2    
   144   72   74 am   BACKBONE|DICT|INTERRES
   145   74   75 1    
   146   74  195 1    
   147   75   76 1    
   148   75   77 1    
   149   75  196 1    
   150   76  197 1    
   151   76  198 1    
   152   76  199 1    
   153   77   78 2    
   154   77   79 am   BACKBONE|DICT|INTERRES
   155   79   80 1    
   156   79  200 1    
   157   80   81 1    
   158   80   82 1    
   159   80  201 1    
   160   81  202 1    
   161   81  203 1    
   162   81  204 1    
   163   82   83 2    
   164   82   84 am   BACKBONE|DICT|INTERRES
   165   84   85 1    
   166   84  205 1    
   167   85   86 1    
   168   85   87 1    
   169   85  206 1    
   170   86  207 1    
   171   86  208 1    
   172   86  209 1    
   173   87   88 2    
   174   87   89 am   BACKBONE|DICT|INTERRES
   175   89   90 1    
   176   89  210 1    
   177   90   91 1    
   178   90   92 1    
   179   90  211 1    
   180   91  212 1    
   181   91  213 1    
   182   91  214 1    
   183   92   93 2    
   184   92   94 am   BACKBONE|DICT|INTERRES
   185   94   95 1    
   186   94  215 1    
   187   95   96 1    
   188   95   97 1    
   189   95  216 1    
   190   96  217 1    
   191   96  218 1    
   192   96  219 1    
   193   97   98 2    
   194   97   99 am   BACKBONE|DICT|INTERRES
   195   99  100 1    
   196   99  220 1    
   197  100  101 1    
   198  100  102 1    
   199  100  221 1    
   200  101  222 1    
   201  101  223 1    
   202  101  224 1    
   203  102  103 2    
   204  102  104 am   BACKBONE|DICT|INTERRES
   205  104  105 1    
   206  104  225 1    
   207  105  106 1    
   208  105  107 1    
   209  105  226 1    
   210  106  227 1    
   211  106  228 1    
   212  106  229 1    
   213  107  108 2    
   214  107  109 am   BACKBONE|DICT|INTERRES
   215  109  110 1    
   216  109  230 1    
   217  110  111 1    
   218  110  112 1    
   219  110  231 1    
   220  111  232 1    
   221  111  233 1    
   222  111  234 1    
   223  112  113 2    
   224  112  114 am   BACKBONE|DICT|INTERRES
   225  114  115 1    
   226  114  235 1    
   227  115  116 1    
   228  115  117 1    
   229  115  236 1    
   230  116  237 1    
   231  116  238 1    
   232  116  239 1    
   233  117  118 2    
   234  117  119 am   BACKBONE|DICT|INTERRES
   235  119  120 1    
   236  119  240 1    
   237  120  121 1    
   238  120  124 1    
   239  120  241 1    
   240  121  122 am   BACKBONE|DICT|INTERRES
   241  121  123 2    
   242  122  242 1    
   243  122  243 1    
   244  124  125 1    
   245  124  244 1    
   246  124  245 1    
   247  125  126 1    
   248  126  246 1    
   249  126  247 1    
@<TRIPOS>SUBSTRUCTURE
     1 UNK         1 GROUP             0       ****    0 ROOT    
