@<TRIPOS>MOLECULE
3R540
247   249    1
SMALL
USER_CHARGES


@<TRIPOS>ATOM
      1 CA         -2.1094  -14.9555  -47.4641 C.3       0 UNK        -0.1800 
      2 C          -0.7753  -14.3801  -47.9197 C.2       0 UNK         0.5000 
      3 O          -0.7391  -13.5830  -48.8576 O.2       0 UNK        -0.5000 
      4 N           0.3182  -14.7875  -47.2658 N.am      1 UNK        -0.5000 
      5 CA          1.6841  -14.3267  -47.5387 C.3       1 UNK         0.1400 
      6 C6          2.7469  -15.2735  -46.9271 C.3       23 UNK        -0.0398 
      7 S7          2.5143  -17.0049  -47.4417 S.3       23 UNK        -0.2404 
      8 C8          3.7267  -17.1881  -48.7829 C.3       23 UNK        -0.0205 
      9 C9          3.3984  -18.4266  -49.5994 C.ar      23 UNK        -0.0193 
     10 C10         2.7183  -18.3062  -50.8141 C.ar      23 UNK        -0.1150 
     11 C11         2.3503  -19.4448  -51.5337 C.ar      23 UNK        -0.0193 
     12 C12         2.6456  -20.7071  -51.0141 C.ar      23 UNK        -0.1150 
     13 C13         3.3029  -20.8491  -49.7879 C.ar      23 UNK        -0.0193 
     14 C14         3.7222  -19.6965  -49.1117 C.ar      23 UNK        -0.1150 
     15 C15         3.5207  -22.2665  -49.2508 C.3       23 UNK        -0.0205 
     16 S16         3.8464  -22.4598  -47.4568 S.3       23 UNK        -0.2404 
     17 C17         2.5379  -21.5151  -46.5971 C.3       23 UNK        -0.0398 
     18 CA          1.1191  -22.1397  -46.5959 C.3       11 UNK         0.1400 
     19 N           0.3652  -21.7302  -45.4064 N.am      11 UNK        -0.5000 
     20 C          -0.8160  -22.2343  -45.0202 C.2       10 UNK         0.5000 
     21 O          -1.3732  -23.1707  -45.5901 O.2       10 UNK        -0.5000 
     22 CA         -1.5178  -21.5576  -43.8229 C.3       10 UNK         0.1400 
     23 CB         -1.1251  -22.2503  -42.5100 C.3       10 UNK        -0.1800 
     24 N          -1.2431  -20.1234  -43.7110 N.am      10 UNK        -0.5000 
     25 C          -1.5313  -19.2088  -44.6475 C.2       9 UNK         0.5000 
     26 O          -2.1454  -19.4657  -45.6815 O.2       9 UNK        -0.5000 
     27 CA         -0.9854  -17.7838  -44.4342 C.3       9 UNK         0.1400 
     28 CB         -2.0286  -16.8992  -43.7384 C.3       9 UNK        -0.1800 
     29 N           0.2757  -17.7294  -43.6894 N.am      9 UNK        -0.5000 
     30 C           1.4131  -18.3401  -44.0524 C.2       8 UNK         0.5000 
     31 O           1.5105  -19.0552  -45.0465 O.2       8 UNK        -0.5000 
     32 CA          2.6186  -18.1835  -43.1135 C.3       8 UNK         0.1400 
     33 CB          3.2441  -16.7836  -43.2219 C.3       8 UNK        -0.1800 
     34 N           2.2264  -18.4522  -41.7325 N.am      8 UNK        -0.5000 
     35 C           2.0566  -19.6830  -41.2284 C.2       7 UNK         0.5000 
     36 O           2.3036  -20.7167  -41.8496 O.2       7 UNK        -0.5000 
     37 CA          1.4985  -19.7786  -39.7956 C.3       7 UNK         0.1400 
     38 CB          2.6447  -19.8345  -38.7745 C.3       7 UNK        -0.1800 
     39 N           0.6059  -18.6701  -39.4529 N.am      7 UNK        -0.5000 
     40 C          -0.5989  -18.4629  -40.0031 C.2       6 UNK         0.5000 
     41 O          -1.1039  -19.2036  -40.8463 O.2       6 UNK        -0.5000 
     42 CA         -1.3338  -17.1786  -39.5739 C.3       6 UNK         0.1400 
     43 CB         -2.1319  -17.4177  -38.2837 C.3       6 UNK        -0.1800 
     44 N          -0.4342  -16.0345  -39.3871 N.am      6 UNK        -0.5000 
     45 C           0.3113  -15.4944  -40.3597 C.2       5 UNK         0.5000 
     46 O           0.3422  -15.9260  -41.5141 O.2       5 UNK        -0.5000 
     47 CA          1.2247  -14.3228  -39.9688 C.3       5 UNK         0.1400 
     48 CB          2.6260  -14.8410  -39.6098 C.3       5 UNK        -0.1800 
     49 N           1.3434  -13.3732  -41.0723 N.am      5 UNK        -0.5000 
     50 C           0.4106  -12.4762  -41.4145 C.2       4 UNK         0.5000 
     51 O          -0.6344  -12.3197  -40.7801 O.2       4 UNK        -0.5000 
     52 CA          0.6614  -11.6235  -42.6796 C.3       4 UNK         0.1400 
     53 CB          0.3425  -10.1327  -42.4445 C.3       4 UNK        -0.1800 
     54 N           1.9877  -11.7774  -43.2942 N.am      4 UNK        -0.5000 
     55 C           3.1851  -11.4434  -42.7841 C.2       3 UNK         0.5000 
     56 O           3.3482  -10.9905  -41.6512 O.2       3 UNK        -0.5000 
     57 CA          4.4179  -11.6682  -43.6855 C.3       3 UNK         0.1400 
     58 CB          5.0810  -13.0131  -43.3468 C.3       3 UNK        -0.1800 
     59 N           4.1088  -11.6435  -45.1168 N.am      3 UNK        -0.5000 
     60 C           3.6827  -10.5701  -45.7983 C.2       2 UNK         0.5000 
     61 O           3.6100   -9.4403  -45.3138 O.2       2 UNK        -0.5000 
     62 CA          3.2376  -10.7964  -47.2598 C.3       2 UNK         0.1400 
     63 CB          4.3320  -10.3267  -48.2307 C.3       2 UNK        -0.1800 
     64 N           2.8723  -12.1808  -47.5923 N.am      2 UNK        -0.5000 
     65 C           1.8933  -12.8913  -47.0135 C.2       1 UNK         0.5000 
     66 O           1.2195  -12.4771  -46.0661 O.2       1 UNK        -0.5000 
     67 C           0.3413  -21.7564  -47.8696 C.2       11 UNK         0.5000 
     68 O           0.0944  -22.6110  -48.7207 O.2       11 UNK        -0.5000 
     69 N          -0.0740  -20.4836  -47.9445 N.am      12 UNK        -0.5000 
     70 CA         -0.8389  -19.9277  -49.0592 C.3       12 UNK         0.1400 
     71 CB         -0.9211  -18.4002  -48.9170 C.3       12 UNK        -0.1800 
     72 C          -2.2406  -20.5481  -49.1985 C.2       12 UNK         0.5000 
     73 O          -2.7045  -20.7513  -50.3178 O.2       12 UNK        -0.5000 
     74 N          -2.8790  -20.8672  -48.0649 N.am      13 UNK        -0.5000 
     75 CA         -4.1592  -21.5712  -48.0079 C.3       13 UNK         0.1400 
     76 CB         -4.7236  -21.4875  -46.5824 C.3       13 UNK        -0.1800 
     77 C          -4.0596  -23.0393  -48.4631 C.2       13 UNK         0.5000 
     78 O          -5.0111  -23.5503  -49.0500 O.2       13 UNK        -0.5000 
     79 N          -2.9255  -23.6979  -48.1881 N.am      14 UNK        -0.5000 
     80 CA         -2.6613  -25.0735  -48.6099 C.3       14 UNK         0.1400 
     81 CB         -1.5333  -25.6683  -47.7538 C.3       14 UNK        -0.1800 
     82 C          -2.3173  -25.1797  -50.1061 C.2       14 UNK         0.5000 
     83 O          -2.6892  -26.1701  -50.7368 O.2       14 UNK        -0.5000 
     84 N          -1.6122  -24.1717  -50.6388 N.am      15 UNK        -0.5000 
     85 CA         -1.1221  -24.0790  -52.0151 C.3       15 UNK         0.1400 
     86 CB         -0.3322  -22.7734  -52.1676 C.3       15 UNK        -0.1800 
     87 C          -2.2428  -24.1852  -53.0673 C.2       15 UNK         0.5000 
     88 O          -2.9501  -23.2066  -53.3165 O.2       15 UNK        -0.5000 
     89 N          -2.3820  -25.3918  -53.6376 N.am      16 UNK        -0.5000 
     90 CA         -3.4198  -25.8234  -54.5829 C.3       16 UNK         0.1400 
     91 CB         -3.3046  -25.0526  -55.9157 C.3       16 UNK        -0.1800 
     92 C          -4.8473  -25.8135  -53.9865 C.2       16 UNK         0.5000 
     93 O          -5.8208  -25.7716  -54.7401 O.2       16 UNK        -0.5000 
     94 N          -4.9347  -25.8820  -52.6482 N.am      17 UNK        -0.5000 
     95 CA         -6.1177  -25.7344  -51.7938 C.3       17 UNK         0.1400 
     96 CB         -7.2026  -26.7745  -52.1403 C.3       17 UNK        -0.1800 
     97 C          -6.6876  -24.3015  -51.7912 C.2       17 UNK         0.5000 
     98 O          -6.3918  -23.4937  -52.6744 O.2       17 UNK        -0.5000 
     99 N          -7.5221  -24.0087  -50.7851 N.am      18 UNK        -0.5000 
    100 CA        -8.0678  -22.6762  -50.5009 C.3       18 UNK         0.1400 
    101 CB        -8.7868  -22.7125  -49.1440 C.3       18 UNK        -0.1800 
    102 C         -8.9957  -22.1146  -51.5967 C.2       18 UNK         0.5000 
    103 O         -9.2121  -20.9036  -51.6437 O.2       18 UNK        -0.5000 
    104 N         -9.5075  -22.9943  -52.4682 N.am      19 UNK        -0.5000 
    105 CA       -10.2617  -22.6397  -53.6695 C.3       19 UNK         0.1400 
    106 CB       -10.9073  -23.9097  -54.2447 C.3       19 UNK        -0.1800 
    107 C         -9.3977  -21.9415  -54.7400 C.2       19 UNK         0.5000 
    108 O         -9.9318  -21.1417  -55.5096 O.2       19 UNK        -0.5000 
    109 N         -8.0931  -22.2483  -54.7698 N.am      20 UNK        -0.5000 
    110 CA        -7.1153  -21.6324  -55.6641 C.3       20 UNK         0.1400 
    111 CB        -6.2177  -22.7203  -56.2680 C.3       20 UNK        -0.1800 
    112 C         -6.2649  -20.5970  -54.9145 C.2       20 UNK         0.5000 
    113 O         -6.0563  -19.5059  -55.4443 O.2       20 UNK        -0.5000 
    114 N         -5.7880  -20.9608  -53.7127 N.am      21 UNK        -0.5000 
    115 CA        -4.9659  -20.1728  -52.7869 C.3       21 UNK         0.1400 
    116 CB        -5.8449  -19.1438  -52.0497 C.3       21 UNK        -0.1800 
    117 C         -3.7420  -19.5323  -53.4764 C.2       21 UNK         0.5000 
    118 O         -3.6911  -18.3118  -53.6420 O.2       21 UNK        -0.5000 
    119 N         -2.8265  -20.3924  -53.9367 N.am      22 UNK        -0.5000 
    120 CA        -1.6728  -20.0979  -54.8096 C.3       22 UNK         0.1400 
    121 C         -2.0321  -19.9265  -56.3160 C.2       22 UNK         0.5000 
    122 N         -3.2954  -19.8259  -56.7115 N.am      22 UNK        -0.7600 
    123 O         -1.1375  -19.9123  -57.1571 O.2       22 UNK        -0.5000 
    124 C124       -0.7545  -18.9319  -54.3340 C.3       23 UNK        -0.0398 
    125 S125       -0.1634  -19.0911  -52.6164 S.3       23 UNK        -0.2404 
    126 C126        1.6239  -19.3116  -52.8632 C.3       23 UNK        -0.0205 
    127 H127       -2.5489  -15.5576  -48.2593 H         1 UNK         0.0600 
    128 H128       -2.8024  -14.1500  -47.2213 H         1 UNK         0.0600 
    129 H129       -2.0009  -15.5849  -46.5814 H         1 UNK         0.0600 
    130 H130        0.2279  -15.4326  -46.4964 H         1 UNK         0.3000 
    131 H131        1.8234  -14.3134  -48.6220 H         1 UNK         0.0600 
    132 H132        2.6939  -15.2435  -45.8380 H         1 UNK         0.0800 
    133 H133        3.7570  -14.9565  -47.1926 H         1 UNK         0.0800 
    134 H134        3.7140  -16.3003  -49.4170 H         1 UNK         0.0800 
    135 H135        4.7313  -17.2653  -48.3647 H         1 UNK         0.0800 
    136 H136        2.4607  -17.3276  -51.1941 H         1 UNK         0.1150 
    137 H137        2.3537  -21.5871  -51.5665 H         1 UNK         0.1150 
    138 H138        4.2575  -19.7753  -48.1770 H         1 UNK         0.1150 
    139 H139        2.6553  -22.8823  -49.4989 H         1 UNK         0.0800 
    140 H140        4.3609  -22.7038  -49.7912 H         1 UNK         0.0800 
    141 H141        2.5167  -20.4831  -46.9416 H         1 UNK         0.0800 
    142 H142        2.8889  -21.4444  -45.5663 H         1 UNK         0.0800 
    143 H143        1.2126  -23.2273  -46.5658 H         1 UNK         0.0600 
    144 H144        0.7213  -20.9116  -44.9246 H         1 UNK         0.3000 
    145 H145       -2.5938  -21.6763  -43.9614 H         1 UNK         0.0600 
    146 H146       -1.6825  -21.8425  -41.6665 H         1 UNK         0.0600 
    147 H147       -1.3371  -23.3194  -42.5528 H         1 UNK         0.0600 
    148 H148       -0.0620  -22.1337  -42.2970 H         1 UNK         0.0600 
    149 H149       -0.8049  -19.8095  -42.8526 H         1 UNK         0.3000 
    150 H150       -0.7890  -17.3674  -45.4236 H         1 UNK         0.0600 
    151 H151       -2.9611  -16.8757  -44.3037 H         1 UNK         0.0600 
    152 H152       -1.6774  -15.8712  -43.6452 H         1 UNK         0.0600 
    153 H153       -2.2593  -17.2672  -42.7388 H         1 UNK         0.0600 
    154 H154        0.2808  -17.1455  -42.8551 H         1 UNK         0.3000 
    155 H155        3.3778  -18.9098  -43.4124 H         1 UNK         0.0600 
    156 H156        2.5194  -15.9900  -43.0399 H         1 UNK         0.0600 
    157 H157        3.6601  -16.6293  -44.2173 H         1 UNK         0.0600 
    158 H158        4.0618  -16.6610  -42.5117 H         1 UNK         0.0600 
    159 H159        1.9450  -17.6577  -41.1775 H         1 UNK         0.3000 
    160 H160        0.9290  -20.7078  -39.7243 H         1 UNK         0.0600 
    161 H161        3.2391  -18.9200  -38.7850 H         1 UNK         0.0600 
    162 H162        3.3176  -20.6660  -38.9883 H         1 UNK         0.0600 
    163 H163        2.2651  -19.9777  -37.7626 H         1 UNK         0.0600 
    164 H164        0.9410  -18.0100  -38.7671 H         1 UNK         0.3000 
    165 H165       -2.0395  -16.9213  -40.3658 H         1 UNK         0.0600 
    166 H166       -2.7255  -16.5423  -38.0193 H         1 UNK         0.0600 
    167 H167       -2.8232  -18.2533  -38.4020 H         1 UNK         0.0600 
    168 H168       -1.4789  -17.6484  -37.4412 H         1 UNK         0.0600 
    169 H169       -0.4000  -15.6344  -38.4604 H         1 UNK         0.3000 
    170 H170        0.8041  -13.8113  -39.1005 H         1 UNK         0.0600 
    171 H171        2.5842  -15.5394  -38.7730 H         1 UNK         0.0600 
    172 H172        3.0935  -15.3595  -40.4476 H         1 UNK         0.0600 
    173 H173        3.2837  -14.0227  -39.3156 H         1 UNK         0.0600 
    174 H174        2.1565  -13.4595  -41.6616 H         1 UNK         0.3000 
    175 H175       -0.0459  -11.9924  -43.4238 H         1 UNK         0.0600 
    176 H176        0.9677   -9.7027  -41.6617 H         1 UNK         0.0600 
    177 H177        0.4939   -9.5501  -43.3534 H         1 UNK         0.0600 
    178 H178       -0.6966   -9.9956  -42.1431 H         1 UNK         0.0600 
    179 H179        1.9596  -12.1230  -44.2488 H         1 UNK         0.3000 
    180 H180        5.1309  -10.8678  -43.4771 H         1 UNK         0.0600 
    181 H181        4.4197  -13.8543  -43.5589 H         1 UNK         0.0600 
    182 H182        5.3469  -13.0635  -42.2900 H         1 UNK         0.0600 
    183 H183        5.9989  -13.1554  -43.9175 H         1 UNK         0.0600 
    184 H184        4.1623  -12.5233  -45.6062 H         1 UNK         0.3000 
    185 H185        2.3516  -10.1788  -47.4208 H         1 UNK         0.0600 
    186 H186        4.6092   -9.2894  -48.0371 H         1 UNK         0.0600 
    187 H187        5.2360  -10.9302  -48.1395 H         1 UNK         0.0600 
    188 H188        3.9931  -10.3814  -49.2654 H         1 UNK         0.0600 
    189 H189        3.3888  -12.5962  -48.3544 H         1 UNK         0.3000 
    190 H190        0.1477  -19.8538  -47.1861 H         1 UNK         0.3000 
    191 H191       -0.2877  -20.1590  -49.9712 H         1 UNK         0.0600 
    192 H192        0.0715  -17.9511  -48.9394 H         1 UNK         0.0600 
    193 H193       -1.4896  -17.9633  -49.7389 H         1 UNK         0.0600 
    194 H194       -1.4058  -18.1048  -47.9863 H         1 UNK         0.0600 
    195 H195       -2.4712  -20.5787  -47.1794 H         1 UNK         0.3000 
    196 H196       -4.8545  -21.0629  -48.6794 H         1 UNK         0.0600 
    197 H197       -5.7044  -21.9611  -46.5230 H         1 UNK         0.0600 
    198 H198       -4.8413  -20.4516  -46.2638 H         1 UNK         0.0600 
    199 H199       -4.0729  -21.9876  -45.8648 H         1 UNK         0.0600 
    200 H200       -2.1969  -23.2340  -47.6596 H         1 UNK         0.3000 
    201 H201       -3.5602  -25.6687  -48.4355 H         1 UNK         0.0600 
    202 H202       -1.8085  -25.6864  -46.6992 H         1 UNK         0.0600 
    203 H203       -0.6092  -25.0973  -47.8482 H         1 UNK         0.0600 
    204 H204       -1.3170  -26.6955  -48.0500 H         1 UNK         0.0600 
    205 H205       -1.3248  -23.4226  -50.0188 H         1 UNK         0.3000 
    206 H206       -0.4238  -24.9043  -52.1667 H         1 UNK         0.0600 
    207 H207        0.4793  -22.7327  -51.4440 H         1 UNK         0.0600 
    208 H208        0.1050  -22.6868  -53.1627 H         1 UNK         0.0600 
    209 H209       -0.9645  -21.9009  -52.0057 H         1 UNK         0.0600 
    210 H210       -1.7677  -26.1292  -53.3203 H         1 UNK         0.3000 
    211 H211       -3.2084  -26.8712  -54.8000 H         1 UNK         0.0600 
    212 H212       -3.4755  -23.9844  -55.7875 H         1 UNK         0.0600 
    213 H213       -4.0278  -25.4145  -56.6473 H         1 UNK         0.0600 
    214 H214       -2.3147  -25.1777  -56.3539 H         1 UNK         0.0600 
    215 H215       -4.0585  -25.9274  -52.1365 H         1 UNK         0.3000 
    216 H216       -5.7673  -25.9369  -50.7804 H         1 UNK         0.0600 
    217 H217       -7.9879  -26.7880  -51.3840 H         1 UNK         0.0600 
    218 H218       -6.7843  -27.7800  -52.1877 H         1 UNK         0.0600 
    219 H219       -7.6816  -26.5644  -53.0969 H         1 UNK         0.0600 
    220 H220       -7.7131  -24.7190  -50.0937 H         1 UNK         0.3000 
    221 H221       -7.2225  -21.9896  -50.4176 H         1 UNK         0.0600 
    222 H222       -9.6241  -23.4113  -49.1516 H         1 UNK         0.0600 
    223 H223       -8.1054  -23.0096  -48.3462 H         1 UNK         0.0600 
    224 H224       -9.1806  -21.7295  -48.8824 H         1 UNK         0.0600 
    225 H225       -9.2827  -23.9699  -52.3426 H         1 UNK         0.3000 
    226 H226      -11.0576  -21.9493  -53.3820 H         1 UNK         0.0600 
    227 H227      -11.5755  -24.3759  -53.5204 H         1 UNK         0.0600 
    228 H228      -11.5002  -23.6791  -55.1308 H         1 UNK         0.0600 
    229 H229      -10.1570  -24.6467  -54.5342 H         1 UNK         0.0600 
    230 H230       -7.7199  -22.8815  -54.0707 H         1 UNK         0.3000 
    231 H231       -7.6187  -21.1225  -56.4882 H         1 UNK         0.0600 
    232 H232       -6.8018  -23.4578  -56.8184 H         1 UNK         0.0600 
    233 H233       -5.6629  -23.2446  -55.4916 H         1 UNK         0.0600 
    234 H234       -5.4909  -22.2921  -56.9595 H         1 UNK         0.0600 
    235 H235       -5.9790  -21.9105  -53.3958 H         1 UNK         0.3000 
    236 H236       -4.5881  -20.8790  -52.0475 H         1 UNK         0.0600 
    237 H237       -5.2577  -18.5835  -51.3212 H         1 UNK         0.0600 
    238 H238       -6.2914  -18.4258  -52.7384 H         1 UNK         0.0600 
    239 H239       -6.6531  -19.6342  -51.5076 H         1 UNK         0.0600 
    240 H240       -2.9672  -21.3818  -53.7394 H         1 UNK         0.3000 
    241 H241       -1.0719  -21.0070  -54.7714 H         1 UNK         0.0600 
    242 H242       -3.4926  -19.7249  -57.6943 H         1 UNK         0.3800 
    243 H243       -4.0517  -19.7600  -56.0423 H         1 UNK         0.3800 
    244 H244        0.1131  -18.8510  -54.9908 H         1 UNK         0.0800 
    245 H245       -1.2704  -17.9755  -54.4232 H         1 UNK         0.0800 
    246 H246        1.7977  -20.1943  -53.4806 H         1 UNK         0.0800 
    247 H247        2.0237  -18.4602  -53.4161 H         1 UNK         0.0800 
@<TRIPOS>BOND
     1    1    2 1    
     2    1  127 1    
     3    1  128 1    
     4    1  129 1    
     5    2    3 2    
     6    2    4 am   BACKBONE|DICT|INTERRES
     7    4    5 1    
     8    4  130 1    
     9    5    6 1    
    10    5   65 1    
    11    5  131 1    
    12    6    7 1    
    13    6  132 1    
    14    6  133 1    
    15    7    8 1    
    16    8    9 1    
    17    8  134 1    
    18    8  135 1    
    19    9   10 ar   
    20    9   14 ar   
    21   10   11 ar   
    22   10  136 1    
    23   11   12 ar   
    24   11  126 1    
    25   12   13 ar   
    26   12  137 1    
    27   13   14 ar   
    28   13   15 1    
    29   14  138 1    
    30   15   16 1    
    31   15  139 1    
    32   15  140 1    
    33   16   17 1    
    34   17   18 1    
    35   17  141 1    
    36   17  142 1    
    37   18   19 1    
    38   18   67 1    
    39   18  143 1    
    40   19   20 am   BACKBONE|DICT|INTERRES
    41   19  144 1    
    42   20   21 2    
    43   20   22 1    
    44   22   23 1    
    45   22   24 1    
    46   22  145 1    
    47   23  146 1    
    48   23  147 1    
    49   23  148 1    
    50   24   25 am   BACKBONE|DICT|INTERRES
    51   24  149 1    
    52   25   26 2    
    53   25   27 1    
    54   27   28 1    
    55   27   29 1    
    56   27  150 1    
    57   28  151 1    
    58   28  152 1    
    59   28  153 1    
    60   29   30 am   BACKBONE|DICT|INTERRES
    61   29  154 1    
    62   30   31 2    
    63   30   32 1    
    64   32   33 1    
    65   32   34 1    
    66   32  155 1    
    67   33  156 1    
    68   33  157 1    
    69   33  158 1    
    70   34   35 am   BACKBONE|DICT|INTERRES
    71   34  159 1    
    72   35   36 2    
    73   35   37 1    
    74   37   38 1    
    75   37   39 1    
    76   37  160 1    
    77   38  161 1    
    78   38  162 1    
    79   38  163 1    
    80   39   40 am   BACKBONE|DICT|INTERRES
    81   39  164 1    
    82   40   41 2    
    83   40   42 1    
    84   42   43 1    
    85   42   44 1    
    86   42  165 1    
    87   43  166 1    
    88   43  167 1    
    89   43  168 1    
    90   44   45 am   BACKBONE|DICT|INTERRES
    91   44  169 1    
    92   45   46 2    
    93   45   47 1    
    94   47   48 1    
    95   47   49 1    
    96   47  170 1    
    97   48  171 1    
    98   48  172 1    
    99   48  173 1    
   100   49   50 am   BACKBONE|DICT|INTERRES
   101   49  174 1    
   102   50   51 2    
   103   50   52 1    
   104   52   53 1    
   105   52   54 1    
   106   52  175 1    
   107   53  176 1    
   108   53  177 1    
   109   53  178 1    
   110   54   55 am   BACKBONE|DICT|INTERRES
   111   54  179 1    
   112   55   56 2    
   113   55   57 1    
   114   57   58 1    
   115   57   59 1    
   116   57  180 1    
   117   58  181 1    
   118   58  182 1    
   119   58  183 1    
   120   59   60 am   BACKBONE|DICT|INTERRES
   121   59  184 1    
   122   60   61 2    
   123   60   62 1    
   124   62   63 1    
   125   62   64 1    
   126   62  185 1    
   127   63  186 1    
   128   63  187 1    
   129   63  188 1    
   130   64   65 am   BACKBONE|DICT|INTERRES
   131   64  189 1    
   132   65   66 2    
   133   67   68 2    
   134   67   69 am   BACKBONE|DICT|INTERRES
   135   69   70 1    
   136   69  190 1    
   137   70   71 1    
   138   70   72 1    
   139   70  191 1    
   140   71  192 1    
   141   71  193 1    
   142   71  194 1    
   143   72   73 2    
   144   72   74 am   BACKBONE|DICT|INTERRES
   145   74   75 1    
   146   74  195 1    
   147   75   76 1    
   148   75   77 1    
   149   75  196 1    
   150   76  197 1    
   151   76  198 1    
   152   76  199 1    
   153   77   78 2    
   154   77   79 am   BACKBONE|DICT|INTERRES
   155   79   80 1    
   156   79  200 1    
   157   80   81 1    
   158   80   82 1    
   159   80  201 1    
   160   81  202 1    
   161   81  203 1    
   162   81  204 1    
   163   82   83 2    
   164   82   84 am   BACKBONE|DICT|INTERRES
   165   84   85 1    
   166   84  205 1    
   167   85   86 1    
   168   85   87 1    
   169   85  206 1    
   170   86  207 1    
   171   86  208 1    
   172   86  209 1    
   173   87   88 2    
   174   87   89 am   BACKBONE|DICT|INTERRES
   175   89   90 1    
   176   89  210 1    
   177   90   91 1    
   178   90   92 1    
   179   90  211 1    
   180   91  212 1    
   181   91  213 1    
   182   91  214 1    
   183   92   93 2    
   184   92   94 am   BACKBONE|DICT|INTERRES
   185   94   95 1    
   186   94  215 1    
   187   95   96 1    
   188   95   97 1    
   189   95  216 1    
   190   96  217 1    
   191   96  218 1    
   192   96  219 1    
   193   97   98 2    
   194   97   99 am   BACKBONE|DICT|INTERRES
   195   99  100 1    
   196   99  220 1    
   197  100  101 1    
   198  100  102 1    
   199  100  221 1    
   200  101  222 1    
   201  101  223 1    
   202  101  224 1    
   203  102  103 2    
   204  102  104 am   BACKBONE|DICT|INTERRES
   205  104  105 1    
   206  104  225 1    
   207  105  106 1    
   208  105  107 1    
   209  105  226 1    
   210  106  227 1    
   211  106  228 1    
   212  106  229 1    
   213  107  108 2    
   214  107  109 am   BACKBONE|DICT|INTERRES
   215  109  110 1    
   216  109  230 1    
   217  110  111 1    
   218  110  112 1    
   219  110  231 1    
   220  111  232 1    
   221  111  233 1    
   222  111  234 1    
   223  112  113 2    
   224  112  114 am   BACKBONE|DICT|INTERRES
   225  114  115 1    
   226  114  235 1    
   227  115  116 1    
   228  115  117 1    
   229  115  236 1    
   230  116  237 1    
   231  116  238 1    
   232  116  239 1    
   233  117  118 2    
   234  117  119 am   BACKBONE|DICT|INTERRES
   235  119  120 1    
   236  119  240 1    
   237  120  121 1    
   238  120  124 1    
   239  120  241 1    
   240  121  122 am   BACKBONE|DICT|INTERRES
   241  121  123 2    
   242  122  242 1    
   243  122  243 1    
   244  124  125 1    
   245  124  244 1    
   246  124  245 1    
   247  125  126 1    
   248  126  246 1    
   249  126  247 1    
@<TRIPOS>SUBSTRUCTURE
     1 UNK         1 GROUP             0       ****    0 ROOT    
