@<TRIPOS>MOLECULE
3R540
247   249    1
SMALL
USER_CHARGES


@<TRIPOS>ATOM
      1 CA          5.7633  -12.9382  -47.5712 C.3       0 UNK        -0.1800 
      2 C           4.9185  -14.1773  -47.8294 C.2       0 UNK         0.5000 
      3 O           4.2410  -14.6425  -46.9142 O.2       0 UNK        -0.5000 
      4 N           4.9701  -14.6991  -49.0640 N.am      1 UNK        -0.5000 
      5 CA          4.2495  -15.8656  -49.5976 C.3       1 UNK         0.1400 
      6 C6          2.8858  -15.5038  -50.2592 C.3       23 UNK        -0.0398 
      7 S7          1.5689  -14.9109  -49.1362 S.3       23 UNK        -0.2404 
      8 C8          0.1288  -14.8528  -50.2455 C.3       23 UNK        -0.0205 
      9 C9         -0.4404  -16.2342  -50.5409 C.ar      23 UNK        -0.0193 
     10 C10        -0.0477  -16.9250  -51.6901 C.ar      23 UNK        -0.1150 
     11 C11        -0.6018  -18.1681  -52.0066 C.ar      23 UNK        -0.0193 
     12 C12        -1.5614  -18.7194  -51.1476 C.ar      23 UNK        -0.1150 
     13 C13        -1.9813  -18.0339  -50.0020 C.ar      23 UNK        -0.0193 
     14 C14        -1.4049  -16.7962  -49.6990 C.ar      23 UNK        -0.1150 
     15 C15        -3.1331  -18.5632  -49.1524 C.3       23 UNK        -0.0205 
     16 S16        -3.0775  -20.3580  -48.8407 S.3       23 UNK        -0.2404 
     17 C17        -2.2273  -20.4349  -47.2284 C.3       23 UNK        -0.0398 
     18 CA         -1.3068  -21.6649  -47.0424 C.3       11 UNK         0.1400 
     19 N          -0.4836  -21.5219  -45.8315 N.am      11 UNK        -0.5000 
     20 C           0.4507  -22.3852  -45.4006 C.2       10 UNK         0.5000 
     21 O           0.6625  -23.4733  -45.9333 O.2       10 UNK        -0.5000 
     22 CA          1.2949  -21.9915  -44.1773 C.3       10 UNK         0.1400 
     23 CB          2.7566  -21.7482  -44.5834 C.3       10 UNK        -0.1800 
     24 N           0.7733  -20.8126  -43.4848 N.am      10 UNK        -0.5000 
     25 C          -0.1575  -20.8779  -42.5231 C.2       9 UNK         0.5000 
     26 O          -0.6748  -21.9316  -42.1493 O.2       9 UNK        -0.5000 
     27 CA         -0.5881  -19.5599  -41.8547 C.3       9 UNK         0.1400 
     28 CB          0.2511  -19.3222  -40.5913 C.3       9 UNK        -0.1800 
     29 N          -0.5188  -18.3744  -42.7117 N.am      9 UNK        -0.5000 
     30 C          -1.2141  -18.1966  -43.8436 C.2       8 UNK         0.5000 
     31 O          -1.9200  -19.0669  -44.3554 O.2       8 UNK        -0.5000 
     32 CA         -1.0968  -16.8019  -44.4878 C.3       8 UNK         0.1400 
     33 CB         -2.0291  -16.5906  -45.6968 C.3       8 UNK        -0.1800 
     34 N          -1.2453  -15.7300  -43.4983 N.am      8 UNK        -0.5000 
     35 C          -2.3420  -15.4080  -42.7965 C.2       7 UNK         0.5000 
     36 O          -3.4249  -15.9857  -42.9029 O.2       7 UNK        -0.5000 
     37 CA         -2.1897  -14.2178  -41.8262 C.3       7 UNK         0.1400 
     38 CB         -3.3620  -14.0791  -40.8312 C.3       7 UNK        -0.1800 
     39 N          -0.8944  -14.2065  -41.1367 N.am      7 UNK        -0.5000 
     40 C          -0.4423  -15.0872  -40.2292 C.2       6 UNK         0.5000 
     41 O          -1.1033  -16.0426  -39.8232 O.2       6 UNK        -0.5000 
     42 CA          0.9879  -14.8694  -39.6878 C.3       6 UNK         0.1400 
     43 CB          1.7353  -16.1973  -39.4771 C.3       6 UNK        -0.1800 
     44 N           1.7779  -14.0396  -40.5950 N.am      6 UNK        -0.5000 
     45 C           2.1100  -12.7570  -40.3997 C.2       5 UNK         0.5000 
     46 O           1.8385  -12.1272  -39.3773 O.2       5 UNK        -0.5000 
     47 CA          2.8501  -12.0454  -41.5526 C.3       5 UNK         0.1400 
     48 CB          4.3582  -11.9875  -41.2658 C.3       5 UNK        -0.1800 
     49 N           2.6435  -12.6682  -42.8637 N.am      5 UNK        -0.5000 
     50 C           1.4687  -12.7614  -43.5026 C.2       4 UNK         0.5000 
     51 O           0.4141  -12.3006  -43.0662 O.2       4 UNK        -0.5000 
     52 CA          1.4604  -13.5596  -44.8194 C.3       4 UNK         0.1400 
     53 CB          1.7779  -12.6171  -45.9887 C.3       4 UNK        -0.1800 
     54 N           2.3910  -14.6963  -44.8376 N.am      4 UNK        -0.5000 
     55 C           2.4354  -15.7003  -43.9499 C.2       3 UNK         0.5000 
     56 O           1.6560  -15.7975  -42.9983 O.2       3 UNK        -0.5000 
     57 CA          3.5432  -16.7492  -44.1627 C.3       3 UNK         0.1400 
     58 CB          3.5893  -17.8153  -43.0456 C.3       3 UNK        -0.1800 
     59 N           3.4861  -17.3627  -45.4935 N.am      3 UNK        -0.5000 
     60 C           2.5612  -18.2066  -45.9718 C.2       2 UNK         0.5000 
     61 O           1.5958  -18.6064  -45.3192 O.2       2 UNK        -0.5000 
     62 CA          2.7670  -18.7005  -47.4205 C.3       2 UNK         0.1400 
     63 CB          1.5609  -19.4846  -47.9641 C.3       2 UNK        -0.1800 
     64 N           3.0271  -17.5894  -48.3274 N.am      2 UNK        -0.5000 
     65 C           4.2238  -17.0814  -48.6378 C.2       1 UNK         0.5000 
     66 O           5.2843  -17.5271  -48.1941 O.2       1 UNK        -0.5000 
     67 C          -2.0962  -22.9915  -47.0886 C.2       11 UNK         0.5000 
     68 O          -2.2249  -23.5864  -48.1600 O.2       11 UNK        -0.5000 
     69 N          -2.5512  -23.4661  -45.9213 N.am      12 UNK        -0.5000 
     70 CA         -3.2524  -24.7390  -45.7438 C.3       12 UNK         0.1400 
     71 CB         -3.7660  -24.8234  -44.2991 C.3       12 UNK        -0.1800 
     72 C          -2.4131  -25.9855  -46.0932 C.2       12 UNK         0.5000 
     73 O          -2.9959  -27.0248  -46.4021 O.2       12 UNK        -0.5000 
     74 N          -1.0800  -25.8657  -46.0494 N.am      13 UNK        -0.5000 
     75 CA         -0.1358  -26.9237  -46.4043 C.3       13 UNK         0.1400 
     76 CB          0.9023  -27.0667  -45.2796 C.3       13 UNK        -0.1800 
     77 C           0.5593  -26.6196  -47.7409 C.2       13 UNK         0.5000 
     78 O           0.6898  -27.5159  -48.5744 O.2       13 UNK        -0.5000 
     79 N           0.9985  -25.3665  -47.9192 N.am      14 UNK        -0.5000 
     80 CA          1.7937  -24.9085  -49.0574 C.3       14 UNK         0.1400 
     81 CB          2.4062  -23.5388  -48.7208 C.3       14 UNK        -0.1800 
     82 C           1.0010  -24.8269  -50.3719 C.2       14 UNK         0.5000 
     83 O           1.5627  -25.1147  -51.4297 O.2       14 UNK        -0.5000 
     84 N          -0.2729  -24.4254  -50.2847 N.am      15 UNK        -0.5000 
     85 CA         -1.1475  -24.1895  -51.4347 C.3       15 UNK         0.1400 
     86 CB         -1.4112  -22.6795  -51.5343 C.3       15 UNK        -0.1800 
     87 C          -2.4721  -24.9654  -51.3391 C.2       15 UNK         0.5000 
     88 O          -3.3073  -24.8265  -52.2315 O.2       15 UNK        -0.5000 
     89 N          -2.6637  -25.7368  -50.2581 N.am      16 UNK        -0.5000 
     90 CA         -3.8935  -26.4520  -49.8956 C.3       16 UNK         0.1400 
     91 CB         -4.1761  -27.5983  -50.8893 C.3       16 UNK        -0.1800 
     92 C          -5.1029  -25.5087  -49.6958 C.2       16 UNK         0.5000 
     93 O          -6.2336  -25.8824  -50.0123 O.2       16 UNK        -0.5000 
     94 N          -4.8320  -24.3012  -49.1734 N.am      17 UNK        -0.5000 
     95 CA         -5.7769  -23.2090  -48.9147 C.3       17 UNK         0.1400 
     96 CB         -6.7710  -23.5907  -47.7971 C.3       17 UNK        -0.1800 
     97 C          -6.4707  -22.6914  -50.1946 C.2       17 UNK         0.5000 
     98 O          -7.6807  -22.4575  -50.1905 O.2       17 UNK        -0.5000 
     99 N          -5.6889  -22.5259  -51.2729 N.am      18 UNK        -0.5000 
    100 CA        -6.1534  -22.0691  -52.5882 C.3       18 UNK         0.1400 
    101 CB        -5.0032  -22.1780  -53.6008 C.3       18 UNK        -0.1800 
    102 C         -6.7373  -20.6426  -52.6013 C.2       18 UNK         0.5000 
    103 O         -7.6278  -20.3676  -53.4071 O.2       18 UNK        -0.5000 
    104 N         -6.2335  -19.7680  -51.7162 N.am      19 UNK        -0.5000 
    105 CA        -6.6533  -18.3742  -51.5318 C.3       19 UNK         0.1400 
    106 CB        -8.0430  -18.3229  -50.8580 C.3       19 UNK        -0.1800 
    107 C         -6.5540  -17.5700  -52.8454 C.2       19 UNK         0.5000 
    108 O         -5.4523  -17.4268  -53.3768 O.2       19 UNK        -0.5000 
    109 N         -7.6925  -17.0956  -53.3691 N.am      20 UNK        -0.5000 
    110 CA        -7.8011  -16.3448  -54.6225 C.3       20 UNK         0.1400 
    111 CB        -9.2518  -15.8708  -54.7966 C.3       20 UNK        -0.1800 
    112 C         -7.3362  -17.1250  -55.8692 C.2       20 UNK         0.5000 
    113 O         -6.8754  -16.5044  -56.8283 O.2       20 UNK        -0.5000 
    114 N         -7.4242  -18.4635  -55.8313 N.am      21 UNK        -0.5000 
    115 CA        -6.9467  -19.3474  -56.8984 C.3       21 UNK         0.1400 
    116 CB        -7.6127  -20.7255  -56.7584 C.3       21 UNK        -0.1800 
    117 C         -5.4098  -19.4793  -56.9378 C.2       21 UNK         0.5000 
    118 O         -4.8791  -19.9845  -57.9278 O.2       21 UNK        -0.5000 
    119 N         -4.7211  -19.0237  -55.8816 N.am      22 UNK        -0.5000 
    120 CA        -3.2539  -18.9800  -55.7889 C.3       22 UNK         0.1400 
    121 C         -2.5942  -17.8193  -56.5944 C.2       22 UNK         0.5000 
    122 N         -3.3479  -16.8665  -57.1328 N.am      22 UNK        -0.7600 
    123 O         -1.3766  -17.7859  -56.7461 O.2       22 UNK        -0.5000 
    124 C124       -2.7948  -18.9859  -54.3062 C.3       23 UNK        -0.0398 
    125 S125       -1.3372  -20.0444  -54.0167 S.3       23 UNK        -0.2404 
    126 C126       -0.1454  -18.8663  -53.2901 C.3       23 UNK        -0.0205 
    127 H127        6.3242  -12.6357  -48.4558 H         1 UNK         0.0600 
    128 H128        6.4731  -13.1304  -46.7667 H         1 UNK         0.0600 
    129 H129        5.1247  -12.1070  -47.2723 H         1 UNK         0.0600 
    130 H130        5.5840  -14.2546  -49.7317 H         1 UNK         0.3000 
    131 H131        4.8834  -16.2062  -50.4179 H         1 UNK         0.0600 
    132 H132        3.0479  -14.7315  -51.0121 H         1 UNK         0.0800 
    133 H133        2.5175  -16.3689  -50.8104 H         1 UNK         0.0800 
    134 H134       -0.6412  -14.2353  -49.7808 H         1 UNK         0.0800 
    135 H135        0.4013  -14.3446  -51.1719 H         1 UNK         0.0800 
    136 H136        0.6821  -16.4830  -52.3537 H         1 UNK         0.1150 
    137 H137       -2.0130  -19.6711  -51.3846 H         1 UNK         0.1150 
    138 H138       -1.7337  -16.2474  -48.8278 H         1 UNK         0.1150 
    139 H139       -3.2058  -18.0286  -48.2051 H         1 UNK         0.0800 
    140 H140       -4.0565  -18.3457  -49.6847 H         1 UNK         0.0800 
    141 H141       -1.6284  -19.5306  -47.1223 H         1 UNK         0.0800 
    142 H142       -2.9807  -20.3931  -46.4400 H         1 UNK         0.0800 
    143 H143       -0.6139  -21.6896  -47.8857 H         1 UNK         0.0600 
    144 H144       -0.6174  -20.6684  -45.3029 H         1 UNK         0.3000 
    145 H145        1.2877  -22.8438  -43.4945 H         1 UNK         0.0600 
    146 H146        3.3563  -21.4219  -43.7336 H         1 UNK         0.0600 
    147 H147        3.2081  -22.6639  -44.9676 H         1 UNK         0.0600 
    148 H148        2.8431  -20.9969  -45.3654 H         1 UNK         0.0600 
    149 H149        1.1062  -19.9084  -43.8053 H         1 UNK         0.3000 
    150 H150       -1.6303  -19.6788  -41.5517 H         1 UNK         0.0600 
    151 H151        0.2316  -20.1941  -39.9361 H         1 UNK         0.0600 
    152 H152       -0.1365  -18.4840  -40.0151 H         1 UNK         0.0600 
    153 H153        1.2946  -19.1179  -40.8336 H         1 UNK         0.0600 
    154 H154        0.0531  -17.6085  -42.3830 H         1 UNK         0.3000 
    155 H155       -0.0812  -16.7215  -44.8687 H         1 UNK         0.0600 
    156 H156       -1.9430  -15.5782  -46.0910 H         1 UNK         0.0600 
    157 H157       -3.0751  -16.7694  -45.4463 H         1 UNK         0.0600 
    158 H158       -1.7614  -17.2726  -46.5020 H         1 UNK         0.0600 
    159 H159       -0.3820  -15.2605  -43.2559 H         1 UNK         0.3000 
    160 H160       -2.1974  -13.3252  -42.4535 H         1 UNK         0.0600 
    161 H161       -3.4823  -14.9697  -40.2142 H         1 UNK         0.0600 
    162 H162       -4.3031  -13.9217  -41.3593 H         1 UNK         0.0600 
    163 H163       -3.2175  -13.2267  -40.1675 H         1 UNK         0.0600 
    164 H164       -0.2688  -13.4641  -41.4276 H         1 UNK         0.3000 
    165 H165        0.8868  -14.3823  -38.7162 H         1 UNK         0.0600 
    166 H166        1.8281  -16.7555  -40.4087 H         1 UNK         0.0600 
    167 H167        2.7400  -16.0252  -39.0910 H         1 UNK         0.0600 
    168 H168        1.2190  -16.8324  -38.7566 H         1 UNK         0.0600 
    169 H169        2.0053  -14.4739  -41.4827 H         1 UNK         0.3000 
    170 H170        2.4692  -11.0233  -41.6037 H         1 UNK         0.0600 
    171 H171        4.5562  -11.5017  -40.3094 H         1 UNK         0.0600 
    172 H172        4.7981  -12.9848  -41.2247 H         1 UNK         0.0600 
    173 H173        4.8847  -11.4182  -42.0322 H         1 UNK         0.0600 
    174 H174        3.4544  -13.0822  -43.2998 H         1 UNK         0.3000 
    175 H175        0.4538  -13.9545  -44.9646 H         1 UNK         0.0600 
    176 H176        2.7935  -12.2248  -45.9253 H         1 UNK         0.0600 
    177 H177        1.6781  -13.1266  -46.9440 H         1 UNK         0.0600 
    178 H178        1.0954  -11.7662  -46.0055 H         1 UNK         0.0600 
    179 H179        3.0632  -14.7050  -45.6059 H         1 UNK         0.3000 
    180 H180        4.4870  -16.2036  -44.1254 H         1 UNK         0.0600 
    181 H181        2.6507  -18.3619  -42.9563 H         1 UNK         0.0600 
    182 H182        3.7837  -17.3521  -42.0776 H         1 UNK         0.0600 
    183 H183        4.3832  -18.5404  -43.2237 H         1 UNK         0.0600 
    184 H184        4.2091  -17.0630  -46.1360 H         1 UNK         0.3000 
    185 H185        3.6257  -19.3748  -47.4140 H         1 UNK         0.0600 
    186 H186        1.7098  -19.7739  -49.0046 H         1 UNK         0.0600 
    187 H187        1.4183  -20.4015  -47.3972 H         1 UNK         0.0600 
    188 H188        0.6394  -18.9036  -47.9079 H         1 UNK         0.0600 
    189 H189        2.2096  -17.1009  -48.6701 H         1 UNK         0.3000 
    190 H190       -2.3758  -22.9271  -45.0854 H         1 UNK         0.3000 
    191 H191       -4.1141  -24.7398  -46.4120 H         1 UNK         0.0600 
    192 H192       -4.4421  -23.9989  -44.0720 H         1 UNK         0.0600 
    193 H193       -4.3183  -25.7493  -44.1326 H         1 UNK         0.0600 
    194 H194       -2.9466  -24.7952  -43.5795 H         1 UNK         0.0600 
    195 H195       -0.6772  -24.9639  -45.8211 H         1 UNK         0.3000 
    196 H196       -0.6494  -27.8818  -46.5084 H         1 UNK         0.0600 
    197 H197        1.6302  -27.8440  -45.5158 H         1 UNK         0.0600 
    198 H198        0.4252  -27.3430  -44.3393 H         1 UNK         0.0600 
    199 H199        1.4525  -26.1393  -45.1143 H         1 UNK         0.0600 
    200 H200        0.8655  -24.6883  -47.1709 H         1 UNK         0.3000 
    201 H201        2.6105  -25.6183  -49.2053 H         1 UNK         0.0600 
    202 H202        3.0201  -23.5905  -47.8213 H         1 UNK         0.0600 
    203 H203        1.6369  -22.7834  -48.5564 H         1 UNK         0.0600 
    204 H204        3.0449  -23.1854  -49.5311 H         1 UNK         0.0600 
    205 H205       -0.6628  -24.1957  -49.3775 H         1 UNK         0.3000 
    206 H206       -0.6698  -24.5144  -52.3608 H         1 UNK         0.0600 
    207 H207       -0.4822  -22.1199  -51.6442 H         1 UNK         0.0600 
    208 H208       -2.0327  -22.4479  -52.3985 H         1 UNK         0.0600 
    209 H209       -1.9244  -22.3057  -50.6498 H         1 UNK         0.0600 
    210 H210       -1.9181  -25.7765  -49.5793 H         1 UNK         0.3000 
    211 H211       -3.7054  -26.9079  -48.9244 H         1 UNK         0.0600 
    212 H212       -4.4483  -27.2234  -51.8763 H         1 UNK         0.0600 
    213 H213       -4.9985  -28.2237  -50.5402 H         1 UNK         0.0600 
    214 H214       -3.3055  -28.2440  -51.0036 H         1 UNK         0.0600 
    215 H215       -3.8612  -24.0944  -48.9501 H         1 UNK         0.3000 
    216 H216       -5.1813  -22.3776  -48.5390 H         1 UNK         0.0600 
    217 H217       -6.2524  -23.9035  -46.8920 H         1 UNK         0.0600 
    218 H218       -7.4338  -24.4011  -48.1012 H         1 UNK         0.0600 
    219 H219       -7.3989  -22.7408  -47.5274 H         1 UNK         0.0600 
    220 H220       -4.7180  -22.7960  -51.2084 H         1 UNK         0.3000 
    221 H221       -6.9507  -22.7426  -52.9089 H         1 UNK         0.0600 
    222 H222       -4.1172  -21.6433  -53.2611 H         1 UNK         0.0600 
    223 H223       -4.7242  -23.2177  -53.7675 H         1 UNK         0.0600 
    224 H224       -5.2834  -21.7649  -54.5702 H         1 UNK         0.0600 
    225 H225       -5.4859  -20.0872  -51.1177 H         1 UNK         0.3000 
    226 H226       -5.9432  -17.9131  -50.8470 H         1 UNK         0.0600 
    227 H227       -8.0268  -18.8459  -49.9017 H         1 UNK         0.0600 
    228 H228       -8.3460  -17.2952  -50.6537 H         1 UNK         0.0600 
    229 H229       -8.8179  -18.7871  -51.4690 H         1 UNK         0.0600 
    230 H230       -8.5568  -17.2884  -52.8844 H         1 UNK         0.3000 
    231 H231       -7.1619  -15.4639  -54.5348 H         1 UNK         0.0600 
    232 H232       -9.3644  -15.2828  -55.7085 H         1 UNK         0.0600 
    233 H233       -9.5640  -15.2394  -53.9645 H         1 UNK         0.0600 
    234 H234       -9.9441  -16.7113  -54.8603 H         1 UNK         0.0600 
    235 H235       -7.7670  -18.9145  -54.9898 H         1 UNK         0.3000 
    236 H236       -7.2583  -18.9252  -57.8562 H         1 UNK         0.0600 
    237 H237       -8.6991  -20.6398  -56.7348 H         1 UNK         0.0600 
    238 H238       -7.3565  -21.3681  -57.6016 H         1 UNK         0.0600 
    239 H239       -7.2963  -21.2401  -55.8521 H         1 UNK         0.0600 
    240 H240       -5.2225  -18.5838  -55.1186 H         1 UNK         0.3000 
    241 H241       -2.8933  -19.8991  -56.2548 H         1 UNK         0.0600 
    242 H242       -4.3510  -16.8752  -57.0227 H         1 UNK         0.3800 
    243 H243       -2.9088  -16.1257  -57.6564 H         1 UNK         0.3800 
    244 H244       -3.5813  -19.3814  -53.6633 H         1 UNK         0.0800 
    245 H245       -2.6198  -17.9725  -53.9402 H         1 UNK         0.0800 
    246 H246        0.7813  -19.4007  -53.0789 H         1 UNK         0.0800 
    247 H247        0.0930  -18.1212  -54.0512 H         1 UNK         0.0800 
@<TRIPOS>BOND
     1    1    2 1    
     2    1  127 1    
     3    1  128 1    
     4    1  129 1    
     5    2    3 2    
     6    2    4 am   BACKBONE|DICT|INTERRES
     7    4    5 1    
     8    4  130 1    
     9    5    6 1    
    10    5   65 1    
    11    5  131 1    
    12    6    7 1    
    13    6  132 1    
    14    6  133 1    
    15    7    8 1    
    16    8    9 1    
    17    8  134 1    
    18    8  135 1    
    19    9   10 ar   
    20    9   14 ar   
    21   10   11 ar   
    22   10  136 1    
    23   11   12 ar   
    24   11  126 1    
    25   12   13 ar   
    26   12  137 1    
    27   13   14 ar   
    28   13   15 1    
    29   14  138 1    
    30   15   16 1    
    31   15  139 1    
    32   15  140 1    
    33   16   17 1    
    34   17   18 1    
    35   17  141 1    
    36   17  142 1    
    37   18   19 1    
    38   18   67 1    
    39   18  143 1    
    40   19   20 am   BACKBONE|DICT|INTERRES
    41   19  144 1    
    42   20   21 2    
    43   20   22 1    
    44   22   23 1    
    45   22   24 1    
    46   22  145 1    
    47   23  146 1    
    48   23  147 1    
    49   23  148 1    
    50   24   25 am   BACKBONE|DICT|INTERRES
    51   24  149 1    
    52   25   26 2    
    53   25   27 1    
    54   27   28 1    
    55   27   29 1    
    56   27  150 1    
    57   28  151 1    
    58   28  152 1    
    59   28  153 1    
    60   29   30 am   BACKBONE|DICT|INTERRES
    61   29  154 1    
    62   30   31 2    
    63   30   32 1    
    64   32   33 1    
    65   32   34 1    
    66   32  155 1    
    67   33  156 1    
    68   33  157 1    
    69   33  158 1    
    70   34   35 am   BACKBONE|DICT|INTERRES
    71   34  159 1    
    72   35   36 2    
    73   35   37 1    
    74   37   38 1    
    75   37   39 1    
    76   37  160 1    
    77   38  161 1    
    78   38  162 1    
    79   38  163 1    
    80   39   40 am   BACKBONE|DICT|INTERRES
    81   39  164 1    
    82   40   41 2    
    83   40   42 1    
    84   42   43 1    
    85   42   44 1    
    86   42  165 1    
    87   43  166 1    
    88   43  167 1    
    89   43  168 1    
    90   44   45 am   BACKBONE|DICT|INTERRES
    91   44  169 1    
    92   45   46 2    
    93   45   47 1    
    94   47   48 1    
    95   47   49 1    
    96   47  170 1    
    97   48  171 1    
    98   48  172 1    
    99   48  173 1    
   100   49   50 am   BACKBONE|DICT|INTERRES
   101   49  174 1    
   102   50   51 2    
   103   50   52 1    
   104   52   53 1    
   105   52   54 1    
   106   52  175 1    
   107   53  176 1    
   108   53  177 1    
   109   53  178 1    
   110   54   55 am   BACKBONE|DICT|INTERRES
   111   54  179 1    
   112   55   56 2    
   113   55   57 1    
   114   57   58 1    
   115   57   59 1    
   116   57  180 1    
   117   58  181 1    
   118   58  182 1    
   119   58  183 1    
   120   59   60 am   BACKBONE|DICT|INTERRES
   121   59  184 1    
   122   60   61 2    
   123   60   62 1    
   124   62   63 1    
   125   62   64 1    
   126   62  185 1    
   127   63  186 1    
   128   63  187 1    
   129   63  188 1    
   130   64   65 am   BACKBONE|DICT|INTERRES
   131   64  189 1    
   132   65   66 2    
   133   67   68 2    
   134   67   69 am   BACKBONE|DICT|INTERRES
   135   69   70 1    
   136   69  190 1    
   137   70   71 1    
   138   70   72 1    
   139   70  191 1    
   140   71  192 1    
   141   71  193 1    
   142   71  194 1    
   143   72   73 2    
   144   72   74 am   BACKBONE|DICT|INTERRES
   145   74   75 1    
   146   74  195 1    
   147   75   76 1    
   148   75   77 1    
   149   75  196 1    
   150   76  197 1    
   151   76  198 1    
   152   76  199 1    
   153   77   78 2    
   154   77   79 am   BACKBONE|DICT|INTERRES
   155   79   80 1    
   156   79  200 1    
   157   80   81 1    
   158   80   82 1    
   159   80  201 1    
   160   81  202 1    
   161   81  203 1    
   162   81  204 1    
   163   82   83 2    
   164   82   84 am   BACKBONE|DICT|INTERRES
   165   84   85 1    
   166   84  205 1    
   167   85   86 1    
   168   85   87 1    
   169   85  206 1    
   170   86  207 1    
   171   86  208 1    
   172   86  209 1    
   173   87   88 2    
   174   87   89 am   BACKBONE|DICT|INTERRES
   175   89   90 1    
   176   89  210 1    
   177   90   91 1    
   178   90   92 1    
   179   90  211 1    
   180   91  212 1    
   181   91  213 1    
   182   91  214 1    
   183   92   93 2    
   184   92   94 am   BACKBONE|DICT|INTERRES
   185   94   95 1    
   186   94  215 1    
   187   95   96 1    
   188   95   97 1    
   189   95  216 1    
   190   96  217 1    
   191   96  218 1    
   192   96  219 1    
   193   97   98 2    
   194   97   99 am   BACKBONE|DICT|INTERRES
   195   99  100 1    
   196   99  220 1    
   197  100  101 1    
   198  100  102 1    
   199  100  221 1    
   200  101  222 1    
   201  101  223 1    
   202  101  224 1    
   203  102  103 2    
   204  102  104 am   BACKBONE|DICT|INTERRES
   205  104  105 1    
   206  104  225 1    
   207  105  106 1    
   208  105  107 1    
   209  105  226 1    
   210  106  227 1    
   211  106  228 1    
   212  106  229 1    
   213  107  108 2    
   214  107  109 am   BACKBONE|DICT|INTERRES
   215  109  110 1    
   216  109  230 1    
   217  110  111 1    
   218  110  112 1    
   219  110  231 1    
   220  111  232 1    
   221  111  233 1    
   222  111  234 1    
   223  112  113 2    
   224  112  114 am   BACKBONE|DICT|INTERRES
   225  114  115 1    
   226  114  235 1    
   227  115  116 1    
   228  115  117 1    
   229  115  236 1    
   230  116  237 1    
   231  116  238 1    
   232  116  239 1    
   233  117  118 2    
   234  117  119 am   BACKBONE|DICT|INTERRES
   235  119  120 1    
   236  119  240 1    
   237  120  121 1    
   238  120  124 1    
   239  120  241 1    
   240  121  122 am   BACKBONE|DICT|INTERRES
   241  121  123 2    
   242  122  242 1    
   243  122  243 1    
   244  124  125 1    
   245  124  244 1    
   246  124  245 1    
   247  125  126 1    
   248  126  246 1    
   249  126  247 1    
@<TRIPOS>SUBSTRUCTURE
     1 UNK         1 GROUP             0       ****    0 ROOT    
