@<TRIPOS>MOLECULE
3R540
247   249    1
SMALL
USER_CHARGES


@<TRIPOS>ATOM
      1 CA         -4.8377  -20.2892  -43.4304 C.3       0 UNK        -0.1800 
      2 C          -4.1130  -19.0907  -44.0214 C.2       0 UNK         0.5000 
      3 O          -4.2207  -17.9877  -43.4854 O.2       0 UNK        -0.5000 
      4 N          -3.3536  -19.2963  -45.1055 N.am      1 UNK        -0.5000 
      5 CA         -2.5960  -18.2484  -45.8076 C.3       1 UNK         0.1400 
      6 C6         -1.9548  -18.7521  -47.1182 C.3       23 UNK        -0.0398 
      7 S7         -3.1922  -19.3911  -48.2892 S.3       23 UNK        -0.2404 
      8 C8         -2.6895  -18.5999  -49.8550 C.3       23 UNK        -0.0205 
      9 C9         -1.2968  -18.9891  -50.3524 C.ar      23 UNK        -0.0193 
     10 C10        -0.5774  -18.0859  -51.1396 C.ar      23 UNK        -0.1150 
     11 C11         0.7045  -18.3995  -51.6009 C.ar      23 UNK        -0.0193 
     12 C12         1.2862  -19.6183  -51.2374 C.ar      23 UNK        -0.1150 
     13 C13         0.5780  -20.5373  -50.4596 C.ar      23 UNK        -0.0193 
     14 C14        -0.7204  -20.2278  -50.0489 C.ar      23 UNK        -0.1150 
     15 C15         1.2133  -21.8633  -50.0629 C.3       23 UNK        -0.0205 
     16 S16         2.3319  -21.6883  -48.6313 S.3       23 UNK        -0.2404 
     17 C17         1.1693  -21.3633  -47.2592 C.3       23 UNK        -0.0398 
     18 CA          1.1720  -22.4667  -46.1754 C.3       11 UNK         0.1400 
     19 N           2.4830  -22.5815  -45.5365 N.am      11 UNK        -0.5000 
     20 C           3.1474  -23.7208  -45.3063 C.2       10 UNK         0.5000 
     21 O           2.7090  -24.8360  -45.5889 O.2       10 UNK        -0.5000 
     22 CA          4.5288  -23.5996  -44.6263 C.3       10 UNK         0.1400 
     23 CB          5.6478  -23.6715  -45.6764 C.3       10 UNK        -0.1800 
     24 N           4.6930  -22.3695  -43.8466 N.am      10 UNK        -0.5000 
     25 C           3.9729  -22.0475  -42.7633 C.2       9 UNK         0.5000 
     26 O           3.1479  -22.8042  -42.2525 O.2       9 UNK        -0.5000 
     27 CA          4.1639  -20.6323  -42.1804 C.3       9 UNK         0.1400 
     28 CB          5.1065  -20.6782  -40.9688 C.3       9 UNK        -0.1800 
     29 N           4.6574  -19.6253  -43.1299 N.am      9 UNK        -0.5000 
     30 C           4.0863  -19.2785  -44.2929 C.2       8 UNK         0.5000 
     31 O           3.0743  -19.8186  -44.7464 O.2       8 UNK        -0.5000 
     32 CA          4.8216  -18.1911  -45.1016 C.3       8 UNK         0.1400 
     33 CB          6.1415  -18.7454  -45.6646 C.3       8 UNK        -0.1800 
     34 N           4.0252  -17.6904  -46.2211 N.am      8 UNK        -0.5000 
     35 C           2.9745  -16.8682  -46.1217 C.2       7 UNK         0.5000 
     36 O           2.5901  -16.3612  -45.0645 O.2       7 UNK        -0.5000 
     37 CA          2.2439  -16.5608  -47.4380 C.3       7 UNK         0.1400 
     38 CB          1.6770  -17.8371  -48.0780 C.3       7 UNK        -0.1800 
     39 N           1.1506  -15.6273  -47.1982 N.am      7 UNK        -0.5000 
     40 C           0.5853  -14.8363  -48.1184 C.2       6 UNK         0.5000 
     41 O           0.9674  -14.7679  -49.2872 O.2       6 UNK        -0.5000 
     42 CA         -0.6179  -13.9863  -47.6714 C.3       6 UNK         0.1400 
     43 CB         -1.9289  -14.6051  -48.1857 C.3       6 UNK        -0.1800 
     44 N          -0.6994  -13.8740  -46.2174 N.am      6 UNK        -0.5000 
     45 C          -0.1105  -12.9295  -45.4745 C.2       5 UNK         0.5000 
     46 O           0.5516  -12.0040  -45.9474 O.2       5 UNK        -0.5000 
     47 CA         -0.2925  -13.0601  -43.9466 C.3       5 UNK         0.1400 
     48 CB         -0.0824  -11.7311  -43.1920 C.3       5 UNK        -0.1800 
     49 N          -1.5688  -13.6836  -43.5785 N.am      5 UNK        -0.5000 
     50 C          -2.8089  -13.2199  -43.8027 C.2       4 UNK         0.5000 
     51 O          -3.0530  -12.1229  -44.3060 O.2       4 UNK        -0.5000 
     52 CA         -3.9836  -14.1493  -43.4279 C.3       4 UNK         0.1400 
     53 CB         -4.6355  -14.7164  -44.6992 C.3       4 UNK        -0.1800 
     54 N          -3.5918  -15.2671  -42.5672 N.am      4 UNK        -0.5000 
     55 C          -3.2557  -15.1641  -41.2741 C.2       3 UNK         0.5000 
     56 O          -3.3219  -14.1177  -40.6287 O.2       3 UNK        -0.5000 
     57 CA         -2.7070  -16.4384  -40.6083 C.3       3 UNK         0.1400 
     58 CB         -3.8476  -17.2989  -40.0434 C.3       3 UNK        -0.1800 
     59 N          -1.9017  -17.2393  -41.5338 N.am      3 UNK        -0.5000 
     60 C          -0.6734  -16.9065  -41.9573 C.2       2 UNK         0.5000 
     61 O          -0.0788  -15.8907  -41.5987 O.2       2 UNK        -0.5000 
     62 CA         -0.0117  -17.8552  -42.9734 C.3       2 UNK         0.1400 
     63 CB          0.6353  -19.0398  -42.2462 C.3       2 UNK        -0.1800 
     64 N          -0.9554  -18.3514  -43.9756 N.am      2 UNK        -0.5000 
     65 C          -1.5238  -17.5864  -44.9180 C.2       1 UNK         0.5000 
     66 O          -1.2595  -16.3951  -45.0799 O.2       1 UNK        -0.5000 
     67 C           0.0581  -22.2312  -45.1282 C.2       11 UNK         0.5000 
     68 O          -1.0396  -21.8152  -45.4979 O.2       11 UNK        -0.5000 
     69 N           0.3141  -22.5168  -43.8413 N.am      12 UNK        -0.5000 
     70 CA         -0.6769  -22.4109  -42.7615 C.3       12 UNK         0.1400 
     71 CB          0.0177  -22.6141  -41.4070 C.3       12 UNK        -0.1800 
     72 C          -1.8667  -23.3817  -42.9045 C.2       12 UNK         0.5000 
     73 O          -2.9455  -23.0964  -42.3858 O.2       12 UNK        -0.5000 
     74 N          -1.6522  -24.4990  -43.6101 N.am      13 UNK        -0.5000 
     75 CA         -2.6741  -25.4971  -43.9235 C.3       13 UNK         0.1400 
     76 CB         -1.9907  -26.8700  -44.0323 C.3       13 UNK        -0.1800 
     77 C          -3.4537  -25.1823  -45.2174 C.2       13 UNK         0.5000 
     78 O          -4.4614  -25.8417  -45.4775 O.2       13 UNK        -0.5000 
     79 N          -2.9778  -24.2217  -46.0225 N.am      14 UNK        -0.5000 
     80 CA         -3.5842  -23.8497  -47.2991 C.3       14 UNK         0.1400 
     81 CB         -2.5052  -23.2553  -48.2168 C.3       14 UNK        -0.1800 
     82 C          -4.7247  -22.8415  -47.0925 C.2       14 UNK         0.5000 
     83 O          -4.6001  -21.9359  -46.2655 O.2       14 UNK        -0.5000 
     84 N          -5.7975  -22.9983  -47.8758 N.am      15 UNK        -0.5000 
     85 CA         -6.8837  -22.0268  -47.9876 C.3       15 UNK         0.1400 
     86 CB         -8.1392  -22.7426  -48.5096 C.3       15 UNK        -0.1800 
     87 C          -6.4803  -20.8919  -48.9435 C.2       15 UNK         0.5000 
     88 O          -5.6932  -21.1252  -49.8635 O.2       15 UNK        -0.5000 
     89 N          -7.0636  -19.7012  -48.7426 N.am      16 UNK        -0.5000 
     90 CA         -6.7499  -18.4539  -49.4558 C.3       16 UNK         0.1400 
     91 CB         -7.6613  -17.3349  -48.9306 C.3       16 UNK        -0.1800 
     92 C          -6.8247  -18.5313  -50.9946 C.2       16 UNK         0.5000 
     93 O          -6.1074  -17.7958  -51.6728 O.2       16 UNK        -0.5000 
     94 N          -7.6458  -19.4531  -51.5172 N.am      17 UNK        -0.5000 
     95 CA         -7.7633  -19.7869  -52.9386 C.3       17 UNK         0.1400 
     96 CB         -8.8784  -20.8293  -53.1104 C.3       17 UNK        -0.1800 
     97 C          -6.4536  -20.2900  -53.5839 C.2       17 UNK         0.5000 
     98 O          -6.3034  -20.1724  -54.8009 O.2       17 UNK        -0.5000 
     99 N          -5.5148  -20.8047  -52.7727 N.am      18 UNK        -0.5000 
    100 CA        -4.1832  -21.2377  -53.2028 C.3       18 UNK         0.1400 
    101 CB        -3.4663  -21.9355  -52.0371 C.3       18 UNK        -0.1800 
    102 C         -3.3096  -20.0987  -53.7623 C.2       18 UNK         0.5000 
    103 O         -2.4047  -20.3767  -54.5488 O.2       18 UNK        -0.5000 
    104 N         -3.6147  -18.8407  -53.4049 N.am      19 UNK        -0.5000 
    105 CA        -2.9118  -17.6336  -53.8550 C.3       19 UNK         0.1400 
    106 CB        -3.4478  -16.4214  -53.0784 C.3       19 UNK        -0.1800 
    107 C         -2.9831  -17.3759  -55.3742 C.2       19 UNK         0.5000 
    108 O         -2.2114  -16.5649  -55.8864 O.2       19 UNK        -0.5000 
    109 N         -3.8845  -18.0783  -56.0743 N.am      20 UNK        -0.5000 
    110 CA        -3.9826  -18.0981  -57.5322 C.3       20 UNK         0.1400 
    111 CB        -5.3032  -18.7781  -57.9249 C.3       20 UNK        -0.1800 
    112 C         -2.7912  -18.7964  -58.2238 C.2       20 UNK         0.5000 
    113 O         -2.5793  -18.5595  -59.4142 O.2       20 UNK        -0.5000 
    114 N         -2.0483  -19.6406  -57.4919 N.am      21 UNK        -0.5000 
    115 CA        -0.9048  -20.3970  -58.0078 C.3       21 UNK         0.1400 
    116 CB        -1.3422  -21.8446  -58.2859 C.3       21 UNK        -0.1800 
    117 C          0.3089  -20.3709  -57.0630 C.2       21 UNK         0.5000 
    118 O          1.4403  -20.3825  -57.5494 O.2       21 UNK        -0.5000 
    119 N          0.0665  -20.3547  -55.7453 N.am      22 UNK        -0.5000 
    120 CA         1.0680  -20.4205  -54.6650 C.3       22 UNK         0.1400 
    121 C          1.8456  -21.7711  -54.5753 C.2       22 UNK         0.5000 
    122 N          1.3648  -22.8525  -55.1773 N.am      22 UNK        -0.7600 
    123 O          2.8829  -21.8577  -53.9239 O.2       22 UNK        -0.5000 
    124 C124        2.0029  -19.1775  -54.6099 C.3       23 UNK        -0.0398 
    125 S125        1.0991  -17.6342  -54.2415 S.3       23 UNK        -0.2404 
    126 C126        1.4647  -17.4078  -52.4690 C.3       23 UNK        -0.0205 
    127 H127       -5.8824  -20.2869  -43.7403 H         1 UNK         0.0600 
    128 H128       -4.8002  -20.2557  -42.3415 H         1 UNK         0.0600 
    129 H129       -4.3847  -21.2267  -43.7514 H         1 UNK         0.0600 
    130 H130       -3.3426  -20.2166  -45.5338 H         1 UNK         0.3000 
    131 H131       -3.3103  -17.4662  -46.0709 H         1 UNK         0.0600 
    132 H132       -1.3983  -17.9483  -47.6029 H         1 UNK         0.0800 
    133 H133       -1.2367  -19.5451  -46.9136 H         1 UNK         0.0800 
    134 H134       -3.4200  -18.8665  -50.6179 H         1 UNK         0.0800 
    135 H135       -2.7542  -17.5183  -49.7281 H         1 UNK         0.0800 
    136 H136       -1.0125  -17.1299  -51.3930 H         1 UNK         0.1150 
    137 H137        2.2884  -19.8581  -51.5631 H         1 UNK         0.1150 
    138 H138       -1.2738  -20.9501  -49.4704 H         1 UNK         0.1150 
    139 H139        0.4476  -22.6080  -49.8398 H         1 UNK         0.0800 
    140 H140        1.7821  -22.2559  -50.9073 H         1 UNK         0.0800 
    141 H141        0.1711  -21.2421  -47.6738 H         1 UNK         0.0800 
    142 H142        1.4339  -20.4085  -46.8077 H         1 UNK         0.0800 
    143 H143        0.9188  -23.4066  -46.6697 H         1 UNK         0.0600 
    144 H144        2.8972  -21.6997  -45.2472 H         1 UNK         0.3000 
    145 H145        4.6371  -24.4474  -43.9467 H         1 UNK         0.0600 
    146 H146        6.6319  -23.6601  -45.2074 H         1 UNK         0.0600 
    147 H147        5.5778  -24.5906  -46.2598 H         1 UNK         0.0600 
    148 H148        5.5970  -22.8350  -46.3749 H         1 UNK         0.0600 
    149 H149        5.3493  -21.6908  -44.2023 H         1 UNK         0.3000 
    150 H150        3.1860  -20.3014  -41.8311 H         1 UNK         0.0600 
    151 H151        6.1174  -20.9694  -41.2569 H         1 UNK         0.0600 
    152 H152        4.7564  -21.3974  -40.2268 H         1 UNK         0.0600 
    153 H153        5.1630  -19.7079  -40.4748 H         1 UNK         0.0600 
    154 H154        5.4993  -19.1425  -42.8507 H         1 UNK         0.3000 
    155 H155        5.0438  -17.3577  -44.4318 H         1 UNK         0.0600 
    156 H156        5.9711  -19.5973  -46.3246 H         1 UNK         0.0600 
    157 H157        6.8083  -19.0761  -44.8675 H         1 UNK         0.0600 
    158 H158        6.6773  -17.9846  -46.2327 H         1 UNK         0.0600 
    159 H159        4.2466  -18.0810  -47.1247 H         1 UNK         0.3000 
    160 H160        2.9658  -16.1017  -48.1165 H         1 UNK         0.0600 
    161 H161        0.9579  -18.3173  -47.4174 H         1 UNK         0.0600 
    162 H162        2.4581  -18.5602  -48.3128 H         1 UNK         0.0600 
    163 H163        1.1647  -17.6078  -49.0089 H         1 UNK         0.0600 
    164 H164        0.8170  -15.6005  -46.2425 H         1 UNK         0.3000 
    165 H165       -0.5095  -12.9932  -48.1122 H         1 UNK         0.0600 
    166 H166       -1.9174  -14.7035  -49.2721 H         1 UNK         0.0600 
    167 H167       -2.0976  -15.5978  -47.7680 H         1 UNK         0.0600 
    168 H168       -2.7856  -13.9838  -47.9242 H         1 UNK         0.0600 
    169 H169       -1.1552  -14.6446  -45.7350 H         1 UNK         0.3000 
    170 H170        0.4829  -13.7514  -43.6128 H         1 UNK         0.0600 
    171 H171        0.9290  -11.3523  -43.3433 H         1 UNK         0.0600 
    172 H172       -0.7731  -10.9579  -43.5290 H         1 UNK         0.0600 
    173 H173       -0.2214  -11.8620  -42.1188 H         1 UNK         0.0600 
    174 H174       -1.4909  -14.6071  -43.1753 H         1 UNK         0.3000 
    175 H175       -4.7256  -13.5492  -42.8973 H         1 UNK         0.0600 
    176 H176       -5.4740  -15.3701  -44.4578 H         1 UNK         0.0600 
    177 H177       -5.0183  -13.9159  -45.3333 H         1 UNK         0.0600 
    178 H178       -3.9227  -15.2894  -45.2921 H         1 UNK         0.0600 
    179 H179       -3.5861  -16.1897  -42.9926 H         1 UNK         0.3000 
    180 H180       -2.0700  -16.1319  -39.7758 H         1 UNK         0.0600 
    181 H181       -4.5263  -17.6389  -40.8261 H         1 UNK         0.0600 
    182 H182       -4.4387  -16.7346  -39.3209 H         1 UNK         0.0600 
    183 H183       -3.4605  -18.1788  -39.5294 H         1 UNK         0.0600 
    184 H184       -2.3479  -18.0554  -41.9261 H         1 UNK         0.3000 
    185 H185        0.7731  -17.3027  -43.4909 H         1 UNK         0.0600 
    186 H186        1.4336  -18.6945  -41.5885 H         1 UNK         0.0600 
    187 H187       -0.0852  -19.5754  -41.6281 H         1 UNK         0.0600 
    188 H188        1.0715  -19.7471  -42.9508 H         1 UNK         0.0600 
    189 H189       -1.2256  -19.3223  -43.9227 H         1 UNK         0.3000 
    190 H190        1.2388  -22.8357  -43.5812 H         1 UNK         0.3000 
    191 H191       -1.0918  -21.4021  -42.7864 H         1 UNK         0.0600 
    192 H192        0.7959  -21.8691  -41.2437 H         1 UNK         0.0600 
    193 H193       -0.6924  -22.5239  -40.5840 H         1 UNK         0.0600 
    194 H194        0.4795  -23.5997  -41.3373 H         1 UNK         0.0600 
    195 H195       -0.7296  -24.6601  -43.9864 H         1 UNK         0.3000 
    196 H196       -3.3991  -25.5444  -43.1082 H         1 UNK         0.0600 
    197 H197       -2.7199  -27.6571  -44.2292 H         1 UNK         0.0600 
    198 H198       -1.4782  -27.1299  -43.1058 H         1 UNK         0.0600 
    199 H199       -1.2576  -26.8923  -44.8397 H         1 UNK         0.0600 
    200 H200       -2.2249  -23.6291  -45.6982 H         1 UNK         0.3000 
    201 H201       -3.9803  -24.7459  -47.7819 H         1 UNK         0.0600 
    202 H202       -2.9162  -23.0219  -49.1997 H         1 UNK         0.0600 
    203 H203       -2.1030  -22.3297  -47.8074 H         1 UNK         0.0600 
    204 H204       -1.6770  -23.9487  -48.3628 H         1 UNK         0.0600 
    205 H205       -5.7943  -23.7361  -48.5643 H         1 UNK         0.3000 
    206 H206       -7.0987  -21.6067  -47.0025 H         1 UNK         0.0600 
    207 H207       -8.4357  -23.5533  -47.8437 H         1 UNK         0.0600 
    208 H208       -8.9831  -22.0548  -48.5777 H         1 UNK         0.0600 
    209 H209       -7.9795  -23.1654  -49.5026 H         1 UNK         0.0600 
    210 H210       -7.7218  -19.6143  -47.9820 H         1 UNK         0.3000 
    211 H211       -5.7216  -18.1906  -49.2053 H         1 UNK         0.0600 
    212 H212       -8.7141  -17.5583  -49.1075 H         1 UNK         0.0600 
    213 H213       -7.4395  -16.3863  -49.4217 H         1 UNK         0.0600 
    214 H214       -7.5235  -17.1830  -47.8599 H         1 UNK         0.0600 
    215 H215       -8.1805  -20.0208  -50.8770 H         1 UNK         0.3000 
    216 H216       -8.0563  -18.8780  -53.4679 H         1 UNK         0.0600 
    217 H217       -9.0165  -21.0850  -54.1619 H         1 UNK         0.0600 
    218 H218       -9.8325  -20.4523  -52.7416 H         1 UNK         0.0600 
    219 H219       -8.6508  -21.7521  -52.5750 H         1 UNK         0.0600 
    220 H220       -5.7021  -20.8661  -51.7747 H         1 UNK         0.3000 
    221 H221       -4.3150  -21.9667  -54.0048 H         1 UNK         0.0600 
    222 H222       -3.3268  -21.2630  -51.1907 H         1 UNK         0.0600 
    223 H223       -4.0316  -22.7987  -51.6859 H         1 UNK         0.0600 
    224 H224       -2.4797  -22.2910  -52.3373 H         1 UNK         0.0600 
    225 H225       -4.4087  -18.6913  -52.7937 H         1 UNK         0.3000 
    226 H226       -1.8571  -17.7619  -53.6105 H         1 UNK         0.0600 
    227 H227       -2.8850  -15.5198  -53.3235 H         1 UNK         0.0600 
    228 H228       -4.4954  -16.2289  -53.3129 H         1 UNK         0.0600 
    229 H229       -3.3695  -16.5691  -52.0019 H         1 UNK         0.0600 
    230 H230       -4.4929  -18.7124  -55.5732 H         1 UNK         0.3000 
    231 H231       -4.0096  -17.0655  -57.8862 H         1 UNK         0.0600 
    232 H232       -5.3373  -19.8142  -57.5849 H         1 UNK         0.0600 
    233 H233       -5.4358  -18.7824  -59.0075 H         1 UNK         0.0600 
    234 H234       -6.1591  -18.2572  -57.4950 H         1 UNK         0.0600 
    235 H235       -2.2807  -19.7713  -56.5143 H         1 UNK         0.3000 
    236 H236       -0.5636  -19.9610  -58.9492 H         1 UNK         0.0600 
    237 H237       -0.5094  -22.4419  -58.6596 H         1 UNK         0.0600 
    238 H238       -1.7200  -22.3298  -57.3851 H         1 UNK         0.0600 
    239 H239       -2.1295  -21.8787  -59.0391 H         1 UNK         0.0600 
    240 H240       -0.8950  -20.3718  -55.4112 H         1 UNK         0.3000 
    241 H241        0.4731  -20.4135  -53.7523 H         1 UNK         0.0600 
    242 H242        0.5061  -22.8093  -55.7012 H         1 UNK         0.3800 
    243 H243        1.8672  -23.7233  -55.1061 H         1 UNK         0.3800 
    244 H244        2.5328  -19.0524  -55.5542 H         1 UNK         0.0800 
    245 H245        2.7819  -19.3020  -53.8574 H         1 UNK         0.0800 
    246 H246        2.5384  -17.4907  -52.2948 H         1 UNK         0.0800 
    247 H247        1.1932  -16.3905  -52.1820 H         1 UNK         0.0800 
@<TRIPOS>BOND
     1    1    2 1    
     2    1  127 1    
     3    1  128 1    
     4    1  129 1    
     5    2    3 2    
     6    2    4 am   BACKBONE|DICT|INTERRES
     7    4    5 1    
     8    4  130 1    
     9    5    6 1    
    10    5   65 1    
    11    5  131 1    
    12    6    7 1    
    13    6  132 1    
    14    6  133 1    
    15    7    8 1    
    16    8    9 1    
    17    8  134 1    
    18    8  135 1    
    19    9   10 ar   
    20    9   14 ar   
    21   10   11 ar   
    22   10  136 1    
    23   11   12 ar   
    24   11  126 1    
    25   12   13 ar   
    26   12  137 1    
    27   13   14 ar   
    28   13   15 1    
    29   14  138 1    
    30   15   16 1    
    31   15  139 1    
    32   15  140 1    
    33   16   17 1    
    34   17   18 1    
    35   17  141 1    
    36   17  142 1    
    37   18   19 1    
    38   18   67 1    
    39   18  143 1    
    40   19   20 am   BACKBONE|DICT|INTERRES
    41   19  144 1    
    42   20   21 2    
    43   20   22 1    
    44   22   23 1    
    45   22   24 1    
    46   22  145 1    
    47   23  146 1    
    48   23  147 1    
    49   23  148 1    
    50   24   25 am   BACKBONE|DICT|INTERRES
    51   24  149 1    
    52   25   26 2    
    53   25   27 1    
    54   27   28 1    
    55   27   29 1    
    56   27  150 1    
    57   28  151 1    
    58   28  152 1    
    59   28  153 1    
    60   29   30 am   BACKBONE|DICT|INTERRES
    61   29  154 1    
    62   30   31 2    
    63   30   32 1    
    64   32   33 1    
    65   32   34 1    
    66   32  155 1    
    67   33  156 1    
    68   33  157 1    
    69   33  158 1    
    70   34   35 am   BACKBONE|DICT|INTERRES
    71   34  159 1    
    72   35   36 2    
    73   35   37 1    
    74   37   38 1    
    75   37   39 1    
    76   37  160 1    
    77   38  161 1    
    78   38  162 1    
    79   38  163 1    
    80   39   40 am   BACKBONE|DICT|INTERRES
    81   39  164 1    
    82   40   41 2    
    83   40   42 1    
    84   42   43 1    
    85   42   44 1    
    86   42  165 1    
    87   43  166 1    
    88   43  167 1    
    89   43  168 1    
    90   44   45 am   BACKBONE|DICT|INTERRES
    91   44  169 1    
    92   45   46 2    
    93   45   47 1    
    94   47   48 1    
    95   47   49 1    
    96   47  170 1    
    97   48  171 1    
    98   48  172 1    
    99   48  173 1    
   100   49   50 am   BACKBONE|DICT|INTERRES
   101   49  174 1    
   102   50   51 2    
   103   50   52 1    
   104   52   53 1    
   105   52   54 1    
   106   52  175 1    
   107   53  176 1    
   108   53  177 1    
   109   53  178 1    
   110   54   55 am   BACKBONE|DICT|INTERRES
   111   54  179 1    
   112   55   56 2    
   113   55   57 1    
   114   57   58 1    
   115   57   59 1    
   116   57  180 1    
   117   58  181 1    
   118   58  182 1    
   119   58  183 1    
   120   59   60 am   BACKBONE|DICT|INTERRES
   121   59  184 1    
   122   60   61 2    
   123   60   62 1    
   124   62   63 1    
   125   62   64 1    
   126   62  185 1    
   127   63  186 1    
   128   63  187 1    
   129   63  188 1    
   130   64   65 am   BACKBONE|DICT|INTERRES
   131   64  189 1    
   132   65   66 2    
   133   67   68 2    
   134   67   69 am   BACKBONE|DICT|INTERRES
   135   69   70 1    
   136   69  190 1    
   137   70   71 1    
   138   70   72 1    
   139   70  191 1    
   140   71  192 1    
   141   71  193 1    
   142   71  194 1    
   143   72   73 2    
   144   72   74 am   BACKBONE|DICT|INTERRES
   145   74   75 1    
   146   74  195 1    
   147   75   76 1    
   148   75   77 1    
   149   75  196 1    
   150   76  197 1    
   151   76  198 1    
   152   76  199 1    
   153   77   78 2    
   154   77   79 am   BACKBONE|DICT|INTERRES
   155   79   80 1    
   156   79  200 1    
   157   80   81 1    
   158   80   82 1    
   159   80  201 1    
   160   81  202 1    
   161   81  203 1    
   162   81  204 1    
   163   82   83 2    
   164   82   84 am   BACKBONE|DICT|INTERRES
   165   84   85 1    
   166   84  205 1    
   167   85   86 1    
   168   85   87 1    
   169   85  206 1    
   170   86  207 1    
   171   86  208 1    
   172   86  209 1    
   173   87   88 2    
   174   87   89 am   BACKBONE|DICT|INTERRES
   175   89   90 1    
   176   89  210 1    
   177   90   91 1    
   178   90   92 1    
   179   90  211 1    
   180   91  212 1    
   181   91  213 1    
   182   91  214 1    
   183   92   93 2    
   184   92   94 am   BACKBONE|DICT|INTERRES
   185   94   95 1    
   186   94  215 1    
   187   95   96 1    
   188   95   97 1    
   189   95  216 1    
   190   96  217 1    
   191   96  218 1    
   192   96  219 1    
   193   97   98 2    
   194   97   99 am   BACKBONE|DICT|INTERRES
   195   99  100 1    
   196   99  220 1    
   197  100  101 1    
   198  100  102 1    
   199  100  221 1    
   200  101  222 1    
   201  101  223 1    
   202  101  224 1    
   203  102  103 2    
   204  102  104 am   BACKBONE|DICT|INTERRES
   205  104  105 1    
   206  104  225 1    
   207  105  106 1    
   208  105  107 1    
   209  105  226 1    
   210  106  227 1    
   211  106  228 1    
   212  106  229 1    
   213  107  108 2    
   214  107  109 am   BACKBONE|DICT|INTERRES
   215  109  110 1    
   216  109  230 1    
   217  110  111 1    
   218  110  112 1    
   219  110  231 1    
   220  111  232 1    
   221  111  233 1    
   222  111  234 1    
   223  112  113 2    
   224  112  114 am   BACKBONE|DICT|INTERRES
   225  114  115 1    
   226  114  235 1    
   227  115  116 1    
   228  115  117 1    
   229  115  236 1    
   230  116  237 1    
   231  116  238 1    
   232  116  239 1    
   233  117  118 2    
   234  117  119 am   BACKBONE|DICT|INTERRES
   235  119  120 1    
   236  119  240 1    
   237  120  121 1    
   238  120  124 1    
   239  120  241 1    
   240  121  122 am   BACKBONE|DICT|INTERRES
   241  121  123 2    
   242  122  242 1    
   243  122  243 1    
   244  124  125 1    
   245  124  244 1    
   246  124  245 1    
   247  125  126 1    
   248  126  246 1    
   249  126  247 1    
@<TRIPOS>SUBSTRUCTURE
     1 UNK         1 GROUP             0       ****    0 ROOT    
