@<TRIPOS>MOLECULE
3R540
247   249    1
SMALL
USER_CHARGES


@<TRIPOS>ATOM
      1 CA          1.3261  -12.2476  -48.5232 C.3       0 UNK        -0.1800 
      2 C           2.7828  -12.3387  -48.0956 C.2       0 UNK         0.5000 
      3 O           3.2825  -11.4487  -47.4073 O.2       0 UNK        -0.5000 
      4 N           3.4629  -13.4247  -48.4858 N.am      1 UNK        -0.5000 
      5 CA          4.8721  -13.7119  -48.1720 C.3       1 UNK         0.1400 
      6 C6          5.4151  -14.9140  -48.9840 C.3       23 UNK        -0.0398 
      7 S7          4.4140  -16.4333  -48.7992 S.3       23 UNK        -0.2404 
      8 C8          4.4235  -17.0649  -50.5029 C.3       23 UNK        -0.0205 
      9 C9          3.4983  -18.2612  -50.6362 C.ar      23 UNK        -0.0193 
     10 C10         2.2269  -18.1076  -51.1927 C.ar      23 UNK        -0.1150 
     11 C11         1.3634  -19.2003  -51.3029 C.ar      23 UNK        -0.0193 
     12 C12         1.7736  -20.4528  -50.8352 C.ar      23 UNK        -0.1150 
     13 C13         3.0474  -20.6195  -50.2794 C.ar      23 UNK        -0.0193 
     14 C14         3.9091  -19.5216  -50.1957 C.ar      23 UNK        -0.1150 
     15 C15         3.4908  -21.9849  -49.7679 C.3       23 UNK        -0.0205 
     16 S16         3.9823  -21.9732  -48.0074 S.3       23 UNK        -0.2404 
     17 C17         2.5093  -21.2720  -47.1872 C.3       23 UNK        -0.0398 
     18 CA          1.5512  -22.3426  -46.6144 C.3       11 UNK         0.1400 
     19 N           0.6183  -21.7709  -45.6425 N.am      11 UNK        -0.5000 
     20 C          -0.0063  -22.4712  -44.6853 C.2       10 UNK         0.5000 
     21 O           0.2572  -23.6437  -44.4222 O.2       10 UNK        -0.5000 
     22 CA         -1.1320  -21.7609  -43.9070 C.3       10 UNK         0.1400 
     23 CB         -0.6190  -21.2616  -42.5484 C.3       10 UNK        -0.1800 
     24 N          -1.7199  -20.6446  -44.6526 N.am      10 UNK        -0.5000 
     25 C          -2.5379  -20.7946  -45.7073 C.2       9 UNK         0.5000 
     26 O          -2.9228  -21.8928  -46.1072 O.2       9 UNK        -0.5000 
     27 CA         -2.9646  -19.5218  -46.4724 C.3       9 UNK         0.1400 
     28 CB         -4.3292  -19.0354  -45.9635 C.3       9 UNK        -0.1800 
     29 N          -1.9916  -18.4291  -46.3946 N.am      9 UNK        -0.5000 
     30 C          -0.7130  -18.5067  -46.7921 C.2       8 UNK         0.5000 
     31 O          -0.2364  -19.5057  -47.3307 O.2       8 UNK        -0.5000 
     32 CA          0.2091  -17.3195  -46.4427 C.3       8 UNK         0.1400 
     33 CB          0.3702  -16.3742  -47.6402 C.3       8 UNK        -0.1800 
     34 N          -0.2390  -16.5603  -45.2685 N.am      8 UNK        -0.5000 
     35 C          -0.3348  -17.0630  -44.0268 C.2       7 UNK         0.5000 
     36 O          -0.0211  -18.2168  -43.7379 O.2       7 UNK        -0.5000 
     37 CA         -0.9470  -16.1555  -42.9458 C.3       7 UNK         0.1400 
     38 CB          0.0939  -15.1992  -42.3449 C.3       7 UNK        -0.1800 
     39 N          -2.0762  -15.3960  -43.4804 N.am      7 UNK        -0.5000 
     40 C          -3.3096  -15.9003  -43.6312 C.2       6 UNK         0.5000 
     41 O          -3.6430  -17.0114  -43.2222 O.2       6 UNK        -0.5000 
     42 CA         -4.3421  -15.0338  -44.3789 C.3       6 UNK         0.1400 
     43 CB         -5.2176  -14.2594  -43.3828 C.3       6 UNK        -0.1800 
     44 N          -3.7269  -14.0864  -45.3087 N.am      6 UNK        -0.5000 
     45 C          -3.1104  -14.4242  -46.4498 C.2       5 UNK         0.5000 
     46 O          -3.0428  -15.5763  -46.8762 O.2       5 UNK        -0.5000 
     47 CA         -2.4059  -13.2838  -47.2061 C.3       5 UNK         0.1400 
     48 CB         -3.3594  -12.6117  -48.2042 C.3       5 UNK        -0.1800 
     49 N          -1.8492  -12.2728  -46.3033 N.am      5 UNK        -0.5000 
     50 C          -0.8180  -12.5020  -45.4826 C.2       4 UNK         0.5000 
     51 O          -0.2291  -13.5848  -45.4102 O.2       4 UNK        -0.5000 
     52 CA         -0.4026  -11.3525  -44.5613 C.3       4 UNK         0.1400 
     53 CB         -1.1253  -11.4522  -43.2059 C.3       4 UNK        -0.1800 
     54 N           1.0393  -11.4298  -44.3805 N.am      4 UNK        -0.5000 
     55 C           1.8376  -10.4392  -43.9712 C.2       3 UNK         0.5000 
     56 O           1.4187   -9.3353  -43.6188 O.2       3 UNK        -0.5000 
     57 CA          3.3586  -10.6934  -44.0053 C.3       3 UNK         0.1400 
     58 CB          4.0583  -10.2742  -42.6956 C.3       3 UNK        -0.1800 
     59 N           3.7334  -12.0511  -44.4236 N.am      3 UNK        -0.5000 
     60 C           3.6733  -13.1982  -43.7290 C.2       2 UNK         0.5000 
     61 O           3.2764  -13.2714  -42.5664 O.2       2 UNK        -0.5000 
     62 CA          4.1076  -14.4866  -44.4661 C.3       2 UNK         0.1400 
     63 CB          3.2008  -15.6794  -44.1268 C.3       2 UNK        -0.1800 
     64 N           4.1123  -14.3257  -45.9200 N.am      2 UNK        -0.5000 
     65 C           5.1400  -13.8926  -46.6605 C.2       1 UNK         0.5000 
     66 O           6.2438  -13.6052  -46.1965 O.2       1 UNK        -0.5000 
     67 C           0.7565  -23.0596  -47.7228 C.2       11 UNK         0.5000 
     68 O           1.0723  -24.2018  -48.0582 O.2       11 UNK        -0.5000 
     69 N          -0.3003  -22.4021  -48.2297 N.am      12 UNK        -0.5000 
     70 CA         -1.2134  -22.9371  -49.2460 C.3       12 UNK         0.1400 
     71 CB         -2.2406  -21.8696  -49.6411 C.3       12 UNK        -0.1800 
     72 C          -1.9380  -24.2281  -48.8237 C.2       12 UNK         0.5000 
     73 O          -2.3258  -25.0091  -49.6918 O.2       12 UNK        -0.5000 
     74 N          -2.0801  -24.4597  -47.5112 N.am      13 UNK        -0.5000 
     75 CA         -2.6121  -25.6828  -46.9041 C.3       13 UNK         0.1400 
     76 CB         -2.6073  -25.5315  -45.3771 C.3       13 UNK        -0.1800 
     77 C          -1.8718  -26.9711  -47.3238 C.2       13 UNK         0.5000 
     78 O          -2.4900  -28.0356  -47.3441 O.2       13 UNK        -0.5000 
     79 N          -0.5919  -26.8546  -47.7139 N.am      14 UNK        -0.5000 
     80 CA          0.2010  -27.9365  -48.3078 C.3       14 UNK         0.1400 
     81 CB          1.6720  -27.5008  -48.3793 C.3       14 UNK        -0.1800 
     82 C          -0.3008  -28.3679  -49.7036 C.2       14 UNK         0.5000 
     83 O          -0.0555  -29.5038  -50.1099 O.2       14 UNK        -0.5000 
     84 N          -1.0170  -27.4704  -50.3932 N.am      15 UNK        -0.5000 
     85 CA         -1.7091  -27.6967  -51.6611 C.3       15 UNK         0.1400 
     86 CB         -1.2917  -26.5957  -52.6532 C.3       15 UNK        -0.1800 
     87 C          -3.2360  -27.7282  -51.4366 C.2       15 UNK         0.5000 
     88 O          -3.9970  -27.2973  -52.3043 O.2       15 UNK        -0.5000 
     89 N          -3.6589  -28.2034  -50.2539 N.am      16 UNK        -0.5000 
     90 CA         -5.0437  -28.3603  -49.7905 C.3       16 UNK         0.1400 
     91 CB         -5.7807  -29.4175  -50.6391 C.3       16 UNK        -0.1800 
     92 C          -5.8332  -27.0368  -49.6814 C.2       16 UNK         0.5000 
     93 O          -7.0648  -27.0620  -49.6939 O.2       16 UNK        -0.5000 
     94 N          -5.1146  -25.9080  -49.5762 N.am      17 UNK        -0.5000 
     95 CA         -5.6200  -24.5326  -49.5196 C.3       17 UNK         0.1400 
     96 CB         -6.4586  -24.2903  -48.2477 C.3       17 UNK        -0.1800 
     97 C          -6.3320  -24.0921  -50.8139 C.2       17 UNK         0.5000 
     98 O          -7.1723  -23.1933  -50.7701 O.2       17 UNK        -0.5000 
     99 N          -5.9608  -24.6974  -51.9535 N.am      18 UNK        -0.5000 
    100 CA        -6.5292  -24.4209  -53.2771 C.3       18 UNK         0.1400 
    101 CB        -5.9632  -25.4302  -54.2868 C.3       18 UNK        -0.1800 
    102 C         -6.2988  -22.9775  -53.7683 C.2       18 UNK         0.5000 
    103 O         -7.1243  -22.4519  -54.5158 O.2       18 UNK        -0.5000 
    104 N         -5.1988  -22.3567  -53.3203 N.am      19 UNK        -0.5000 
    105 CA        -4.8699  -20.9540  -53.5826 C.3       19 UNK         0.1400 
    106 CB        -3.3489  -20.7679  -53.4492 C.3       19 UNK        -0.1800 
    107 C         -5.6170  -19.9690  -52.6577 C.2       19 UNK         0.5000 
    108 O         -5.5826  -18.7682  -52.9270 O.2       19 UNK        -0.5000 
    109 N         -6.2595  -20.4798  -51.5932 N.am      20 UNK        -0.5000 
    110 CA        -6.9134  -19.7424  -50.5066 C.3       20 UNK         0.1400 
    111 CB        -8.1917  -19.0421  -51.0201 C.3       20 UNK        -0.1800 
    112 C         -5.9218  -18.8064  -49.7796 C.2       20 UNK         0.5000 
    113 O         -4.7808  -19.2082  -49.5447 O.2       20 UNK        -0.5000 
    114 N         -6.3566  -17.5852  -49.4411 N.am      21 UNK        -0.5000 
    115 CA        -5.4758  -16.4918  -49.0348 C.3       21 UNK         0.1400 
    116 CB        -6.3061  -15.3997  -48.3418 C.3       21 UNK        -0.1800 
    117 C         -4.7531  -15.9574  -50.2828 C.2       21 UNK         0.5000 
    118 O         -5.4216  -15.6112  -51.2600 O.2       21 UNK        -0.5000 
    119 N         -3.4190  -15.9478  -50.2492 N.am      22 UNK        -0.5000 
    120 CA        -2.5690  -15.8245  -51.4411 C.3       22 UNK         0.1400 
    121 C         -1.3431  -14.8940  -51.2320 C.2       22 UNK         0.5000 
    122 N         -0.5922  -14.5996  -52.2854 N.am      22 UNK        -0.7600 
    123 O         -1.0633  -14.4243  -50.1342 O.2       22 UNK        -0.5000 
    124 C124       -2.1930  -17.2310  -51.9816 C.3       23 UNK        -0.0398 
    125 S125       -1.1736  -18.2147  -50.8219 S.3       23 UNK        -0.2404 
    126 C126        0.0029  -19.0165  -51.9543 C.3       23 UNK        -0.0205 
    127 H127        1.2545  -11.9040  -49.5549 H         1 UNK         0.0600 
    128 H128        0.7837  -11.5444  -47.8918 H         1 UNK         0.0600 
    129 H129        0.8350  -13.2178  -48.4469 H         1 UNK         0.0600 
    130 H130        2.9953  -14.1284  -49.0401 H         1 UNK         0.3000 
    131 H131        5.4451  -12.8332  -48.4759 H         1 UNK         0.0600 
    132 H132        5.4510  -14.6360  -50.0380 H         1 UNK         0.0800 
    133 H133        6.4475  -15.1378  -48.7084 H         1 UNK         0.0800 
    134 H134        5.4396  -17.3475  -50.7822 H         1 UNK         0.0800 
    135 H135        4.1181  -16.2746  -51.1906 H         1 UNK         0.0800 
    136 H136        1.9034  -17.1358  -51.5393 H         1 UNK         0.1150 
    137 H137        1.1023  -21.2966  -50.9092 H         1 UNK         0.1150 
    138 H138        4.8922  -19.6429  -49.7626 H         1 UNK         0.1150 
    139 H139        2.7056  -22.7275  -49.9142 H         1 UNK         0.0800 
    140 H140        4.3395  -22.3222  -50.3642 H         1 UNK         0.0800 
    141 H141        1.9920  -20.5860  -47.8565 H         1 UNK         0.0800 
    142 H142        2.8804  -20.6500  -46.3716 H         1 UNK         0.0800 
    143 H143        2.1574  -23.0923  -46.1007 H         1 UNK         0.0600 
    144 H144        0.3104  -20.8246  -45.8304 H         1 UNK         0.3000 
    145 H145       -1.9174  -22.4962  -43.7190 H         1 UNK         0.0600 
    146 H146       -1.3980  -20.7327  -41.9991 H         1 UNK         0.0600 
    147 H147       -0.2923  -22.0967  -41.9277 H         1 UNK         0.0600 
    148 H148        0.2317  -20.5891  -42.6596 H         1 UNK         0.0600 
    149 H149       -1.4119  -19.7151  -44.3905 H         1 UNK         0.3000 
    150 H150       -3.0655  -19.7776  -47.5271 H         1 UNK         0.0600 
    151 H151       -5.1076  -19.7625  -46.1979 H         1 UNK         0.0600 
    152 H152       -4.6187  -18.0911  -46.4210 H         1 UNK         0.0600 
    153 H153       -4.3289  -18.8970  -44.8828 H         1 UNK         0.0600 
    154 H154       -2.3188  -17.5484  -46.0200 H         1 UNK         0.3000 
    155 H155        1.1925  -17.7326  -46.2089 H         1 UNK         0.0600 
    156 H156       -0.5853  -15.9493  -47.9446 H         1 UNK         0.0600 
    157 H157        0.7800  -16.9033  -48.5020 H         1 UNK         0.0600 
    158 H158        1.0476  -15.5523  -47.4096 H         1 UNK         0.0600 
    159 H159       -0.4707  -15.5845  -45.4202 H         1 UNK         0.3000 
    160 H160       -1.3021  -16.7991  -42.1378 H         1 UNK         0.0600 
    161 H161        0.4887  -14.5009  -43.0814 H         1 UNK         0.0600 
    162 H162        0.9381  -15.7531  -41.9332 H         1 UNK         0.0600 
    163 H163       -0.3351  -14.6153  -41.5307 H         1 UNK         0.0600 
    164 H164       -1.8698  -14.4883  -43.8690 H         1 UNK         0.3000 
    165 H165       -4.9847  -15.7064  -44.9515 H         1 UNK         0.0600 
    166 H166       -5.9970  -13.6968  -43.8973 H         1 UNK         0.0600 
    167 H167       -5.7139  -14.9390  -42.6888 H         1 UNK         0.0600 
    168 H168       -4.6298  -13.5568  -42.7907 H         1 UNK         0.0600 
    169 H169       -3.7421  -13.1136  -45.0407 H         1 UNK         0.3000 
    170 H170       -1.5774  -13.7229  -47.7611 H         1 UNK         0.0600 
    171 H171       -3.7336  -13.3334  -48.9303 H         1 UNK         0.0600 
    172 H172       -4.2204  -12.1644  -47.7063 H         1 UNK         0.0600 
    173 H173       -2.8497  -11.8296  -48.7671 H         1 UNK         0.0600 
    174 H174       -2.2859  -11.3620  -46.3149 H         1 UNK         0.3000 
    175 H175       -0.6520  -10.4052  -45.0440 H         1 UNK         0.0600 
    176 H176       -0.8677  -12.3709  -42.6788 H         1 UNK         0.0600 
    177 H177       -0.8680  -10.6150  -42.5571 H         1 UNK         0.0600 
    178 H178       -2.2081  -11.4380  -43.3351 H         1 UNK         0.0600 
    179 H179        1.4503  -12.3070  -44.6708 H         1 UNK         0.3000 
    180 H180        3.7409  -10.0418  -44.7923 H         1 UNK         0.0600 
    181 H181        3.6549  -10.8001  -41.8302 H         1 UNK         0.0600 
    182 H182        3.9292   -9.2071  -42.5111 H         1 UNK         0.0600 
    183 H183        5.1301  -10.4671  -42.7397 H         1 UNK         0.0600 
    184 H184        4.0219  -12.1151  -45.3921 H         1 UNK         0.3000 
    185 H185        5.1166  -14.7241  -44.1235 H         1 UNK         0.0600 
    186 H186        3.1867  -15.8795  -43.0550 H         1 UNK         0.0600 
    187 H187        2.1774  -15.4928  -44.4471 H         1 UNK         0.0600 
    188 H188        3.5431  -16.5893  -44.6201 H         1 UNK         0.0600 
    189 H189        3.2450  -14.5267  -46.3959 H         1 UNK         0.3000 
    190 H190       -0.4715  -21.4509  -47.9197 H         1 UNK         0.3000 
    191 H191       -0.6136  -23.1753  -50.1266 H         1 UNK         0.0600 
    192 H192       -2.9242  -21.6455  -48.8236 H         1 UNK         0.0600 
    193 H193       -2.8482  -22.2102  -50.4795 H         1 UNK         0.0600 
    194 H194       -1.7561  -20.9420  -49.9417 H         1 UNK         0.0600 
    195 H195       -1.8145  -23.7199  -46.8746 H         1 UNK         0.3000 
    196 H196       -3.6488  -25.7819  -47.2270 H         1 UNK         0.0600 
    197 H197       -3.0830  -26.3889  -44.8993 H         1 UNK         0.0600 
    198 H198       -3.1532  -24.6408  -45.0647 H         1 UNK         0.0600 
    199 H199       -1.5928  -25.4609  -44.9852 H         1 UNK         0.0600 
    200 H200       -0.1521  -25.9411  -47.6853 H         1 UNK         0.3000 
    201 H201        0.1330  -28.8050  -47.6495 H         1 UNK         0.0600 
    202 H202        2.0500  -27.2194  -47.3962 H         1 UNK         0.0600 
    203 H203        1.8063  -26.6486  -49.0467 H         1 UNK         0.0600 
    204 H204        2.3015  -28.3102  -48.7509 H         1 UNK         0.0600 
    205 H205       -1.2116  -26.5709  -49.9645 H         1 UNK         0.3000 
    206 H206       -1.4277  -28.6626  -52.0842 H         1 UNK         0.0600 
    207 H207       -0.2101  -26.5767  -52.7870 H         1 UNK         0.0600 
    208 H208       -1.7360  -26.7618  -53.6353 H         1 UNK         0.0600 
    209 H209       -1.6044  -25.6078  -52.3128 H         1 UNK         0.0600 
    210 H210       -2.9542  -28.4812  -49.5830 H         1 UNK         0.3000 
    211 H211       -4.9747  -28.7471  -48.7728 H         1 UNK         0.0600 
    212 H212       -5.9547  -29.0692  -51.6577 H         1 UNK         0.0600 
    213 H213       -6.7522  -29.6608  -50.2074 H         1 UNK         0.0600 
    214 H214       -5.2120  -30.3457  -50.6941 H         1 UNK         0.0600 
    215 H215       -4.1040  -25.9820  -49.6249 H         1 UNK         0.3000 
    216 H216       -4.7459  -23.8876  -49.4447 H         1 UNK         0.0600 
    217 H217       -6.6948  -23.2319  -48.1318 H         1 UNK         0.0600 
    218 H218       -5.9165  -24.5974  -47.3534 H         1 UNK         0.0600 
    219 H219       -7.4035  -24.8333  -48.2726 H         1 UNK         0.0600 
    220 H220       -5.2737  -25.4407  -51.9079 H         1 UNK         0.3000 
    221 H221       -7.6084  -24.5737  -53.2108 H         1 UNK         0.0600 
    222 H222       -4.8781  -25.3522  -54.3674 H         1 UNK         0.0600 
    223 H223       -6.2034  -26.4536  -53.9973 H         1 UNK         0.0600 
    224 H224       -6.3807  -25.2675  -55.2813 H         1 UNK         0.0600 
    225 H225       -4.5687  -22.8702  -52.7225 H         1 UNK         0.3000 
    226 H226       -5.1489  -20.7142  -54.6109 H         1 UNK         0.0600 
    227 H227       -2.8043  -21.4725  -54.0779 H         1 UNK         0.0600 
    228 H228       -3.0520  -19.7651  -53.7581 H         1 UNK         0.0600 
    229 H229       -3.0135  -20.9016  -52.4211 H         1 UNK         0.0600 
    230 H230       -6.2700  -21.4860  -51.4798 H         1 UNK         0.3000 
    231 H231       -7.2172  -20.4900  -49.7727 H         1 UNK         0.0600 
    232 H232       -8.8345  -19.7469  -51.5479 H         1 UNK         0.0600 
    233 H233       -7.9637  -18.2260  -51.7068 H         1 UNK         0.0600 
    234 H234       -8.7791  -18.6339  -50.1970 H         1 UNK         0.0600 
    235 H235       -7.2946  -17.3230  -49.7053 H         1 UNK         0.3000 
    236 H236       -4.7380  -16.8731  -48.3291 H         1 UNK         0.0600 
    237 H237       -5.6768  -14.5663  -48.0319 H         1 UNK         0.0600 
    238 H238       -7.0781  -14.9996  -49.0001 H         1 UNK         0.0600 
    239 H239       -6.7935  -15.7865  -47.4468 H         1 UNK         0.0600 
    240 H240       -2.9306  -16.1809  -49.3946 H         1 UNK         0.3000 
    241 H241       -3.1464  -15.3237  -52.2204 H         1 UNK         0.0600 
    242 H242        0.2004  -13.9915  -52.1563 H         1 UNK         0.3800 
    243 H243       -0.8005  -14.9496  -53.2069 H         1 UNK         0.3800 
    244 H244       -3.1027  -17.7975  -52.1841 H         1 UNK         0.0800 
    245 H245       -1.6915  -17.1372  -52.9446 H         1 UNK         0.0800 
    246 H246        0.1342  -18.4223  -52.8591 H         1 UNK         0.0800 
    247 H247       -0.4080  -19.9751  -52.2742 H         1 UNK         0.0800 
@<TRIPOS>BOND
     1    1    2 1    
     2    1  127 1    
     3    1  128 1    
     4    1  129 1    
     5    2    3 2    
     6    2    4 am   BACKBONE|DICT|INTERRES
     7    4    5 1    
     8    4  130 1    
     9    5    6 1    
    10    5   65 1    
    11    5  131 1    
    12    6    7 1    
    13    6  132 1    
    14    6  133 1    
    15    7    8 1    
    16    8    9 1    
    17    8  134 1    
    18    8  135 1    
    19    9   10 ar   
    20    9   14 ar   
    21   10   11 ar   
    22   10  136 1    
    23   11   12 ar   
    24   11  126 1    
    25   12   13 ar   
    26   12  137 1    
    27   13   14 ar   
    28   13   15 1    
    29   14  138 1    
    30   15   16 1    
    31   15  139 1    
    32   15  140 1    
    33   16   17 1    
    34   17   18 1    
    35   17  141 1    
    36   17  142 1    
    37   18   19 1    
    38   18   67 1    
    39   18  143 1    
    40   19   20 am   BACKBONE|DICT|INTERRES
    41   19  144 1    
    42   20   21 2    
    43   20   22 1    
    44   22   23 1    
    45   22   24 1    
    46   22  145 1    
    47   23  146 1    
    48   23  147 1    
    49   23  148 1    
    50   24   25 am   BACKBONE|DICT|INTERRES
    51   24  149 1    
    52   25   26 2    
    53   25   27 1    
    54   27   28 1    
    55   27   29 1    
    56   27  150 1    
    57   28  151 1    
    58   28  152 1    
    59   28  153 1    
    60   29   30 am   BACKBONE|DICT|INTERRES
    61   29  154 1    
    62   30   31 2    
    63   30   32 1    
    64   32   33 1    
    65   32   34 1    
    66   32  155 1    
    67   33  156 1    
    68   33  157 1    
    69   33  158 1    
    70   34   35 am   BACKBONE|DICT|INTERRES
    71   34  159 1    
    72   35   36 2    
    73   35   37 1    
    74   37   38 1    
    75   37   39 1    
    76   37  160 1    
    77   38  161 1    
    78   38  162 1    
    79   38  163 1    
    80   39   40 am   BACKBONE|DICT|INTERRES
    81   39  164 1    
    82   40   41 2    
    83   40   42 1    
    84   42   43 1    
    85   42   44 1    
    86   42  165 1    
    87   43  166 1    
    88   43  167 1    
    89   43  168 1    
    90   44   45 am   BACKBONE|DICT|INTERRES
    91   44  169 1    
    92   45   46 2    
    93   45   47 1    
    94   47   48 1    
    95   47   49 1    
    96   47  170 1    
    97   48  171 1    
    98   48  172 1    
    99   48  173 1    
   100   49   50 am   BACKBONE|DICT|INTERRES
   101   49  174 1    
   102   50   51 2    
   103   50   52 1    
   104   52   53 1    
   105   52   54 1    
   106   52  175 1    
   107   53  176 1    
   108   53  177 1    
   109   53  178 1    
   110   54   55 am   BACKBONE|DICT|INTERRES
   111   54  179 1    
   112   55   56 2    
   113   55   57 1    
   114   57   58 1    
   115   57   59 1    
   116   57  180 1    
   117   58  181 1    
   118   58  182 1    
   119   58  183 1    
   120   59   60 am   BACKBONE|DICT|INTERRES
   121   59  184 1    
   122   60   61 2    
   123   60   62 1    
   124   62   63 1    
   125   62   64 1    
   126   62  185 1    
   127   63  186 1    
   128   63  187 1    
   129   63  188 1    
   130   64   65 am   BACKBONE|DICT|INTERRES
   131   64  189 1    
   132   65   66 2    
   133   67   68 2    
   134   67   69 am   BACKBONE|DICT|INTERRES
   135   69   70 1    
   136   69  190 1    
   137   70   71 1    
   138   70   72 1    
   139   70  191 1    
   140   71  192 1    
   141   71  193 1    
   142   71  194 1    
   143   72   73 2    
   144   72   74 am   BACKBONE|DICT|INTERRES
   145   74   75 1    
   146   74  195 1    
   147   75   76 1    
   148   75   77 1    
   149   75  196 1    
   150   76  197 1    
   151   76  198 1    
   152   76  199 1    
   153   77   78 2    
   154   77   79 am   BACKBONE|DICT|INTERRES
   155   79   80 1    
   156   79  200 1    
   157   80   81 1    
   158   80   82 1    
   159   80  201 1    
   160   81  202 1    
   161   81  203 1    
   162   81  204 1    
   163   82   83 2    
   164   82   84 am   BACKBONE|DICT|INTERRES
   165   84   85 1    
   166   84  205 1    
   167   85   86 1    
   168   85   87 1    
   169   85  206 1    
   170   86  207 1    
   171   86  208 1    
   172   86  209 1    
   173   87   88 2    
   174   87   89 am   BACKBONE|DICT|INTERRES
   175   89   90 1    
   176   89  210 1    
   177   90   91 1    
   178   90   92 1    
   179   90  211 1    
   180   91  212 1    
   181   91  213 1    
   182   91  214 1    
   183   92   93 2    
   184   92   94 am   BACKBONE|DICT|INTERRES
   185   94   95 1    
   186   94  215 1    
   187   95   96 1    
   188   95   97 1    
   189   95  216 1    
   190   96  217 1    
   191   96  218 1    
   192   96  219 1    
   193   97   98 2    
   194   97   99 am   BACKBONE|DICT|INTERRES
   195   99  100 1    
   196   99  220 1    
   197  100  101 1    
   198  100  102 1    
   199  100  221 1    
   200  101  222 1    
   201  101  223 1    
   202  101  224 1    
   203  102  103 2    
   204  102  104 am   BACKBONE|DICT|INTERRES
   205  104  105 1    
   206  104  225 1    
   207  105  106 1    
   208  105  107 1    
   209  105  226 1    
   210  106  227 1    
   211  106  228 1    
   212  106  229 1    
   213  107  108 2    
   214  107  109 am   BACKBONE|DICT|INTERRES
   215  109  110 1    
   216  109  230 1    
   217  110  111 1    
   218  110  112 1    
   219  110  231 1    
   220  111  232 1    
   221  111  233 1    
   222  111  234 1    
   223  112  113 2    
   224  112  114 am   BACKBONE|DICT|INTERRES
   225  114  115 1    
   226  114  235 1    
   227  115  116 1    
   228  115  117 1    
   229  115  236 1    
   230  116  237 1    
   231  116  238 1    
   232  116  239 1    
   233  117  118 2    
   234  117  119 am   BACKBONE|DICT|INTERRES
   235  119  120 1    
   236  119  240 1    
   237  120  121 1    
   238  120  124 1    
   239  120  241 1    
   240  121  122 am   BACKBONE|DICT|INTERRES
   241  121  123 2    
   242  122  242 1    
   243  122  243 1    
   244  124  125 1    
   245  124  244 1    
   246  124  245 1    
   247  125  126 1    
   248  126  246 1    
   249  126  247 1    
@<TRIPOS>SUBSTRUCTURE
     1 UNK         1 GROUP             0       ****    0 ROOT    
