@<TRIPOS>MOLECULE
3R540
247   249    1
SMALL
USER_CHARGES


@<TRIPOS>ATOM
      1 CA          4.1913  -14.2184  -48.7229 C.3       0 UNK        -0.1800 
      2 C           2.7449  -14.2885  -48.2564 C.2       0 UNK         0.5000 
      3 O           2.3869  -15.1992  -47.5110 O.2       0 UNK        -0.5000 
      4 N           1.9171  -13.3223  -48.6771 N.am      1 UNK        -0.5000 
      5 CA          0.4820  -13.2325  -48.3673 C.3       1 UNK         0.1400 
      6 C6         -0.2015  -12.0539  -49.1068 C.3       23 UNK        -0.0398 
      7 S7         -0.0048  -12.0993  -50.9217 S.3       23 UNK        -0.2404 
      8 C8         -1.6710  -12.5896  -51.4698 C.3       23 UNK        -0.0205 
      9 C9         -1.8597  -14.0955  -51.3896 C.ar      23 UNK        -0.0193 
     10 C10        -1.5906  -14.8920  -52.5064 C.ar      23 UNK        -0.1150 
     11 C11        -1.7436  -16.2797  -52.4435 C.ar      23 UNK        -0.0193 
     12 C12        -2.1436  -16.8700  -51.2415 C.ar      23 UNK        -0.1150 
     13 C13        -2.4457  -16.0819  -50.1271 C.ar      23 UNK        -0.0193 
     14 C14        -2.3060  -14.6939  -50.2078 C.ar      23 UNK        -0.1150 
     15 C15        -2.9227  -16.7361  -48.8419 C.3       23 UNK        -0.0205 
     16 S16        -4.5224  -17.5732  -49.0840 S.3       23 UNK        -0.2404 
     17 C17        -4.7379  -18.3983  -47.4745 C.3       23 UNK        -0.0398 
     18 CA         -4.3045  -19.8842  -47.5070 C.3       11 UNK         0.1400 
     19 N          -2.8872  -20.0308  -47.8531 N.am      11 UNK        -0.5000 
     20 C          -2.2201  -21.1769  -48.0314 C.2       10 UNK         0.5000 
     21 O          -2.7324  -22.2926  -47.9484 O.2       10 UNK        -0.5000 
     22 CA         -0.7134  -21.0553  -48.3216 C.3       10 UNK         0.1400 
     23 CB         -0.4705  -20.9932  -49.8377 C.3       10 UNK        -0.1800 
     24 N          -0.0577  -19.9096  -47.6765 N.am      10 UNK        -0.5000 
     25 C          -0.0896  -19.6282  -46.3657 C.2       9 UNK         0.5000 
     26 O          -0.7805  -20.2450  -45.5483 O.2       9 UNK        -0.5000 
     27 CA          0.7615  -18.4332  -45.9016 C.3       9 UNK         0.1400 
     28 CB         -0.0192  -17.1184  -46.0498 C.3       9 UNK        -0.1800 
     29 N           1.1615  -18.5993  -44.5067 N.am      9 UNK        -0.5000 
     30 C           2.0700  -19.4878  -44.0799 C.2       8 UNK         0.5000 
     31 O           2.7460  -20.1835  -44.8395 O.2       8 UNK        -0.5000 
     32 CA          2.2626  -19.6347  -42.5593 C.3       8 UNK         0.1400 
     33 CB          3.6958  -19.2594  -42.1481 C.3       8 UNK        -0.1800 
     34 N           1.3129  -18.8143  -41.8034 N.am      8 UNK        -0.5000 
     35 C           0.2057  -19.2831  -41.2115 C.2       7 UNK         0.5000 
     36 O          -0.1081  -20.4736  -41.1955 O.2       7 UNK        -0.5000 
     37 CA         -0.7142  -18.2601  -40.5176 C.3       7 UNK         0.1400 
     38 CB         -0.4147  -18.2108  -39.0125 C.3       7 UNK        -0.1800 
     39 N          -0.6159  -16.9117  -41.0832 N.am      7 UNK        -0.5000 
     40 C          -1.1442  -16.5560  -42.2641 C.2       6 UNK         0.5000 
     41 O          -1.7512  -17.3444  -42.9863 O.2       6 UNK        -0.5000 
     42 CA         -0.9382  -15.1116  -42.7634 C.3       6 UNK         0.1400 
     43 CB         -2.2470  -14.4777  -43.2764 C.3       6 UNK        -0.1800 
     44 N          -0.2396  -14.2371  -41.8180 N.am      6 UNK        -0.5000 
     45 C          -0.6819  -13.6844  -40.6807 C.2       5 UNK         0.5000 
     46 O          -1.8288  -13.8024  -40.2487 O.2       5 UNK        -0.5000 
     47 CA          0.3790  -12.8803  -39.8961 C.3       5 UNK         0.1400 
     48 CB         -0.0186  -12.6136  -38.4291 C.3       5 UNK        -0.1800 
     49 N           1.7147  -13.4899  -39.9870 N.am      5 UNK        -0.5000 
     50 C           2.0685  -14.7072  -39.5460 C.2       4 UNK         0.5000 
     51 O           1.3070  -15.4533  -38.9315 O.2       4 UNK        -0.5000 
     52 CA          3.4888  -15.1850  -39.9188 C.3       4 UNK         0.1400 
     53 CB          3.7290  -16.6684  -39.5710 C.3       4 UNK        -0.1800 
     54 N           3.8183  -14.9224  -41.3264 N.am      4 UNK        -0.5000 
     55 C           3.1528  -15.3556  -42.4070 C.2       3 UNK         0.5000 
     56 O           2.1704  -16.0992  -42.3666 O.2       3 UNK        -0.5000 
     57 CA          3.6355  -14.8178  -43.7673 C.3       3 UNK         0.1400 
     58 CB          4.0147  -15.9728  -44.7061 C.3       3 UNK        -0.1800 
     59 N           2.6270  -13.9744  -44.4176 N.am      3 UNK        -0.5000 
     60 C           2.0698  -12.8767  -43.8812 C.2       2 UNK         0.5000 
     61 O           2.3590  -12.4511  -42.7616 O.2       2 UNK        -0.5000 
     62 CA          1.0022  -12.1358  -44.7076 C.3       2 UNK         0.1400 
     63 CB          1.0939  -10.6108  -44.5228 C.3       2 UNK        -0.1800 
     64 N           1.1042  -12.4404  -46.1332 N.am      2 UNK        -0.5000 
     65 C           0.1953  -13.1082  -46.8550 C.2       1 UNK         0.5000 
     66 O          -0.8301  -13.6025  -46.3871 O.2       1 UNK        -0.5000 
     67 C          -4.6646  -20.5581  -46.1676 C.2       11 UNK         0.5000 
     68 O          -5.7496  -21.1275  -46.0544 O.2       11 UNK        -0.5000 
     69 N          -3.7537  -20.4906  -45.1888 N.am      12 UNK        -0.5000 
     70 CA         -3.9122  -21.1201  -43.8801 C.3       12 UNK         0.1400 
     71 CB         -3.3102  -20.2057  -42.8047 C.3       12 UNK        -0.1800 
     72 C          -3.2371  -22.4981  -43.8441 C.2       12 UNK         0.5000 
     73 O          -3.7863  -23.4262  -43.2499 O.2       12 UNK        -0.5000 
     74 N          -2.0574  -22.6047  -44.4703 N.am      13 UNK        -0.5000 
     75 CA         -1.2103  -23.7938  -44.4299 C.3       13 UNK         0.1400 
     76 CB          0.1996  -23.4226  -44.9146 C.3       13 UNK        -0.1800 
     77 C          -1.7617  -24.9870  -45.2311 C.2       13 UNK         0.5000 
     78 O          -1.5376  -26.1278  -44.8231 O.2       13 UNK        -0.5000 
     79 N          -2.4433  -24.7221  -46.3548 N.am      14 UNK        -0.5000 
     80 CA         -2.8604  -25.7542  -47.3073 C.3       14 UNK         0.1400 
     81 CB         -1.6926  -26.0395  -48.2711 C.3       14 UNK        -0.1800 
     82 C          -4.1461  -25.3947  -48.0732 C.2       14 UNK         0.5000 
     83 O          -4.4008  -25.9934  -49.1174 O.2       14 UNK        -0.5000 
     84 N          -4.9228  -24.4120  -47.5910 N.am      15 UNK        -0.5000 
     85 CA         -6.1464  -23.8909  -48.2250 C.3       15 UNK         0.1400 
     86 CB         -7.2838  -24.9301  -48.1386 C.3       15 UNK        -0.1800 
     87 C          -5.9149  -23.3726  -49.6658 C.2       15 UNK         0.5000 
     88 O          -6.7692  -23.5462  -50.5356 O.2       15 UNK        -0.5000 
     89 N          -4.7342  -22.7753  -49.8826 N.am      16 UNK        -0.5000 
     90 CA         -4.1751  -22.2594  -51.1364 C.3       16 UNK         0.1400 
     91 CB         -5.0958  -21.2151  -51.7987 C.3       16 UNK        -0.1800 
     92 C          -3.7101  -23.3428  -52.1308 C.2       16 UNK         0.5000 
     93 O          -3.2066  -22.9844  -53.1968 O.2       16 UNK        -0.5000 
     94 N          -3.8124  -24.6359  -51.7822 N.am      17 UNK        -0.5000 
     95 CA         -3.3849  -25.7499  -52.6388 C.3       17 UNK         0.1400 
     96 CB         -3.8824  -27.0827  -52.0629 C.3       17 UNK        -0.1800 
     97 C          -1.8610  -25.7924  -52.8571 C.2       17 UNK         0.5000 
     98 O          -1.4149  -26.1820  -53.9358 O.2       17 UNK        -0.5000 
     99 N          -1.0915  -25.3230  -51.8634 N.am      18 UNK        -0.5000 
    100 CA         0.3639  -25.1496  -51.9412 C.3       18 UNK         0.1400 
    101 CB         0.9170  -24.8448  -50.5403 C.3       18 UNK        -0.1800 
    102 C          0.7988  -24.0585  -52.9419 C.2       18 UNK         0.5000 
    103 O          1.9309  -24.0971  -53.4238 O.2       18 UNK        -0.5000 
    104 N         -0.1131  -23.1278  -53.2528 N.am      19 UNK        -0.5000 
    105 CA         0.0445  -22.0892  -54.2699 C.3       19 UNK         0.1400 
    106 CB        -0.4783  -20.7643  -53.6942 C.3       19 UNK        -0.1800 
    107 C         -0.6797  -22.4580  -55.5828 C.2       19 UNK         0.5000 
    108 O         -0.8203  -21.5984  -56.4532 O.2       19 UNK        -0.5000 
    109 N         -1.1342  -23.7167  -55.7001 N.am      20 UNK        -0.5000 
    110 CA        -1.8720  -24.3026  -56.8233 C.3       20 UNK         0.1400 
    111 CB        -0.9891  -24.3631  -58.0879 C.3       20 UNK        -0.1800 
    112 C         -3.2430  -23.6372  -57.0687 C.2       20 UNK         0.5000 
    113 O         -3.6701  -23.5295  -58.2195 O.2       20 UNK        -0.5000 
    114 N         -3.9069  -23.2179  -55.9785 N.am      21 UNK        -0.5000 
    115 CA        -5.1929  -22.5149  -55.9347 C.3       21 UNK         0.1400 
    116 CB        -6.3388  -23.4160  -56.4402 C.3       21 UNK        -0.1800 
    117 C         -5.1108  -21.1571  -56.6582 C.2       21 UNK         0.5000 
    118 O         -5.7712  -20.9448  -57.6769 O.2       21 UNK        -0.5000 
    119 N         -4.2575  -20.2780  -56.1197 N.am      22 UNK        -0.5000 
    120 CA        -3.9300  -18.9477  -56.6607 C.3       22 UNK         0.1400 
    121 C         -5.1040  -17.9238  -56.7527 C.2       22 UNK         0.5000 
    122 N         -6.2335  -18.1383  -56.0890 N.am      22 UNK        -0.7600 
    123 O         -4.9872  -16.9191  -57.4494 O.2       22 UNK        -0.5000 
    124 C124       -2.6999  -18.3406  -55.9357 C.3       23 UNK        -0.0398 
    125 S125       -2.9856  -18.0622  -54.1523 S.3       23 UNK        -0.2404 
    126 C126       -1.4908  -17.1363  -53.6753 C.3       23 UNK        -0.0205 
    127 H127        4.3641  -13.3679  -49.3828 H         1 UNK         0.0600 
    128 H128        4.4544  -15.1277  -49.2630 H         1 UNK         0.0600 
    129 H129        4.8571  -14.1254  -47.8649 H         1 UNK         0.0600 
    130 H130        2.2674  -12.6116  -49.3040 H         1 UNK         0.3000 
    131 H131        0.0252  -14.1650  -48.7033 H         1 UNK         0.0600 
    132 H132       -1.2647  -12.0161  -48.8634 H         1 UNK         0.0800 
    133 H133        0.2112  -11.1039  -48.7619 H         1 UNK         0.0800 
    134 H134       -1.8088  -12.2561  -52.4995 H         1 UNK         0.0800 
    135 H135       -2.4347  -12.0741  -50.8857 H         1 UNK         0.0800 
    136 H136       -1.2642  -14.4280  -53.4266 H         1 UNK         0.1150 
    137 H137       -2.2596  -17.9435  -51.1860 H         1 UNK         0.1150 
    138 H138       -2.5338  -14.0802  -49.3478 H         1 UNK         0.1150 
    139 H139       -2.1684  -17.4516  -48.5181 H         1 UNK         0.0800 
    140 H140       -3.0183  -15.9994  -48.0422 H         1 UNK         0.0800 
    141 H141       -5.7950  -18.3181  -47.2138 H         1 UNK         0.0800 
    142 H142       -4.1947  -17.8473  -46.7041 H         1 UNK         0.0800 
    143 H143       -4.8808  -20.3888  -48.2849 H         1 UNK         0.0600 
    144 H144       -2.3663  -19.1735  -47.9426 H         1 UNK         0.3000 
    145 H145       -0.2375  -21.9601  -47.9415 H         1 UNK         0.0600 
    146 H146       -0.9043  -21.8573  -50.3417 H         1 UNK         0.0600 
    147 H147        0.5951  -20.9929  -50.0680 H         1 UNK         0.0600 
    148 H148       -0.9098  -20.0985  -50.2811 H         1 UNK         0.0600 
    149 H149        0.5272  -19.3436  -48.2745 H         1 UNK         0.3000 
    150 H150        1.6632  -18.3747  -46.5151 H         1 UNK         0.0600 
    151 H151       -0.2123  -16.8953  -47.0993 H         1 UNK         0.0600 
    152 H152        0.5456  -16.2775  -45.6473 H         1 UNK         0.0600 
    153 H153       -0.9815  -17.1542  -45.5387 H         1 UNK         0.0600 
    154 H154        0.6044  -18.1198  -43.8155 H         1 UNK         0.3000 
    155 H155        2.1193  -20.6915  -42.3254 H         1 UNK         0.0600 
    156 H156        3.9249  -18.2196  -42.3769 H         1 UNK         0.0600 
    157 H157        4.4278  -19.8767  -42.6702 H         1 UNK         0.0600 
    158 H158        3.8506  -19.4122  -41.0802 H         1 UNK         0.0600 
    159 H159        1.4951  -17.8135  -41.8004 H         1 UNK         0.3000 
    160 H160       -1.7433  -18.6041  -40.6413 H         1 UNK         0.0600 
    161 H161        0.6320  -17.9758  -38.8180 H         1 UNK         0.0600 
    162 H162       -0.6221  -19.1739  -38.5448 H         1 UNK         0.0600 
    163 H163       -1.0282  -17.4640  -38.5080 H         1 UNK         0.0600 
    164 H164       -0.0974  -16.2288  -40.5453 H         1 UNK         0.3000 
    165 H165       -0.2684  -15.1938  -43.6199 H         1 UNK         0.0600 
    166 H166       -2.0883  -13.4549  -43.6171 H         1 UNK         0.0600 
    167 H167       -3.0209  -14.4624  -42.5089 H         1 UNK         0.0600 
    168 H168       -2.6424  -15.0394  -44.1237 H         1 UNK         0.0600 
    169 H169        0.7459  -14.1193  -42.0101 H         1 UNK         0.3000 
    170 H170        0.4532  -11.9134  -40.3960 H         1 UNK         0.0600 
    171 H171       -0.9373  -12.0284  -38.3755 H         1 UNK         0.0600 
    172 H172       -0.1906  -13.5382  -37.8775 H         1 UNK         0.0600 
    173 H173        0.7548  -12.0501  -37.9073 H         1 UNK         0.0600 
    174 H174        2.3826  -12.9766  -40.5504 H         1 UNK         0.3000 
    175 H175        4.1803  -14.5895  -39.3212 H         1 UNK         0.0600 
    176 H176        3.0022  -17.3189  -40.0556 H         1 UNK         0.0600 
    177 H177        4.7252  -16.9913  -39.8729 H         1 UNK         0.0600 
    178 H178        3.6445  -16.8343  -38.4965 H         1 UNK         0.0600 
    179 H179        4.5916  -14.2883  -41.4719 H         1 UNK         0.3000 
    180 H180        4.5257  -14.2060  -43.6087 H         1 UNK         0.0600 
    181 H181        3.1454  -16.5722  -44.9773 H         1 UNK         0.0600 
    182 H182        4.7414  -16.6384  -44.2390 H         1 UNK         0.0600 
    183 H183        4.4623  -15.6005  -45.6274 H         1 UNK         0.0600 
    184 H184        2.3198  -14.2746  -45.3338 H         1 UNK         0.3000 
    185 H185        0.0351  -12.4583  -44.3189 H         1 UNK         0.0600 
    186 H186        0.9471  -10.3289  -43.4794 H         1 UNK         0.0600 
    187 H187        2.0652  -10.2256  -44.8353 H         1 UNK         0.0600 
    188 H188        0.3272  -10.0979  -45.1038 H         1 UNK         0.0600 
    189 H189        1.9297  -12.0988  -46.6053 H         1 UNK         0.3000 
    190 H190       -2.8558  -20.0583  -45.3735 H         1 UNK         0.3000 
    191 H191       -4.9710  -21.2556  -43.6489 H         1 UNK         0.0600 
    192 H192       -3.3980  -20.6513  -41.8131 H         1 UNK         0.0600 
    193 H193       -3.8190  -19.2422  -42.7766 H         1 UNK         0.0600 
    194 H194       -2.2517  -20.0191  -42.9886 H         1 UNK         0.0600 
    195 H195       -1.6553  -21.7776  -44.9036 H         1 UNK         0.3000 
    196 H196       -1.1304  -24.1096  -43.3874 H         1 UNK         0.0600 
    197 H197        0.1945  -23.0953  -45.9536 H         1 UNK         0.0600 
    198 H198        0.6253  -22.6184  -44.3136 H         1 UNK         0.0600 
    199 H199        0.8754  -24.2756  -44.8427 H         1 UNK         0.0600 
    200 H200       -2.5580  -23.7597  -46.6586 H         1 UNK         0.3000 
    201 H201       -3.0948  -26.6740  -46.7679 H         1 UNK         0.0600 
    202 H202       -1.4371  -25.1468  -48.8410 H         1 UNK         0.0600 
    203 H203       -1.9374  -26.8313  -48.9800 H         1 UNK         0.0600 
    204 H204       -0.8006  -26.3598  -47.7326 H         1 UNK         0.0600 
    205 H205       -4.6454  -23.9616  -46.7310 H         1 UNK         0.3000 
    206 H206       -6.4567  -23.0251  -47.6420 H         1 UNK         0.0600 
    207 H207       -7.4349  -25.2636  -47.1120 H         1 UNK         0.0600 
    208 H208       -8.2281  -24.5065  -48.4824 H         1 UNK         0.0600 
    209 H209       -7.0784  -25.8091  -48.7502 H         1 UNK         0.0600 
    210 H210       -4.0988  -22.7193  -49.0892 H         1 UNK         0.3000 
    211 H211       -3.2676  -21.7303  -50.8477 H         1 UNK         0.0600 
    212 H212       -4.5871  -20.7142  -52.6235 H         1 UNK         0.0600 
    213 H213       -5.3904  -20.4427  -51.0879 H         1 UNK         0.0600 
    214 H214       -6.0016  -21.6661  -52.2038 H         1 UNK         0.0600 
    215 H215       -4.2174  -24.8842  -50.8859 H         1 UNK         0.3000 
    216 H216       -3.8535  -25.6121  -53.6157 H         1 UNK         0.0600 
    217 H217       -3.3818  -27.3306  -51.1267 H         1 UNK         0.0600 
    218 H218       -3.6914  -27.9007  -52.7587 H         1 UNK         0.0600 
    219 H219       -4.9561  -27.0583  -51.8752 H         1 UNK         0.0600 
    220 H220       -1.5438  -25.0255  -51.0127 H         1 UNK         0.3000 
    221 H221        0.7991  -26.0917  -52.2812 H         1 UNK         0.0600 
    222 H222        0.7468  -25.6796  -49.8610 H         1 UNK         0.0600 
    223 H223        0.4599  -23.9547  -50.1076 H         1 UNK         0.0600 
    224 H224        1.9943  -24.6761  -50.5726 H         1 UNK         0.0600 
    225 H225       -1.0371  -23.1976  -52.8477 H         1 UNK         0.3000 
    226 H226        1.1002  -21.9563  -54.5139 H         1 UNK         0.0600 
    227 H227       -1.5463  -20.8077  -53.4788 H         1 UNK         0.0600 
    228 H228        0.0409  -20.5011  -52.7730 H         1 UNK         0.0600 
    229 H229       -0.3143  -19.9496  -54.3987 H         1 UNK         0.0600 
    230 H230       -0.9735  -24.3516  -54.9278 H         1 UNK         0.3000 
    231 H231       -2.0913  -25.3310  -56.5332 H         1 UNK         0.0600 
    232 H232       -0.7812  -23.3696  -58.4861 H         1 UNK         0.0600 
    233 H233       -1.4761  -24.9356  -58.8781 H         1 UNK         0.0600 
    234 H234       -0.0354  -24.8480  -57.8797 H         1 UNK         0.0600 
    235 H235       -3.4472  -23.3064  -55.0765 H         1 UNK         0.3000 
    236 H236       -5.3924  -22.2987  -54.8840 H         1 UNK         0.0600 
    237 H237       -6.3813  -24.3489  -55.8781 H         1 UNK         0.0600 
    238 H238       -7.3024  -22.9198  -56.3199 H         1 UNK         0.0600 
    239 H239       -6.2318  -23.6655  -57.4960 H         1 UNK         0.0600 
    240 H240       -3.7524  -20.5415  -55.2865 H         1 UNK         0.3000 
    241 H241       -3.6271  -19.1197  -57.6953 H         1 UNK         0.0600 
    242 H242       -6.3393  -18.9566  -55.5123 H         1 UNK         0.3800 
    243 H243       -6.9864  -17.4722  -56.1602 H         1 UNK         0.3800 
    244 H244       -1.8413  -19.0029  -56.0509 H         1 UNK         0.0800 
    245 H245       -2.4121  -17.3976  -56.4037 H         1 UNK         0.0800 
    246 H246       -0.6761  -17.8295  -53.4680 H         1 UNK         0.0800 
    247 H247       -1.1659  -16.5135  -54.5100 H         1 UNK         0.0800 
@<TRIPOS>BOND
     1    1    2 1    
     2    1  127 1    
     3    1  128 1    
     4    1  129 1    
     5    2    3 2    
     6    2    4 am   BACKBONE|DICT|INTERRES
     7    4    5 1    
     8    4  130 1    
     9    5    6 1    
    10    5   65 1    
    11    5  131 1    
    12    6    7 1    
    13    6  132 1    
    14    6  133 1    
    15    7    8 1    
    16    8    9 1    
    17    8  134 1    
    18    8  135 1    
    19    9   10 ar   
    20    9   14 ar   
    21   10   11 ar   
    22   10  136 1    
    23   11   12 ar   
    24   11  126 1    
    25   12   13 ar   
    26   12  137 1    
    27   13   14 ar   
    28   13   15 1    
    29   14  138 1    
    30   15   16 1    
    31   15  139 1    
    32   15  140 1    
    33   16   17 1    
    34   17   18 1    
    35   17  141 1    
    36   17  142 1    
    37   18   19 1    
    38   18   67 1    
    39   18  143 1    
    40   19   20 am   BACKBONE|DICT|INTERRES
    41   19  144 1    
    42   20   21 2    
    43   20   22 1    
    44   22   23 1    
    45   22   24 1    
    46   22  145 1    
    47   23  146 1    
    48   23  147 1    
    49   23  148 1    
    50   24   25 am   BACKBONE|DICT|INTERRES
    51   24  149 1    
    52   25   26 2    
    53   25   27 1    
    54   27   28 1    
    55   27   29 1    
    56   27  150 1    
    57   28  151 1    
    58   28  152 1    
    59   28  153 1    
    60   29   30 am   BACKBONE|DICT|INTERRES
    61   29  154 1    
    62   30   31 2    
    63   30   32 1    
    64   32   33 1    
    65   32   34 1    
    66   32  155 1    
    67   33  156 1    
    68   33  157 1    
    69   33  158 1    
    70   34   35 am   BACKBONE|DICT|INTERRES
    71   34  159 1    
    72   35   36 2    
    73   35   37 1    
    74   37   38 1    
    75   37   39 1    
    76   37  160 1    
    77   38  161 1    
    78   38  162 1    
    79   38  163 1    
    80   39   40 am   BACKBONE|DICT|INTERRES
    81   39  164 1    
    82   40   41 2    
    83   40   42 1    
    84   42   43 1    
    85   42   44 1    
    86   42  165 1    
    87   43  166 1    
    88   43  167 1    
    89   43  168 1    
    90   44   45 am   BACKBONE|DICT|INTERRES
    91   44  169 1    
    92   45   46 2    
    93   45   47 1    
    94   47   48 1    
    95   47   49 1    
    96   47  170 1    
    97   48  171 1    
    98   48  172 1    
    99   48  173 1    
   100   49   50 am   BACKBONE|DICT|INTERRES
   101   49  174 1    
   102   50   51 2    
   103   50   52 1    
   104   52   53 1    
   105   52   54 1    
   106   52  175 1    
   107   53  176 1    
   108   53  177 1    
   109   53  178 1    
   110   54   55 am   BACKBONE|DICT|INTERRES
   111   54  179 1    
   112   55   56 2    
   113   55   57 1    
   114   57   58 1    
   115   57   59 1    
   116   57  180 1    
   117   58  181 1    
   118   58  182 1    
   119   58  183 1    
   120   59   60 am   BACKBONE|DICT|INTERRES
   121   59  184 1    
   122   60   61 2    
   123   60   62 1    
   124   62   63 1    
   125   62   64 1    
   126   62  185 1    
   127   63  186 1    
   128   63  187 1    
   129   63  188 1    
   130   64   65 am   BACKBONE|DICT|INTERRES
   131   64  189 1    
   132   65   66 2    
   133   67   68 2    
   134   67   69 am   BACKBONE|DICT|INTERRES
   135   69   70 1    
   136   69  190 1    
   137   70   71 1    
   138   70   72 1    
   139   70  191 1    
   140   71  192 1    
   141   71  193 1    
   142   71  194 1    
   143   72   73 2    
   144   72   74 am   BACKBONE|DICT|INTERRES
   145   74   75 1    
   146   74  195 1    
   147   75   76 1    
   148   75   77 1    
   149   75  196 1    
   150   76  197 1    
   151   76  198 1    
   152   76  199 1    
   153   77   78 2    
   154   77   79 am   BACKBONE|DICT|INTERRES
   155   79   80 1    
   156   79  200 1    
   157   80   81 1    
   158   80   82 1    
   159   80  201 1    
   160   81  202 1    
   161   81  203 1    
   162   81  204 1    
   163   82   83 2    
   164   82   84 am   BACKBONE|DICT|INTERRES
   165   84   85 1    
   166   84  205 1    
   167   85   86 1    
   168   85   87 1    
   169   85  206 1    
   170   86  207 1    
   171   86  208 1    
   172   86  209 1    
   173   87   88 2    
   174   87   89 am   BACKBONE|DICT|INTERRES
   175   89   90 1    
   176   89  210 1    
   177   90   91 1    
   178   90   92 1    
   179   90  211 1    
   180   91  212 1    
   181   91  213 1    
   182   91  214 1    
   183   92   93 2    
   184   92   94 am   BACKBONE|DICT|INTERRES
   185   94   95 1    
   186   94  215 1    
   187   95   96 1    
   188   95   97 1    
   189   95  216 1    
   190   96  217 1    
   191   96  218 1    
   192   96  219 1    
   193   97   98 2    
   194   97   99 am   BACKBONE|DICT|INTERRES
   195   99  100 1    
   196   99  220 1    
   197  100  101 1    
   198  100  102 1    
   199  100  221 1    
   200  101  222 1    
   201  101  223 1    
   202  101  224 1    
   203  102  103 2    
   204  102  104 am   BACKBONE|DICT|INTERRES
   205  104  105 1    
   206  104  225 1    
   207  105  106 1    
   208  105  107 1    
   209  105  226 1    
   210  106  227 1    
   211  106  228 1    
   212  106  229 1    
   213  107  108 2    
   214  107  109 am   BACKBONE|DICT|INTERRES
   215  109  110 1    
   216  109  230 1    
   217  110  111 1    
   218  110  112 1    
   219  110  231 1    
   220  111  232 1    
   221  111  233 1    
   222  111  234 1    
   223  112  113 2    
   224  112  114 am   BACKBONE|DICT|INTERRES
   225  114  115 1    
   226  114  235 1    
   227  115  116 1    
   228  115  117 1    
   229  115  236 1    
   230  116  237 1    
   231  116  238 1    
   232  116  239 1    
   233  117  118 2    
   234  117  119 am   BACKBONE|DICT|INTERRES
   235  119  120 1    
   236  119  240 1    
   237  120  121 1    
   238  120  124 1    
   239  120  241 1    
   240  121  122 am   BACKBONE|DICT|INTERRES
   241  121  123 2    
   242  122  242 1    
   243  122  243 1    
   244  124  125 1    
   245  124  244 1    
   246  124  245 1    
   247  125  126 1    
   248  126  246 1    
   249  126  247 1    
@<TRIPOS>SUBSTRUCTURE
     1 UNK         1 GROUP             0       ****    0 ROOT    
