@<TRIPOS>MOLECULE
3R540
247   249    1
SMALL
USER_CHARGES


@<TRIPOS>ATOM
      1 CA         -3.9211  -16.5102  -46.1123 C.3       0 UNK        -0.1800 
      2 C          -2.7602  -15.6260  -46.5480 C.2       0 UNK         0.5000 
      3 O          -1.8222  -15.4372  -45.7760 O.2       0 UNK        -0.5000 
      4 N          -2.8398  -15.0842  -47.7716 N.am      1 UNK        -0.5000 
      5 CA         -1.8938  -14.1738  -48.4329 C.3       1 UNK         0.1400 
      6 C6         -0.7459  -14.8935  -49.2033 C.3       23 UNK        -0.0398 
      7 S7          0.4779  -15.8280  -48.2158 S.3       23 UNK        -0.2404 
      8 C8          1.7953  -16.1057  -49.4428 C.3       23 UNK        -0.0205 
      9 C9          1.7760  -17.5228  -49.9983 C.ar      23 UNK        -0.0193 
     10 C10         0.8028  -17.9072  -50.9255 C.ar      23 UNK        -0.1150 
     11 C11         0.8012  -19.1989  -51.4600 C.ar      23 UNK        -0.0193 
     12 C12         1.7906  -20.1050  -51.0693 C.ar      23 UNK        -0.1150 
     13 C13         2.7811  -19.7293  -50.1588 C.ar      23 UNK        -0.0193 
     14 C14         2.7598  -18.4407  -49.6158 C.ar      23 UNK        -0.1150 
     15 C15         3.9013  -20.6985  -49.8006 C.3       23 UNK        -0.0205 
     16 S16         3.3007  -22.2464  -49.0517 S.3       23 UNK        -0.2404 
     17 C17         2.6040  -21.6286  -47.4859 C.3       23 UNK        -0.0398 
     18 CA          1.2598  -22.2897  -47.1049 C.3       11 UNK         0.1400 
     19 N           0.9125  -21.9952  -45.7132 N.am      11 UNK        -0.5000 
     20 C          -0.0716  -22.5848  -45.0226 C.2       10 UNK         0.5000 
     21 O          -0.7723  -23.4913  -45.4711 O.2       10 UNK        -0.5000 
     22 CA         -0.3433  -22.0426  -43.6067 C.3       10 UNK         0.1400 
     23 CB          0.6289  -22.6614  -42.5917 C.3       10 UNK        -0.1800 
     24 N          -0.2626  -20.5824  -43.5385 N.am      10 UNK        -0.5000 
     25 C          -1.0915  -19.7481  -44.1820 C.2       9 UNK         0.5000 
     26 O          -2.0562  -20.1253  -44.8450 O.2       9 UNK        -0.5000 
     27 CA         -0.7596  -18.2470  -44.1304 C.3       9 UNK         0.1400 
     28 CB         -1.2780  -17.6013  -42.8381 C.3       9 UNK        -0.1800 
     29 N           0.6669  -17.9712  -44.2859 N.am      9 UNK        -0.5000 
     30 C           1.3821  -18.2776  -45.3772 C.2       8 UNK         0.5000 
     31 O           0.9117  -18.8213  -46.3739 O.2       8 UNK        -0.5000 
     32 CA          2.8922  -17.9996  -45.3115 C.3       8 UNK         0.1400 
     33 CB          3.1968  -16.5168  -45.5673 C.3       8 UNK        -0.1800 
     34 N           3.4492  -18.4028  -44.0213 N.am      8 UNK        -0.5000 
     35 C           3.5698  -19.6755  -43.6181 C.2       7 UNK         0.5000 
     36 O           3.2661  -20.6452  -44.3132 O.2       7 UNK        -0.5000 
     37 CA          4.0747  -19.8961  -42.1807 C.3       7 UNK         0.1400 
     38 CB          5.6078  -19.8219  -42.1257 C.3       7 UNK        -0.1800 
     39 N           3.5058  -18.9353  -41.2333 N.am      7 UNK        -0.5000 
     40 C           2.2101  -18.8912  -40.8929 C.2       6 UNK         0.5000 
     41 O           1.3653  -19.6764  -41.3209 O.2       6 UNK        -0.5000 
     42 CA          1.7765  -17.7563  -39.9471 C.3       6 UNK         0.1400 
     43 CB          1.9676  -18.1736  -38.4815 C.3       6 UNK        -0.1800 
     44 N           2.4661  -16.4845  -40.1833 N.am      6 UNK        -0.5000 
     45 C           2.4354  -15.7979  -41.3324 C.2       5 UNK         0.5000 
     46 O           1.8749  -16.1949  -42.3553 O.2       5 UNK        -0.5000 
     47 CA          3.1172  -14.4218  -41.3295 C.3       5 UNK         0.1400 
     48 CB          3.9645  -14.1994  -42.5927 C.3       5 UNK        -0.1800 
     49 N           2.0882  -13.3915  -41.2555 N.am      5 UNK        -0.5000 
     50 C           1.4960  -12.9862  -40.1252 C.2       4 UNK         0.5000 
     51 O           1.8384  -13.3566  -39.0014 O.2       4 UNK        -0.5000 
     52 CA          0.3132  -12.0135  -40.2797 C.3       4 UNK         0.1400 
     53 CB          0.8057  -10.5585  -40.2711 C.3       4 UNK        -0.1800 
     54 N          -0.4603  -12.2485  -41.5001 N.am      4 UNK        -0.5000 
     55 C          -1.2628  -13.2966  -41.7192 C.2       3 UNK         0.5000 
     56 O          -1.4411  -14.1974  -40.8991 O.2       3 UNK        -0.5000 
     57 CA         -2.0004  -13.3518  -43.0722 C.3       3 UNK         0.1400 
     58 CB         -3.2264  -12.4202  -43.0769 C.3       3 UNK        -0.1800 
     59 N          -1.1614  -13.1266  -44.2563 N.am      3 UNK        -0.5000 
     60 C          -0.4911  -12.0293  -44.6394 C.2       2 UNK         0.5000 
     61 O          -0.4434  -10.9872  -43.9843 O.2       2 UNK        -0.5000 
     62 CA          0.2724  -12.1062  -45.9764 C.3       2 UNK         0.1400 
     63 CB          1.7458  -12.4611  -45.7230 C.3       2 UNK        -0.1800 
     64 N          -0.2849  -13.0784  -46.9165 N.am      2 UNK        -0.5000 
     65 C          -1.4633  -12.9810  -47.5433 C.2       1 UNK         0.5000 
     66 O          -2.2126  -12.0085  -47.4357 O.2       1 UNK        -0.5000 
     67 C           0.1090  -21.9275  -48.0723 C.2       11 UNK         0.5000 
     68 O          -0.2443  -22.7391  -48.9288 O.2       11 UNK        -0.5000 
     69 N          -0.5016  -20.7503  -47.8798 N.am      12 UNK        -0.5000 
     70 CA         -1.6879  -20.3088  -48.6111 C.3       12 UNK         0.1400 
     71 CB         -1.9741  -18.8360  -48.2971 C.3       12 UNK        -0.1800 
     72 C          -2.9206  -21.1845  -48.3256 C.2       12 UNK         0.5000 
     73 O          -3.6439  -21.5264  -49.2593 O.2       12 UNK        -0.5000 
     74 N          -3.1247  -21.5750  -47.0595 N.am      13 UNK        -0.5000 
     75 CA         -4.1869  -22.4935  -46.6447 C.3       13 UNK         0.1400 
     76 CB         -4.2336  -22.5960  -45.1137 C.3       13 UNK        -0.1800 
     77 C          -4.0538  -23.8862  -47.2891 C.2       13 UNK         0.5000 
     78 O          -5.0541  -24.4369  -47.7521 O.2       13 UNK        -0.5000 
     79 N          -2.8174  -24.4009  -47.3591 N.am      14 UNK        -0.5000 
     80 CA         -2.4682  -25.6461  -48.0459 C.3       14 UNK         0.1400 
     81 CB         -1.0103  -26.0158  -47.7346 C.3       14 UNK        -0.1800 
     82 C          -2.7090  -25.5896  -49.5677 C.2       14 UNK         0.5000 
     83 O          -3.0644  -26.6094  -50.1600 O.2       14 UNK        -0.5000 
     84 N          -2.5794  -24.3988  -50.1697 N.am      15 UNK        -0.5000 
     85 CA         -2.9116  -24.0999  -51.5651 C.3       15 UNK         0.1400 
     86 CB         -2.1086  -22.8694  -52.0195 C.3       15 UNK        -0.1800 
     87 C          -4.4347  -23.9368  -51.7754 C.2       15 UNK         0.5000 
     88 O          -4.8898  -22.9149  -52.2975 O.2       15 UNK        -0.5000 
     89 N          -5.1836  -24.9674  -51.3572 N.am      16 UNK        -0.5000 
     90 CA         -6.6310  -25.1549  -51.4781 C.3       16 UNK         0.1400 
     91 CB         -6.9996  -25.4798  -52.9397 C.3       16 UNK        -0.1800 
     92 C          -7.4597  -24.0007  -50.8775 C.2       16 UNK         0.5000 
     93 O          -8.3940  -23.5161  -51.5168 O.2       16 UNK        -0.5000 
     94 N          -7.1016  -23.5917  -49.6508 N.am      17 UNK        -0.5000 
     95 CA         -7.7162  -22.5087  -48.8756 C.3       17 UNK         0.1400 
     96 CB         -9.1717  -22.8543  -48.4938 C.3       17 UNK        -0.1800 
     97 C          -7.5709  -21.1377  -49.5677 C.2       17 UNK         0.5000 
     98 O          -8.5563  -20.4152  -49.7298 O.2       17 UNK        -0.5000 
     99 N          -6.3292  -20.8158  -49.9590 N.am      18 UNK        -0.5000 
    100 CA        -5.8976  -19.5918  -50.6369 C.3       18 UNK         0.1400 
    101 CB        -6.0513  -18.3651  -49.7133 C.3       18 UNK        -0.1800 
    102 C         -6.5525  -19.4144  -52.0208 C.2       18 UNK         0.5000 
    103 O         -7.0213  -18.3249  -52.3551 O.2       18 UNK        -0.5000 
    104 N         -6.5460  -20.4924  -52.8173 N.am      19 UNK        -0.5000 
    105 CA        -7.0490  -20.5108  -54.1952 C.3       19 UNK         0.1400 
    106 CB        -7.4178  -21.9540  -54.5684 C.3       19 UNK        -0.1800 
    107 C         -6.0394  -19.9486  -55.2171 C.2       19 UNK         0.5000 
    108 O         -6.3668  -19.8701  -56.4016 O.2       19 UNK        -0.5000 
    109 N         -4.8264  -19.6109  -54.7519 N.am      20 UNK        -0.5000 
    110 CA        -3.6528  -19.1976  -55.5293 C.3       20 UNK         0.1400 
    111 CB        -3.9185  -17.9078  -56.3332 C.3       20 UNK        -0.1800 
    112 C         -3.0783  -20.3440  -56.3875 C.2       20 UNK         0.5000 
    113 O         -2.4391  -20.0937  -57.4112 O.2       20 UNK        -0.5000 
    114 N         -3.2639  -21.5899  -55.9203 N.am      21 UNK        -0.5000 
    115 CA        -2.7320  -22.8184  -56.5244 C.3       21 UNK         0.1400 
    116 CB        -3.3453  -24.0334  -55.8095 C.3       21 UNK        -0.1800 
    117 C         -1.1887  -22.8927  -56.5207 C.2       21 UNK         0.5000 
    118 O         -0.6131  -23.6828  -57.2693 O.2       21 UNK        -0.5000 
    119 N         -0.5552  -22.0424  -55.7039 N.am      22 UNK        -0.5000 
    120 CA         0.8760  -21.7168  -55.7265 C.3       22 UNK         0.1400 
    121 C          1.3683  -20.9942  -57.0185 C.2       22 UNK         0.5000 
    122 N          0.4978  -20.4283  -57.8482 N.am      22 UNK        -0.7600 
    123 O          2.5682  -20.9575  -57.2774 O.2       22 UNK        -0.5000 
    124 C124        1.2825  -20.9315  -54.4516 C.3       23 UNK        -0.0398 
    125 S125        0.2947  -19.4095  -54.1776 S.3       23 UNK        -0.2404 
    126 C126       -0.2681  -19.6123  -52.4584 C.3       23 UNK        -0.0205 
    127 H127       -4.6016  -16.7223  -46.9371 H         1 UNK         0.0600 
    128 H128       -4.4854  -16.0187  -45.3201 H         1 UNK         0.0600 
    129 H129       -3.5537  -17.4604  -45.7258 H         1 UNK         0.0600 
    130 H130       -3.6679  -15.2790  -48.3154 H         1 UNK         0.3000 
    131 H131       -2.4988  -13.7083  -49.2130 H         1 UNK         0.0600 
    132 H132       -1.1860  -15.5900  -49.9174 H         1 UNK         0.0800 
    133 H133       -0.2118  -14.1578  -49.8065 H         1 UNK         0.0800 
    134 H134        1.7150  -15.3927  -50.2640 H         1 UNK         0.0800 
    135 H135        2.7561  -15.9011  -48.9693 H         1 UNK         0.0800 
    136 H136        0.0474  -17.1988  -51.2329 H         1 UNK         0.1150 
    137 H137        1.8003  -21.1051  -51.4765 H         1 UNK         0.1150 
    138 H138        3.5228  -18.1431  -48.9107 H         1 UNK         0.1150 
    139 H139        4.4544  -20.9418  -50.7087 H         1 UNK         0.0800 
    140 H140        4.6182  -20.2326  -49.1226 H         1 UNK         0.0800 
    141 H141        2.5006  -20.5445  -47.5195 H         1 UNK         0.0800 
    142 H142        3.3461  -21.8321  -46.7132 H         1 UNK         0.0800 
    143 H143        1.3972  -23.3716  -47.1661 H         1 UNK         0.0600 
    144 H144        1.4610  -21.2760  -45.2558 H         1 UNK         0.3000 
    145 H145       -1.3570  -22.3351  -43.3266 H         1 UNK         0.0600 
    146 H146        0.3879  -22.3489  -41.5755 H         1 UNK         0.0600 
    147 H147        0.5803  -23.7507  -42.6174 H         1 UNK         0.0600 
    148 H148        1.6608  -22.3725  -42.7936 H         1 UNK         0.0600 
    149 H149        0.4719  -20.1921  -42.9546 H         1 UNK         0.3000 
    150 H150       -1.2680  -17.7821  -44.9734 H         1 UNK         0.0600 
    151 H151       -2.3573  -17.7274  -42.7462 H         1 UNK         0.0600 
    152 H152       -1.0721  -16.5308  -42.8245 H         1 UNK         0.0600 
    153 H153       -0.8174  -18.0422  -41.9546 H         1 UNK         0.0600 
    154 H154        1.1266  -17.4823  -43.5222 H         1 UNK         0.3000 
    155 H155        3.3818  -18.5858  -46.0921 H         1 UNK         0.0600 
    156 H156        2.6267  -15.8679  -44.9038 H         1 UNK         0.0600 
    157 H157        4.2555  -16.2959  -45.4321 H         1 UNK         0.0600 
    158 H158        2.9372  -16.2417  -46.5882 H         1 UNK         0.0600 
    159 H159        3.6559  -17.6640  -43.3660 H         1 UNK         0.3000 
    160 H160        3.7705  -20.8986  -41.8721 H         1 UNK         0.0600 
    161 H161        5.9752  -18.8319  -42.3989 H         1 UNK         0.0600 
    162 H162        6.0574  -20.5402  -42.8127 H         1 UNK         0.0600 
    163 H163        5.9779  -20.0539  -41.1269 H         1 UNK         0.0600 
    164 H164        4.1337  -18.2528  -40.8349 H         1 UNK         0.3000 
    165 H165        0.7114  -17.5832  -40.1123 H         1 UNK         0.0600 
    166 H166        1.5689  -17.4204  -37.8016 H         1 UNK         0.0600 
    167 H167        1.4460  -19.1082  -38.2703 H         1 UNK         0.0600 
    168 H168        3.0204  -18.3228  -38.2386 H         1 UNK         0.0600 
    169 H169        2.9199  -16.0668  -39.3832 H         1 UNK         0.3000 
    170 H170        3.7795  -14.3499  -40.4640 H         1 UNK         0.0600 
    171 H171        3.3507  -14.1607  -43.4917 H         1 UNK         0.0600 
    172 H172        4.5180  -13.2623  -42.5314 H         1 UNK         0.0600 
    173 H173        4.6933  -15.0002  -42.7235 H         1 UNK         0.0600 
    174 H174        1.7065  -13.0715  -42.1327 H         1 UNK         0.3000 
    175 H175       -0.3484  -12.1561  -39.4228 H         1 UNK         0.0600 
    176 H176       -0.0304   -9.8597  -40.3037 H         1 UNK         0.0600 
    177 H177        1.4523  -10.3474  -41.1238 H         1 UNK         0.0600 
    178 H178        1.3739  -10.3431  -39.3651 H         1 UNK         0.0600 
    179 H179       -0.3768  -11.5632  -42.2479 H         1 UNK         0.3000 
    180 H180       -2.3732  -14.3718  -43.1774 H         1 UNK         0.0600 
    181 H181       -2.9437  -11.3717  -42.9792 H         1 UNK         0.0600 
    182 H182       -3.8967  -12.6554  -42.2493 H         1 UNK         0.0600 
    183 H183       -3.7973  -12.5286  -43.9992 H         1 UNK         0.0600 
    184 H184       -1.1380  -13.9245  -44.8888 H         1 UNK         0.3000 
    185 H185        0.2281  -11.1187  -46.4400 H         1 UNK         0.0600 
    186 H186        2.2077  -11.7568  -45.0297 H         1 UNK         0.0600 
    187 H187        1.8476  -13.4594  -45.2964 H         1 UNK         0.0600 
    188 H188        2.3230  -12.4324  -46.6474 H         1 UNK         0.0600 
    189 H189        0.2320  -13.9406  -47.0388 H         1 UNK         0.3000 
    190 H190       -0.1143  -20.1006  -47.1979 H         1 UNK         0.3000 
    191 H191       -1.4688  -20.3877  -49.6776 H         1 UNK         0.0600 
    192 H192       -1.1493  -18.2052  -48.6244 H         1 UNK         0.0600 
    193 H193       -2.8732  -18.4879  -48.8065 H         1 UNK         0.0600 
    194 H194       -2.1106  -18.6753  -47.2285 H         1 UNK         0.0600 
    195 H195       -2.5317  -21.1985  -46.3241 H         1 UNK         0.3000 
    196 H196       -5.1309  -22.0609  -46.9762 H         1 UNK         0.0600 
    197 H197       -5.0452  -23.2495  -44.7917 H         1 UNK         0.0600 
    198 H198       -4.4025  -21.6201  -44.6582 H         1 UNK         0.0600 
    199 H199       -3.3073  -22.9999  -44.7069 H         1 UNK         0.0600 
    200 H200       -2.0563  -23.9043  -46.9046 H         1 UNK         0.3000 
    201 H201       -3.1087  -26.4337  -47.6439 H         1 UNK         0.0600 
    202 H202       -0.8527  -26.1276  -46.6618 H         1 UNK         0.0600 
    203 H203       -0.3150  -25.2590  -48.0970 H         1 UNK         0.0600 
    204 H204       -0.7388  -26.9621  -48.2039 H         1 UNK         0.0600 
    205 H205       -2.2828  -23.6115  -49.6063 H         1 UNK         0.3000 
    206 H206       -2.5940  -24.9409  -52.1846 H         1 UNK         0.0600 
    207 H207       -1.0391  -23.0259  -51.8765 H         1 UNK         0.0600 
    208 H208       -2.2677  -22.6581  -53.0762 H         1 UNK         0.0600 
    209 H209       -2.3936  -21.9767  -51.4651 H         1 UNK         0.0600 
    210 H210       -4.6815  -25.7347  -50.9217 H         1 UNK         0.3000 
    211 H211       -6.8742  -26.0345  -50.8804 H         1 UNK         0.0600 
    212 H212       -6.7531  -24.6586  -53.6099 H         1 UNK         0.0600 
    213 H213       -8.0662  -25.6823  -53.0434 H         1 UNK         0.0600 
    214 H214       -6.4680  -26.3643  -53.2903 H         1 UNK         0.0600 
    215 H215       -6.3135  -24.0471  -49.1981 H         1 UNK         0.3000 
    216 H216       -7.1552  -22.4418  -47.9446 H         1 UNK         0.0600 
    217 H217       -9.5817  -22.1077  -47.8127 H         1 UNK         0.0600 
    218 H218       -9.2276  -23.8185  -47.9887 H         1 UNK         0.0600 
    219 H219       -9.8263  -22.8930  -49.3647 H         1 UNK         0.0600 
    220 H220       -5.5755  -21.4729  -49.7815 H         1 UNK         0.3000 
    221 H221       -4.8313  -19.7144  -50.8305 H         1 UNK         0.0600 
    222 H222       -7.0977  -18.1395  -49.5066 H         1 UNK         0.0600 
    223 H223       -5.5477  -18.5263  -48.7601 H         1 UNK         0.0600 
    224 H224       -5.6092  -17.4775  -50.1672 H         1 UNK         0.0600 
    225 H225       -6.1242  -21.3545  -52.4804 H         1 UNK         0.3000 
    226 H226       -7.9531  -19.9014  -54.2536 H         1 UNK         0.0600 
    227 H227       -8.1432  -22.3708  -53.8711 H         1 UNK         0.0600 
    228 H228       -7.8639  -22.0028  -55.5624 H         1 UNK         0.0600 
    229 H229       -6.5381  -22.5974  -54.5731 H         1 UNK         0.0600 
    230 H230       -4.6775  -19.7199  -53.7595 H         1 UNK         0.3000 
    231 H231       -2.8796  -18.9632  -54.7964 H         1 UNK         0.0600 
    232 H232       -4.6030  -18.0772  -57.1644 H         1 UNK         0.0600 
    233 H233       -2.9919  -17.5146  -56.7529 H         1 UNK         0.0600 
    234 H234       -4.3430  -17.1285  -55.7003 H         1 UNK         0.0600 
    235 H235       -3.8073  -21.7053  -55.0775 H         1 UNK         0.3000 
    236 H236       -3.0526  -22.8390  -57.5679 H         1 UNK         0.0600 
    237 H237       -4.4346  -24.0084  -55.8495 H         1 UNK         0.0600 
    238 H238       -3.0258  -24.9639  -56.2803 H         1 UNK         0.0600 
    239 H239       -3.0499  -24.0809  -54.7622 H         1 UNK         0.0600 
    240 H240       -1.1214  -21.4296  -55.1383 H         1 UNK         0.3000 
    241 H241        1.4119  -22.6675  -55.7036 H         1 UNK         0.0600 
    242 H242       -0.4966  -20.4182  -57.6463 H         1 UNK         0.3800 
    243 H243        0.8370  -19.9715  -58.6796 H         1 UNK         0.3800 
    244 H244        1.1692  -21.5945  -53.5947 H         1 UNK         0.0800 
    245 H245        2.3404  -20.6641  -54.4748 H         1 UNK         0.0800 
    246 H246       -1.1666  -19.0116  -52.3096 H         1 UNK         0.0800 
    247 H247       -0.5621  -20.6446  -52.2816 H         1 UNK         0.0800 
@<TRIPOS>BOND
     1    1    2 1    
     2    1  127 1    
     3    1  128 1    
     4    1  129 1    
     5    2    3 2    
     6    2    4 am   BACKBONE|DICT|INTERRES
     7    4    5 1    
     8    4  130 1    
     9    5    6 1    
    10    5   65 1    
    11    5  131 1    
    12    6    7 1    
    13    6  132 1    
    14    6  133 1    
    15    7    8 1    
    16    8    9 1    
    17    8  134 1    
    18    8  135 1    
    19    9   10 ar   
    20    9   14 ar   
    21   10   11 ar   
    22   10  136 1    
    23   11   12 ar   
    24   11  126 1    
    25   12   13 ar   
    26   12  137 1    
    27   13   14 ar   
    28   13   15 1    
    29   14  138 1    
    30   15   16 1    
    31   15  139 1    
    32   15  140 1    
    33   16   17 1    
    34   17   18 1    
    35   17  141 1    
    36   17  142 1    
    37   18   19 1    
    38   18   67 1    
    39   18  143 1    
    40   19   20 am   BACKBONE|DICT|INTERRES
    41   19  144 1    
    42   20   21 2    
    43   20   22 1    
    44   22   23 1    
    45   22   24 1    
    46   22  145 1    
    47   23  146 1    
    48   23  147 1    
    49   23  148 1    
    50   24   25 am   BACKBONE|DICT|INTERRES
    51   24  149 1    
    52   25   26 2    
    53   25   27 1    
    54   27   28 1    
    55   27   29 1    
    56   27  150 1    
    57   28  151 1    
    58   28  152 1    
    59   28  153 1    
    60   29   30 am   BACKBONE|DICT|INTERRES
    61   29  154 1    
    62   30   31 2    
    63   30   32 1    
    64   32   33 1    
    65   32   34 1    
    66   32  155 1    
    67   33  156 1    
    68   33  157 1    
    69   33  158 1    
    70   34   35 am   BACKBONE|DICT|INTERRES
    71   34  159 1    
    72   35   36 2    
    73   35   37 1    
    74   37   38 1    
    75   37   39 1    
    76   37  160 1    
    77   38  161 1    
    78   38  162 1    
    79   38  163 1    
    80   39   40 am   BACKBONE|DICT|INTERRES
    81   39  164 1    
    82   40   41 2    
    83   40   42 1    
    84   42   43 1    
    85   42   44 1    
    86   42  165 1    
    87   43  166 1    
    88   43  167 1    
    89   43  168 1    
    90   44   45 am   BACKBONE|DICT|INTERRES
    91   44  169 1    
    92   45   46 2    
    93   45   47 1    
    94   47   48 1    
    95   47   49 1    
    96   47  170 1    
    97   48  171 1    
    98   48  172 1    
    99   48  173 1    
   100   49   50 am   BACKBONE|DICT|INTERRES
   101   49  174 1    
   102   50   51 2    
   103   50   52 1    
   104   52   53 1    
   105   52   54 1    
   106   52  175 1    
   107   53  176 1    
   108   53  177 1    
   109   53  178 1    
   110   54   55 am   BACKBONE|DICT|INTERRES
   111   54  179 1    
   112   55   56 2    
   113   55   57 1    
   114   57   58 1    
   115   57   59 1    
   116   57  180 1    
   117   58  181 1    
   118   58  182 1    
   119   58  183 1    
   120   59   60 am   BACKBONE|DICT|INTERRES
   121   59  184 1    
   122   60   61 2    
   123   60   62 1    
   124   62   63 1    
   125   62   64 1    
   126   62  185 1    
   127   63  186 1    
   128   63  187 1    
   129   63  188 1    
   130   64   65 am   BACKBONE|DICT|INTERRES
   131   64  189 1    
   132   65   66 2    
   133   67   68 2    
   134   67   69 am   BACKBONE|DICT|INTERRES
   135   69   70 1    
   136   69  190 1    
   137   70   71 1    
   138   70   72 1    
   139   70  191 1    
   140   71  192 1    
   141   71  193 1    
   142   71  194 1    
   143   72   73 2    
   144   72   74 am   BACKBONE|DICT|INTERRES
   145   74   75 1    
   146   74  195 1    
   147   75   76 1    
   148   75   77 1    
   149   75  196 1    
   150   76  197 1    
   151   76  198 1    
   152   76  199 1    
   153   77   78 2    
   154   77   79 am   BACKBONE|DICT|INTERRES
   155   79   80 1    
   156   79  200 1    
   157   80   81 1    
   158   80   82 1    
   159   80  201 1    
   160   81  202 1    
   161   81  203 1    
   162   81  204 1    
   163   82   83 2    
   164   82   84 am   BACKBONE|DICT|INTERRES
   165   84   85 1    
   166   84  205 1    
   167   85   86 1    
   168   85   87 1    
   169   85  206 1    
   170   86  207 1    
   171   86  208 1    
   172   86  209 1    
   173   87   88 2    
   174   87   89 am   BACKBONE|DICT|INTERRES
   175   89   90 1    
   176   89  210 1    
   177   90   91 1    
   178   90   92 1    
   179   90  211 1    
   180   91  212 1    
   181   91  213 1    
   182   91  214 1    
   183   92   93 2    
   184   92   94 am   BACKBONE|DICT|INTERRES
   185   94   95 1    
   186   94  215 1    
   187   95   96 1    
   188   95   97 1    
   189   95  216 1    
   190   96  217 1    
   191   96  218 1    
   192   96  219 1    
   193   97   98 2    
   194   97   99 am   BACKBONE|DICT|INTERRES
   195   99  100 1    
   196   99  220 1    
   197  100  101 1    
   198  100  102 1    
   199  100  221 1    
   200  101  222 1    
   201  101  223 1    
   202  101  224 1    
   203  102  103 2    
   204  102  104 am   BACKBONE|DICT|INTERRES
   205  104  105 1    
   206  104  225 1    
   207  105  106 1    
   208  105  107 1    
   209  105  226 1    
   210  106  227 1    
   211  106  228 1    
   212  106  229 1    
   213  107  108 2    
   214  107  109 am   BACKBONE|DICT|INTERRES
   215  109  110 1    
   216  109  230 1    
   217  110  111 1    
   218  110  112 1    
   219  110  231 1    
   220  111  232 1    
   221  111  233 1    
   222  111  234 1    
   223  112  113 2    
   224  112  114 am   BACKBONE|DICT|INTERRES
   225  114  115 1    
   226  114  235 1    
   227  115  116 1    
   228  115  117 1    
   229  115  236 1    
   230  116  237 1    
   231  116  238 1    
   232  116  239 1    
   233  117  118 2    
   234  117  119 am   BACKBONE|DICT|INTERRES
   235  119  120 1    
   236  119  240 1    
   237  120  121 1    
   238  120  124 1    
   239  120  241 1    
   240  121  122 am   BACKBONE|DICT|INTERRES
   241  121  123 2    
   242  122  242 1    
   243  122  243 1    
   244  124  125 1    
   245  124  244 1    
   246  124  245 1    
   247  125  126 1    
   248  126  246 1    
   249  126  247 1    
@<TRIPOS>SUBSTRUCTURE
     1 UNK         1 GROUP             0       ****    0 ROOT    
