@<TRIPOS>MOLECULE
3R540
247   249    1
SMALL
USER_CHARGES


@<TRIPOS>ATOM
      1 CA         -4.8305  -15.2272  -42.7849 C.3       0 UNK        -0.1800 
      2 C          -4.7652  -14.1906  -43.8978 C.2       0 UNK         0.5000 
      3 O          -5.2830  -13.0849  -43.7409 O.2       0 UNK        -0.5000 
      4 N          -4.1263  -14.5443  -45.0192 N.am      1 UNK        -0.5000 
      5 CA         -3.9386  -13.6906  -46.2010 C.3       1 UNK         0.1400 
      6 C6         -3.6249  -14.4967  -47.4936 C.3       23 UNK        -0.0398 
      7 S7         -4.5529  -16.0607  -47.6746 S.3       23 UNK        -0.2404 
      8 C8         -4.2964  -16.4592  -49.4328 C.3       23 UNK        -0.0205 
      9 C9         -2.8309  -16.4405  -49.8516 C.ar      23 UNK        -0.0193 
     10 C10        -2.3372  -15.3606  -50.5860 C.ar      23 UNK        -0.1150 
     11 C11        -1.0143  -15.3479  -51.0282 C.ar      23 UNK        -0.0193 
     12 C12        -0.1811  -16.4301  -50.7327 C.ar      23 UNK        -0.1150 
     13 C13        -0.6578  -17.5300  -50.0118 C.ar      23 UNK        -0.0193 
     14 C14        -1.9827  -17.5122  -49.5517 C.ar      23 UNK        -0.1150 
     15 C15         0.2971  -18.7038  -49.7755 C.3       23 UNK        -0.0205 
     16 S16        -0.4914  -20.3268  -49.4701 S.3       23 UNK        -0.2404 
     17 C17        -0.6213  -20.3471  -47.6537 C.3       23 UNK        -0.0398 
     18 CA         -0.4274  -21.7646  -47.0510 C.3       11 UNK         0.1400 
     19 N           0.2569  -21.7155  -45.7537 N.am      11 UNK        -0.5000 
     20 C           0.6910  -22.7787  -45.0604 C.2       10 UNK         0.5000 
     21 O           0.6276  -23.9366  -45.4688 O.2       10 UNK        -0.5000 
     22 CA          1.2402  -22.5036  -43.6482 C.3       10 UNK         0.1400 
     23 CB          2.7581  -22.2752  -43.6768 C.3       10 UNK        -0.1800 
     24 N           0.5719  -21.3636  -43.0173 N.am      10 UNK        -0.5000 
     25 C          -0.6880  -21.4107  -42.5561 C.2       9 UNK         0.5000 
     26 O          -1.3824  -22.4266  -42.5763 O.2       9 UNK        -0.5000 
     27 CA         -1.3000  -20.0927  -42.0501 C.3       9 UNK         0.1400 
     28 CB         -0.9563  -19.8713  -40.5707 C.3       9 UNK        -0.1800 
     29 N          -0.8768  -18.9408  -42.8504 N.am      9 UNK        -0.5000 
     30 C          -1.2171  -18.7744  -44.1379 C.2       8 UNK         0.5000 
     31 O          -1.9485  -19.5614  -44.7401 O.2       8 UNK        -0.5000 
     32 CA         -0.6071  -17.5946  -44.9175 C.3       8 UNK         0.1400 
     33 CB         -1.6402  -16.9072  -45.8203 C.3       8 UNK        -0.1800 
     34 N           0.1335  -16.6498  -44.0812 N.am      8 UNK        -0.5000 
     35 C          -0.3233  -15.6631  -43.2986 C.2       7 UNK         0.5000 
     36 O          -1.4895  -15.2684  -43.2938 O.2       7 UNK        -0.5000 
     37 CA          0.7236  -14.9820  -42.3881 C.3       7 UNK         0.1400 
     38 CB          0.1321  -14.5595  -41.0276 C.3       7 UNK        -0.1800 
     39 N           1.9553  -15.7729  -42.2238 N.am      7 UNK        -0.5000 
     40 C           2.0658  -16.9666  -41.6220 C.2       6 UNK         0.5000 
     41 O           1.1223  -17.5376  -41.0772 O.2       6 UNK        -0.5000 
     42 CA          3.4349  -17.6674  -41.7363 C.3       6 UNK         0.1400 
     43 CB          3.4616  -19.0420  -41.0341 C.3       6 UNK        -0.1800 
     44 N           3.8784  -17.8006  -43.1296 N.am      6 UNK        -0.5000 
     45 C           3.2476  -18.4241  -44.1347 C.2       5 UNK         0.5000 
     46 O           2.1435  -18.9611  -44.0170 O.2       5 UNK        -0.5000 
     47 CA          3.9612  -18.4168  -45.5060 C.3       5 UNK         0.1400 
     48 CB          3.1598  -19.1596  -46.5911 C.3       5 UNK        -0.1800 
     49 N           4.2246  -17.0610  -45.9902 N.am      5 UNK        -0.5000 
     50 C           5.1596  -16.2143  -45.5381 C.2       4 UNK         0.5000 
     51 O           5.9631  -16.5017  -44.6497 O.2       4 UNK        -0.5000 
     52 CA          5.1831  -14.8010  -46.1593 C.3       4 UNK         0.1400 
     53 CB          6.2903  -14.7009  -47.2194 C.3       4 UNK        -0.1800 
     54 N           3.9081  -14.3894  -46.7609 N.am      4 UNK        -0.5000 
     55 C           2.7662  -14.2135  -46.0831 C.2       3 UNK         0.5000 
     56 O           2.6671  -14.3900  -44.8669 O.2       3 UNK        -0.5000 
     57 CA          1.5264  -13.8460  -46.9209 C.3       3 UNK         0.1400 
     58 CB          1.0588  -15.0619  -47.7382 C.3       3 UNK        -0.1800 
     59 N           0.4179  -13.3961  -46.0791 N.am      3 UNK        -0.5000 
     60 C           0.3287  -12.1901  -45.5013 C.2       2 UNK         0.5000 
     61 O           1.1446  -11.2853  -45.6861 O.2       2 UNK        -0.5000 
     62 CA         -0.8660  -11.9762  -44.5460 C.3       2 UNK         0.1400 
     63 CB         -1.2267  -10.4903  -44.3369 C.3       2 UNK        -0.1800 
     64 N          -2.0400  -12.7772  -44.9135 N.am      2 UNK        -0.5000 
     65 C          -2.8397  -12.6235  -45.9830 C.2       1 UNK         0.5000 
     66 O          -2.7210  -11.7138  -46.8040 O.2       1 UNK        -0.5000 
     67 C          -1.7717  -22.5137  -46.9399 C.2       11 UNK         0.5000 
     68 O          -2.0521  -23.4056  -47.7427 O.2       11 UNK        -0.5000 
     69 N          -2.5553  -22.1555  -45.9123 N.am      12 UNK        -0.5000 
     70 CA         -3.8166  -22.7967  -45.5518 C.3       12 UNK         0.1400 
     71 CB         -4.5094  -21.9811  -44.4499 C.3       12 UNK        -0.1800 
     72 C          -3.6269  -24.2619  -45.1232 C.2       12 UNK         0.5000 
     73 O          -4.3286  -25.1340  -45.6385 O.2       12 UNK        -0.5000 
     74 N          -2.6610  -24.5060  -44.2227 N.am      13 UNK        -0.5000 
     75 CA         -2.3198  -25.8293  -43.6901 C.3       13 UNK         0.1400 
     76 CB         -1.2566  -25.6899  -42.5917 C.3       13 UNK        -0.1800 
     77 C          -1.8526  -26.8308  -44.7617 C.2       13 UNK         0.5000 
     78 O          -2.1515  -28.0195  -44.6473 O.2       13 UNK        -0.5000 
     79 N          -1.1898  -26.3360  -45.8151 N.am      14 UNK        -0.5000 
     80 CA         -0.7753  -27.0873  -47.0034 C.3       14 UNK         0.1400 
     81 CB          0.3951  -26.3415  -47.6680 C.3       14 UNK        -0.1800 
     82 C          -1.9372  -27.3703  -47.9878 C.2       14 UNK         0.5000 
     83 O          -1.7292  -27.3561  -49.2016 O.2       14 UNK        -0.5000 
     84 N          -3.1372  -27.6304  -47.4476 N.am      15 UNK        -0.5000 
     85 CA         -4.3964  -27.9288  -48.1357 C.3       15 UNK         0.1400 
     86 CB         -4.3210  -29.3084  -48.8232 C.3       15 UNK        -0.1800 
     87 C          -4.8466  -26.7995  -49.0856 C.2       15 UNK         0.5000 
     88 O          -5.2779  -27.0755  -50.2068 O.2       15 UNK        -0.5000 
     89 N          -4.7337  -25.5497  -48.6076 N.am      16 UNK        -0.5000 
     90 CA         -5.0227  -24.3007  -49.3217 C.3       16 UNK         0.1400 
     91 CB         -6.5371  -24.1502  -49.5729 C.3       16 UNK        -0.1800 
     92 C          -4.1771  -24.1634  -50.6043 C.2       16 UNK         0.5000 
     93 O          -4.7138  -24.1125  -51.7132 O.2       16 UNK        -0.5000 
     94 N          -2.8524  -24.1126  -50.4157 N.am      17 UNK        -0.5000 
     95 CA         -1.8325  -24.0817  -51.4695 C.3       17 UNK         0.1400 
     96 CB         -0.4531  -24.2794  -50.8219 C.3       17 UNK        -0.1800 
     97 C          -1.8368  -22.8121  -52.3464 C.2       17 UNK         0.5000 
     98 O          -1.1585  -22.7908  -53.3742 O.2       17 UNK        -0.5000 
     99 N          -2.5857  -21.7831  -51.9278 N.am      18 UNK        -0.5000 
    100 CA        -2.7228  -20.4920  -52.5962 C.3       18 UNK         0.1400 
    101 CB        -3.6243  -19.5890  -51.7422 C.3       18 UNK        -0.1800 
    102 C         -3.3008  -20.5922  -54.0172 C.2       18 UNK         0.5000 
    103 O         -2.8720  -19.8428  -54.8953 O.2       18 UNK        -0.5000 
    104 N         -4.2924  -21.4779  -54.2064 N.am      19 UNK        -0.5000 
    105 CA        -5.0163  -21.7360  -55.4619 C.3       19 UNK         0.1400 
    106 CB        -4.0913  -22.4667  -56.4569 C.3       19 UNK        -0.1800 
    107 C         -5.6714  -20.4796  -56.0888 C.2       19 UNK         0.5000 
    108 O         -5.8836  -20.4384  -57.3016 O.2       19 UNK        -0.5000 
    109 N         -5.9477  -19.4685  -55.2486 N.am      20 UNK        -0.5000 
    110 CA        -6.4032  -18.1138  -55.5853 C.3       20 UNK         0.1400 
    111 CB        -7.8231  -18.1471  -56.1889 C.3       20 UNK        -0.1800 
    112 C         -5.4032  -17.3092  -56.4519 C.2       20 UNK         0.5000 
    113 O         -5.8144  -16.3661  -57.1306 O.2       20 UNK        -0.5000 
    114 N         -4.1147  -17.6795  -56.4160 N.am      21 UNK        -0.5000 
    115 CA        -3.0508  -17.0990  -57.2404 C.3       21 UNK         0.1400 
    116 CB        -2.8686  -17.9740  -58.4947 C.3       21 UNK        -0.1800 
    117 C         -1.7270  -16.9235  -56.4686 C.2       21 UNK         0.5000 
    118 O         -0.6963  -16.6719  -57.0951 O.2       21 UNK        -0.5000 
    119 N         -1.7668  -17.0646  -55.1361 N.am      22 UNK        -0.5000 
    120 CA        -0.6084  -17.0517  -54.2216 C.3       22 UNK         0.1400 
    121 C          0.3842  -18.2407  -54.4214 C.2       22 UNK         0.5000 
    122 N         -0.0503  -19.3711  -54.9628 N.am      22 UNK        -0.7600 
    123 O          1.5552  -18.1556  -54.0612 O.2       22 UNK        -0.5000 
    124 C124        0.1149  -15.6743  -54.1560 C.3       23 UNK        -0.0398 
    125 S125       -0.9722  -14.3174  -53.5994 S.3       23 UNK        -0.2404 
    126 C126       -0.5004  -14.1723  -51.8446 C.3       23 UNK        -0.0205 
    127 H127       -4.3384  -16.1578  -43.0699 H         1 UNK         0.0600 
    128 H128       -5.8681  -15.4510  -42.5376 H         1 UNK         0.0600 
    129 H129       -4.3374  -14.8463  -41.8905 H         1 UNK         0.0600 
    130 H130       -3.7336  -15.4714  -45.0884 H         1 UNK         0.3000 
    131 H131       -4.8753  -13.1550  -46.3691 H         1 UNK         0.0600 
    132 H132       -2.5644  -14.7399  -47.5597 H         1 UNK         0.0800 
    133 H133       -3.8339  -13.8727  -48.3643 H         1 UNK         0.0800 
    134 H134       -4.8743  -15.7603  -50.0394 H         1 UNK         0.0800 
    135 H135       -4.7149  -17.4465  -49.6323 H         1 UNK         0.0800 
    136 H136       -2.9876  -14.5324  -50.8300 H         1 UNK         0.1150 
    137 H137        0.8408  -16.4260  -51.0854 H         1 UNK         0.1150 
    138 H138       -2.3755  -18.3402  -48.9821 H         1 UNK         0.1150 
    139 H139        0.9825  -18.4500  -48.9672 H         1 UNK         0.0800 
    140 H140        0.9190  -18.8253  -50.6640 H         1 UNK         0.0800 
    141 H141       -1.5720  -19.8995  -47.3607 H         1 UNK         0.0800 
    142 H142        0.1454  -19.6808  -47.2643 H         1 UNK         0.0800 
    143 H143        0.2180  -22.3458  -47.7135 H         1 UNK         0.0600 
    144 H144        0.3293  -20.8123  -45.3111 H         1 UNK         0.3000 
    145 H145        1.0536  -23.3886  -43.0376 H         1 UNK         0.0600 
    146 H146        3.1472  -22.0752  -42.6784 H         1 UNK         0.0600 
    147 H147        3.0329  -21.4397  -44.3174 H         1 UNK         0.0600 
    148 H148        3.2740  -23.1578  -44.0566 H         1 UNK         0.0600 
    149 H149        1.0657  -20.4775  -43.0281 H         1 UNK         0.3000 
    150 H150       -2.3859  -20.1751  -42.1336 H         1 UNK         0.0600 
    151 H151       -1.3778  -20.6648  -39.9526 H         1 UNK         0.0600 
    152 H152        0.1211  -19.8670  -40.4027 H         1 UNK         0.0600 
    153 H153       -1.3581  -18.9254  -40.2070 H         1 UNK         0.0600 
    154 H154       -0.2367  -18.2905  -42.4067 H         1 UNK         0.3000 
    155 H155        0.1448  -18.0294  -45.5744 H         1 UNK         0.0600 
    156 H156       -2.5515  -16.6838  -45.2704 H         1 UNK         0.0600 
    157 H157       -1.9210  -17.5529  -46.6514 H         1 UNK         0.0600 
    158 H158       -1.2517  -15.9826  -46.2384 H         1 UNK         0.0600 
    159 H159        1.1135  -16.8757  -43.9783 H         1 UNK         0.3000 
    160 H160        1.0211  -14.0684  -42.9013 H         1 UNK         0.0600 
    161 H161       -0.2887  -15.4056  -40.4839 H         1 UNK         0.0600 
    162 H162       -0.6692  -13.8316  -41.1604 H         1 UNK         0.0600 
    163 H163        0.8886  -14.0952  -40.3952 H         1 UNK         0.0600 
    164 H164        2.7606  -15.4029  -42.7135 H         1 UNK         0.3000 
    165 H165        4.1582  -17.0232  -41.2345 H         1 UNK         0.0600 
    166 H166        3.2217  -18.9432  -39.9749 H         1 UNK         0.0600 
    167 H167        2.7409  -19.7362  -41.4672 H         1 UNK         0.0600 
    168 H168        4.4483  -19.4999  -41.1021 H         1 UNK         0.0600 
    169 H169        4.7612  -17.3524  -43.3589 H         1 UNK         0.3000 
    170 H170        4.9134  -18.9350  -45.3763 H         1 UNK         0.0600 
    171 H171        3.7171  -19.2092  -47.5267 H         1 UNK         0.0600 
    172 H172        2.9381  -20.1852  -46.2965 H         1 UNK         0.0600 
    173 H173        2.2130  -18.6611  -46.7947 H         1 UNK         0.0600 
    174 H174        3.6082  -16.7221  -46.7127 H         1 UNK         0.3000 
    175 H175        5.4148  -14.0990  -45.3556 H         1 UNK         0.0600 
    176 H176        7.2600  -14.9719  -46.7995 H         1 UNK         0.0600 
    177 H177        6.1008  -15.3656  -48.0633 H         1 UNK         0.0600 
    178 H178        6.3782  -13.6847  -47.6042 H         1 UNK         0.0600 
    179 H179        3.9149  -14.2347  -47.7589 H         1 UNK         0.3000 
    180 H180        1.7932  -13.0401  -47.6078 H         1 UNK         0.0600 
    181 H181        0.9251  -15.9452  -47.1135 H         1 UNK         0.0600 
    182 H182        1.7843  -15.3192  -48.5104 H         1 UNK         0.0600 
    183 H183        0.1135  -14.8601  -48.2424 H         1 UNK         0.0600 
    184 H184       -0.2798  -14.0853  -45.8484 H         1 UNK         0.3000 
    185 H185       -0.5433  -12.3590  -43.5777 H         1 UNK         0.0600 
    186 H186       -0.3961   -9.9491  -43.8825 H         1 UNK         0.0600 
    187 H187       -1.4623   -9.9902  -45.2763 H         1 UNK         0.0600 
    188 H188       -2.0846  -10.3822  -43.6731 H         1 UNK         0.0600 
    189 H189       -2.2181  -13.5772  -44.3142 H         1 UNK         0.3000 
    190 H190       -2.2672  -21.3715  -45.3332 H         1 UNK         0.3000 
    191 H191       -4.4616  -22.7852  -46.4315 H         1 UNK         0.0600 
    192 H192       -4.7052  -20.9609  -44.7809 H         1 UNK         0.0600 
    193 H193       -5.4677  -22.4257  -44.1788 H         1 UNK         0.0600 
    194 H194       -3.9045  -21.9255  -43.5447 H         1 UNK         0.0600 
    195 H195       -2.1546  -23.7203  -43.8243 H         1 UNK         0.3000 
    196 H196       -3.2242  -26.2380  -43.2350 H         1 UNK         0.0600 
    197 H197       -0.3295  -25.2743  -42.9851 H         1 UNK         0.0600 
    198 H198       -1.0201  -26.6593  -42.1514 H         1 UNK         0.0600 
    199 H199       -1.6023  -25.0438  -41.7847 H         1 UNK         0.0600 
    200 H200       -0.9569  -25.3495  -45.8139 H         1 UNK         0.3000 
    201 H201       -0.4014  -28.0609  -46.6807 H         1 UNK         0.0600 
    202 H202        0.1006  -25.3396  -47.9814 H         1 UNK         0.0600 
    203 H203        1.2348  -26.2396  -46.9804 H         1 UNK         0.0600 
    204 H204        0.7633  -26.8730  -48.5463 H         1 UNK         0.0600 
    205 H205       -3.1855  -27.6310  -46.4359 H         1 UNK         0.3000 
    206 H206       -5.1597  -27.9908  -47.3587 H         1 UNK         0.0600 
    207 H207       -4.0255  -30.0847  -48.1174 H         1 UNK         0.0600 
    208 H208       -5.2905  -29.5955  -49.2319 H         1 UNK         0.0600 
    209 H209       -3.6050  -29.3126  -49.6456 H         1 UNK         0.0600 
    210 H210       -4.3800  -25.4427  -47.6620 H         1 UNK         0.3000 
    211 H211       -4.7203  -23.4862  -48.6637 H         1 UNK         0.0600 
    212 H212       -7.0974  -24.2055  -48.6396 H         1 UNK         0.0600 
    213 H213       -6.7608  -23.1855  -50.0296 H         1 UNK         0.0600 
    214 H214       -6.9204  -24.9229  -50.2398 H         1 UNK         0.0600 
    215 H215       -2.5053  -24.1039  -49.4594 H         1 UNK         0.3000 
    216 H216       -2.0202  -24.9265  -52.1351 H         1 UNK         0.0600 
    217 H217       -0.2438  -23.5093  -50.0785 H         1 UNK         0.0600 
    218 H218        0.3439  -24.2447  -51.5657 H         1 UNK         0.0600 
    219 H219       -0.3895  -25.2497  -50.3317 H         1 UNK         0.0600 
    220 H220       -3.0871  -21.8990  -51.0608 H         1 UNK         0.3000 
    221 H221       -1.7297  -20.0425  -52.6541 H         1 UNK         0.0600 
    222 H222       -4.6641  -19.9181  -51.7566 H         1 UNK         0.0600 
    223 H223       -3.3031  -19.5863  -50.7029 H         1 UNK         0.0600 
    224 H224       -3.5969  -18.5588  -52.0997 H         1 UNK         0.0600 
    225 H225       -4.5650  -22.0518  -53.4190 H         1 UNK         0.3000 
    226 H226       -5.8352  -22.4114  -55.2107 H         1 UNK         0.0600 
    227 H227       -3.6432  -23.3501  -56.0018 H         1 UNK         0.0600 
    228 H228       -4.6429  -22.8010  -57.3362 H         1 UNK         0.0600 
    229 H229       -3.2824  -21.8219  -56.8025 H         1 UNK         0.0600 
    230 H230       -5.7410  -19.6219  -54.2724 H         1 UNK         0.3000 
    231 H231       -6.4665  -17.5776  -54.6375 H         1 UNK         0.0600 
    232 H232       -7.8314  -18.5966  -57.1821 H         1 UNK         0.0600 
    233 H233       -8.2328  -17.1409  -56.2838 H         1 UNK         0.0600 
    234 H234       -8.5070  -18.7146  -55.5577 H         1 UNK         0.0600 
    235 H235       -3.8459  -18.4869  -55.8598 H         1 UNK         0.3000 
    236 H236       -3.3371  -16.0955  -57.5613 H         1 UNK         0.0600 
    237 H237       -2.5517  -18.9839  -58.2311 H         1 UNK         0.0600 
    238 H238       -3.7982  -18.0526  -59.0587 H         1 UNK         0.0600 
    239 H239       -2.1185  -17.5556  -59.1667 H         1 UNK         0.0600 
    240 H240       -2.6577  -17.2673  -54.7095 H         1 UNK         0.3000 
    241 H241       -1.0352  -17.2376  -53.2369 H         1 UNK         0.0600 
    242 H242        0.5860  -20.1422  -55.0836 H         1 UNK         0.3800 
    243 H243       -1.0330  -19.4848  -55.1921 H         1 UNK         0.3800 
    244 H244        0.5230  -15.4096  -55.1317 H         1 UNK         0.0800 
    245 H245        0.9739  -15.7181  -53.4854 H         1 UNK         0.0800 
    246 H246       -0.9148  -13.2457  -51.4448 H         1 UNK         0.0800 
    247 H247        0.5832  -14.0813  -51.7547 H         1 UNK         0.0800 
@<TRIPOS>BOND
     1    1    2 1    
     2    1  127 1    
     3    1  128 1    
     4    1  129 1    
     5    2    3 2    
     6    2    4 am   BACKBONE|DICT|INTERRES
     7    4    5 1    
     8    4  130 1    
     9    5    6 1    
    10    5   65 1    
    11    5  131 1    
    12    6    7 1    
    13    6  132 1    
    14    6  133 1    
    15    7    8 1    
    16    8    9 1    
    17    8  134 1    
    18    8  135 1    
    19    9   10 ar   
    20    9   14 ar   
    21   10   11 ar   
    22   10  136 1    
    23   11   12 ar   
    24   11  126 1    
    25   12   13 ar   
    26   12  137 1    
    27   13   14 ar   
    28   13   15 1    
    29   14  138 1    
    30   15   16 1    
    31   15  139 1    
    32   15  140 1    
    33   16   17 1    
    34   17   18 1    
    35   17  141 1    
    36   17  142 1    
    37   18   19 1    
    38   18   67 1    
    39   18  143 1    
    40   19   20 am   BACKBONE|DICT|INTERRES
    41   19  144 1    
    42   20   21 2    
    43   20   22 1    
    44   22   23 1    
    45   22   24 1    
    46   22  145 1    
    47   23  146 1    
    48   23  147 1    
    49   23  148 1    
    50   24   25 am   BACKBONE|DICT|INTERRES
    51   24  149 1    
    52   25   26 2    
    53   25   27 1    
    54   27   28 1    
    55   27   29 1    
    56   27  150 1    
    57   28  151 1    
    58   28  152 1    
    59   28  153 1    
    60   29   30 am   BACKBONE|DICT|INTERRES
    61   29  154 1    
    62   30   31 2    
    63   30   32 1    
    64   32   33 1    
    65   32   34 1    
    66   32  155 1    
    67   33  156 1    
    68   33  157 1    
    69   33  158 1    
    70   34   35 am   BACKBONE|DICT|INTERRES
    71   34  159 1    
    72   35   36 2    
    73   35   37 1    
    74   37   38 1    
    75   37   39 1    
    76   37  160 1    
    77   38  161 1    
    78   38  162 1    
    79   38  163 1    
    80   39   40 am   BACKBONE|DICT|INTERRES
    81   39  164 1    
    82   40   41 2    
    83   40   42 1    
    84   42   43 1    
    85   42   44 1    
    86   42  165 1    
    87   43  166 1    
    88   43  167 1    
    89   43  168 1    
    90   44   45 am   BACKBONE|DICT|INTERRES
    91   44  169 1    
    92   45   46 2    
    93   45   47 1    
    94   47   48 1    
    95   47   49 1    
    96   47  170 1    
    97   48  171 1    
    98   48  172 1    
    99   48  173 1    
   100   49   50 am   BACKBONE|DICT|INTERRES
   101   49  174 1    
   102   50   51 2    
   103   50   52 1    
   104   52   53 1    
   105   52   54 1    
   106   52  175 1    
   107   53  176 1    
   108   53  177 1    
   109   53  178 1    
   110   54   55 am   BACKBONE|DICT|INTERRES
   111   54  179 1    
   112   55   56 2    
   113   55   57 1    
   114   57   58 1    
   115   57   59 1    
   116   57  180 1    
   117   58  181 1    
   118   58  182 1    
   119   58  183 1    
   120   59   60 am   BACKBONE|DICT|INTERRES
   121   59  184 1    
   122   60   61 2    
   123   60   62 1    
   124   62   63 1    
   125   62   64 1    
   126   62  185 1    
   127   63  186 1    
   128   63  187 1    
   129   63  188 1    
   130   64   65 am   BACKBONE|DICT|INTERRES
   131   64  189 1    
   132   65   66 2    
   133   67   68 2    
   134   67   69 am   BACKBONE|DICT|INTERRES
   135   69   70 1    
   136   69  190 1    
   137   70   71 1    
   138   70   72 1    
   139   70  191 1    
   140   71  192 1    
   141   71  193 1    
   142   71  194 1    
   143   72   73 2    
   144   72   74 am   BACKBONE|DICT|INTERRES
   145   74   75 1    
   146   74  195 1    
   147   75   76 1    
   148   75   77 1    
   149   75  196 1    
   150   76  197 1    
   151   76  198 1    
   152   76  199 1    
   153   77   78 2    
   154   77   79 am   BACKBONE|DICT|INTERRES
   155   79   80 1    
   156   79  200 1    
   157   80   81 1    
   158   80   82 1    
   159   80  201 1    
   160   81  202 1    
   161   81  203 1    
   162   81  204 1    
   163   82   83 2    
   164   82   84 am   BACKBONE|DICT|INTERRES
   165   84   85 1    
   166   84  205 1    
   167   85   86 1    
   168   85   87 1    
   169   85  206 1    
   170   86  207 1    
   171   86  208 1    
   172   86  209 1    
   173   87   88 2    
   174   87   89 am   BACKBONE|DICT|INTERRES
   175   89   90 1    
   176   89  210 1    
   177   90   91 1    
   178   90   92 1    
   179   90  211 1    
   180   91  212 1    
   181   91  213 1    
   182   91  214 1    
   183   92   93 2    
   184   92   94 am   BACKBONE|DICT|INTERRES
   185   94   95 1    
   186   94  215 1    
   187   95   96 1    
   188   95   97 1    
   189   95  216 1    
   190   96  217 1    
   191   96  218 1    
   192   96  219 1    
   193   97   98 2    
   194   97   99 am   BACKBONE|DICT|INTERRES
   195   99  100 1    
   196   99  220 1    
   197  100  101 1    
   198  100  102 1    
   199  100  221 1    
   200  101  222 1    
   201  101  223 1    
   202  101  224 1    
   203  102  103 2    
   204  102  104 am   BACKBONE|DICT|INTERRES
   205  104  105 1    
   206  104  225 1    
   207  105  106 1    
   208  105  107 1    
   209  105  226 1    
   210  106  227 1    
   211  106  228 1    
   212  106  229 1    
   213  107  108 2    
   214  107  109 am   BACKBONE|DICT|INTERRES
   215  109  110 1    
   216  109  230 1    
   217  110  111 1    
   218  110  112 1    
   219  110  231 1    
   220  111  232 1    
   221  111  233 1    
   222  111  234 1    
   223  112  113 2    
   224  112  114 am   BACKBONE|DICT|INTERRES
   225  114  115 1    
   226  114  235 1    
   227  115  116 1    
   228  115  117 1    
   229  115  236 1    
   230  116  237 1    
   231  116  238 1    
   232  116  239 1    
   233  117  118 2    
   234  117  119 am   BACKBONE|DICT|INTERRES
   235  119  120 1    
   236  119  240 1    
   237  120  121 1    
   238  120  124 1    
   239  120  241 1    
   240  121  122 am   BACKBONE|DICT|INTERRES
   241  121  123 2    
   242  122  242 1    
   243  122  243 1    
   244  124  125 1    
   245  124  244 1    
   246  124  245 1    
   247  125  126 1    
   248  126  246 1    
   249  126  247 1    
@<TRIPOS>SUBSTRUCTURE
     1 UNK         1 GROUP             0       ****    0 ROOT    
