@<TRIPOS>MOLECULE
3R540
247   249    1
SMALL
USER_CHARGES


@<TRIPOS>ATOM
      1 CA         -2.7668  -12.0509  -44.5159 C.3       0 UNK        -0.1800 
      2 C          -1.7452  -12.6895  -45.4448 C.2       0 UNK         0.5000 
      3 O          -2.0098  -12.8186  -46.6432 O.2       0 UNK        -0.5000 
      4 N          -0.5867  -13.0884  -44.8979 N.am      1 UNK        -0.5000 
      5 CA          0.5010  -13.7532  -45.6222 C.3       1 UNK         0.1400 
      6 C6          1.6154  -14.2937  -44.6861 C.3       23 UNK        -0.0398 
      7 S7          2.1979  -15.9361  -45.2270 S.3       23 UNK        -0.2404 
      8 C8          3.6498  -15.5338  -46.2424 C.3       23 UNK        -0.0205 
      9 C9          3.7594  -16.4905  -47.4197 C.ar      23 UNK        -0.0193 
     10 C10         3.3325  -16.0925  -48.6863 C.ar      23 UNK        -0.1150 
     11 C11         3.4336  -16.9558  -49.7791 C.ar      23 UNK        -0.0193 
     12 C12         3.9599  -18.2394  -49.5922 C.ar      23 UNK        -0.1150 
     13 C13         4.3795  -18.6647  -48.3228 C.ar      23 UNK        -0.0193 
     14 C14         4.2886  -17.7718  -47.2489 C.ar      23 UNK        -0.1150 
     15 C15         4.9865  -20.0495  -48.0747 C.3       23 UNK        -0.0205 
     16 S16         4.4676  -21.3667  -49.2295 S.3       23 UNK        -0.2404 
     17 C17         2.7356  -21.6639  -48.7390 C.3       23 UNK        -0.0398 
     18 CA          2.4753  -23.1217  -48.2958 C.3       11 UNK         0.1400 
     19 N           3.1862  -23.4710  -47.0638 N.am      11 UNK        -0.5000 
     20 C           3.8632  -24.6115  -46.8797 C.2       10 UNK         0.5000 
     21 O           4.0077  -25.4730  -47.7481 O.2       10 UNK        -0.5000 
     22 CA          4.4847  -24.8438  -45.4884 C.3       10 UNK         0.1400 
     23 CB          5.9303  -24.3241  -45.4578 C.3       10 UNK        -0.1800 
     24 N           3.7378  -24.2300  -44.3896 N.am      10 UNK        -0.5000 
     25 C           2.4867  -24.5470  -44.0292 C.2       9 UNK         0.5000 
     26 O           1.7977  -25.3994  -44.5929 O.2       9 UNK        -0.5000 
     27 CA          1.8906  -23.7411  -42.8587 C.3       9 UNK         0.1400 
     28 CB          2.2965  -24.3743  -41.5191 C.3       9 UNK        -0.1800 
     29 N           2.2220  -22.3086  -42.8309 N.am      9 UNK        -0.5000 
     30 C           2.1418  -21.4444  -43.8530 C.2       8 UNK         0.5000 
     31 O           1.9554  -21.7733  -45.0260 O.2       8 UNK        -0.5000 
     32 CA          2.3280  -19.9551  -43.5156 C.3       8 UNK         0.1400 
     33 CB          3.7323  -19.4911  -43.9202 C.3       8 UNK        -0.1800 
     34 N           1.3259  -19.1385  -44.2032 N.am      8 UNK        -0.5000 
     35 C           0.0212  -19.1411  -43.8987 C.2       7 UNK         0.5000 
     36 O          -0.4480  -19.7685  -42.9478 O.2       7 UNK        -0.5000 
     37 CA         -0.9338  -18.3054  -44.7746 C.3       7 UNK         0.1400 
     38 CB         -1.3612  -17.0243  -44.0398 C.3       7 UNK        -0.1800 
     39 N          -0.4309  -17.9335  -46.0986 N.am      7 UNK        -0.5000 
     40 C          -0.2017  -18.7752  -47.1139 C.2       6 UNK         0.5000 
     41 O          -0.2192  -19.9989  -47.0065 O.2       6 UNK        -0.5000 
     42 CA         -0.0505  -18.1178  -48.4972 C.3       6 UNK         0.1400 
     43 CB          0.3524  -19.1113  -49.5974 C.3       6 UNK        -0.1800 
     44 N          -1.3395  -17.5274  -48.8472 N.am      6 UNK        -0.5000 
     45 C          -1.6896  -16.2659  -48.5901 C.2       5 UNK         0.5000 
     46 O          -0.9049  -15.4013  -48.2006 O.2       5 UNK        -0.5000 
     47 CA         -3.1806  -15.9501  -48.7171 C.3       5 UNK         0.1400 
     48 CB         -3.9574  -16.5155  -47.5128 C.3       5 UNK        -0.1800 
     49 N          -3.3948  -14.5104  -48.7804 N.am      5 UNK        -0.5000 
     50 C          -4.4114  -13.9399  -49.4363 C.2       4 UNK         0.5000 
     51 O          -5.2268  -14.5859  -50.0983 O.2       4 UNK        -0.5000 
     52 CA         -4.5682  -12.4134  -49.3464 C.3       4 UNK         0.1400 
     53 CB         -5.6719  -12.0438  -48.3415 C.3       4 UNK        -0.1800 
     54 N          -3.3290  -11.7347  -48.9654 N.am      4 UNK        -0.5000 
     55 C          -2.9046  -10.5779  -49.4897 C.2       3 UNK         0.5000 
     56 O          -3.4958   -9.9671  -50.3812 O.2       3 UNK        -0.5000 
     57 CA         -1.5957  -10.0046  -48.9256 C.3       3 UNK         0.1400 
     58 CB         -1.8511   -9.2704  -47.6004 C.3       3 UNK        -0.1800 
     59 N          -0.6044  -11.0564  -48.7125 N.am      3 UNK        -0.5000 
     60 C           0.2952  -11.4507  -49.6222 C.2       2 UNK         0.5000 
     61 O           0.3849  -10.9474  -50.7429 O.2       2 UNK        -0.5000 
     62 CA          1.2503  -12.6034  -49.2471 C.3       2 UNK         0.1400 
     63 CB          2.7235  -12.1438  -49.2859 C.3       2 UNK        -0.1800 
     64 N           0.9174  -13.2820  -47.9871 N.am      2 UNK        -0.5000 
     65 C           1.0704  -12.8442  -46.7308 C.2       1 UNK         0.5000 
     66 O           1.5836  -11.7672  -46.4236 O.2       1 UNK        -0.5000 
     67 C           0.9623  -23.3702  -48.1401 C.2       11 UNK         0.5000 
     68 O           0.3156  -23.7467  -49.1182 O.2       11 UNK        -0.5000 
     69 N           0.4238  -23.1553  -46.9308 N.am      12 UNK        -0.5000 
     70 CA         -1.0013  -23.2485  -46.6182 C.3       12 UNK         0.1400 
     71 CB         -1.2500  -22.7141  -45.2005 C.3       12 UNK        -0.1800 
     72 C          -1.5720  -24.6680  -46.7503 C.2       12 UNK         0.5000 
     73 O          -2.7162  -24.8102  -47.1839 O.2       12 UNK        -0.5000 
     74 N          -0.7711  -25.6778  -46.3726 N.am      13 UNK        -0.5000 
     75 CA         -1.0508  -27.1150  -46.4508 C.3       13 UNK         0.1400 
     76 CB         -0.9916  -27.5842  -47.9212 C.3       13 UNK        -0.1800 
     77 C          -2.3618  -27.5039  -45.7333 C.2       13 UNK         0.5000 
     78 O          -2.3628  -27.6563  -44.5115 O.2       13 UNK        -0.5000 
     79 N          -3.4540  -27.6288  -46.5000 N.am      14 UNK        -0.5000 
     80 CA         -4.8123  -27.9083  -46.0273 C.3       14 UNK         0.1400 
     81 CB         -5.6515  -28.3836  -47.2249 C.3       14 UNK        -0.1800 
     82 C          -5.4982  -26.7106  -45.3332 C.2       14 UNK         0.5000 
     83 O          -6.6081  -26.8706  -44.8245 O.2       14 UNK        -0.5000 
     84 N          -4.8627  -25.5299  -45.3601 N.am      15 UNK        -0.5000 
     85 CA         -5.2732  -24.2372  -44.7959 C.3       15 UNK         0.1400 
     86 CB         -5.6198  -24.3259  -43.2980 C.3       15 UNK        -0.1800 
     87 C          -6.3815  -23.5458  -45.6049 C.2       15 UNK         0.5000 
     88 O          -6.2590  -22.3582  -45.9008 O.2       15 UNK        -0.5000 
     89 N          -7.4018  -24.3040  -46.0244 N.am      16 UNK        -0.5000 
     90 CA         -8.4360  -23.8622  -46.9657 C.3       16 UNK         0.1400 
     91 CB         -9.5358  -24.9319  -47.0372 C.3       16 UNK        -0.1800 
     92 C          -7.8724  -23.5699  -48.3726 C.2       16 UNK         0.5000 
     93 O          -8.4227  -22.7400  -49.0962 O.2       16 UNK        -0.5000 
     94 N          -6.7657  -24.2421  -48.7159 N.am      17 UNK        -0.5000 
     95 CA         -6.0273  -24.0927  -49.9679 C.3       17 UNK         0.1400 
     96 CB         -5.1926  -25.3663  -50.1840 C.3       17 UNK        -0.1800 
     97 C          -5.1205  -22.8451  -50.0127 C.2       17 UNK         0.5000 
     98 O          -4.5887  -22.5426  -51.0800 O.2       17 UNK        -0.5000 
     99 N          -4.9284  -22.1604  -48.8744 N.am      18 UNK        -0.5000 
    100 CA        -4.0009  -21.0352  -48.7336 C.3       18 UNK         0.1400 
    101 CB        -3.8071  -20.7282  -47.2414 C.3       18 UNK        -0.1800 
    102 C         -4.4497  -19.7563  -49.4610 C.2       18 UNK         0.5000 
    103 O         -3.5929  -18.9635  -49.8546 O.2       18 UNK        -0.5000 
    104 N         -5.7693  -19.5552  -49.5847 N.am      19 UNK        -0.5000 
    105 CA        -6.3992  -18.3602  -50.1494 C.3       19 UNK         0.1400 
    106 CB        -7.9254  -18.4965  -50.0392 C.3       19 UNK        -0.1800 
    107 C         -5.9700  -18.1015  -51.6050 C.2       19 UNK         0.5000 
    108 O         -6.1790  -18.9629  -52.4612 O.2       19 UNK        -0.5000 
    109 N         -5.3604  -16.9301  -51.8399 N.am      20 UNK        -0.5000 
    110 CA        -4.8155  -16.4378  -53.1118 C.3       20 UNK         0.1400 
    111 CB        -5.9561  -16.1682  -54.1144 C.3       20 UNK        -0.1800 
    112 C         -3.6930  -17.3046  -53.7309 C.2       20 UNK         0.5000 
    113 O         -3.3393  -17.0901  -54.8926 O.2       20 UNK        -0.5000 
    114 N         -3.1251  -18.2473  -52.9623 N.am      21 UNK        -0.5000 
    115 CA        -2.1496  -19.2359  -53.4366 C.3       21 UNK         0.1400 
    116 CB        -1.9637  -20.3175  -52.3652 C.3       21 UNK        -0.1800 
    117 C         -0.7932  -18.6471  -53.8721 C.2       21 UNK         0.5000 
    118 O         -0.0642  -19.3054  -54.6155 O.2       21 UNK        -0.5000 
    119 N         -0.4911  -17.4180  -53.4356 N.am      22 UNK        -0.5000 
    120 CA         0.6633  -16.6299  -53.8974 C.3       22 UNK         0.1400 
    121 C          0.5172  -16.0760  -55.3473 C.2       22 UNK         0.5000 
    122 N         -0.6562  -16.1186  -55.9706 N.am      22 UNK        -0.7600 
    123 O          1.4929  -15.6005  -55.9214 O.2       22 UNK        -0.5000 
    124 C124        1.0264  -15.4836  -52.9179 C.3       23 UNK        -0.0398 
    125 S125        1.2315  -16.0391  -51.1950 S.3       23 UNK        -0.2404 
    126 C126        2.9969  -16.4810  -51.1592 C.3       23 UNK        -0.0205 
    127 H127       -2.4405  -12.0756  -43.4760 H         1 UNK         0.0600 
    128 H128       -3.7165  -12.5814  -44.5865 H         1 UNK         0.0600 
    129 H129       -2.9354  -11.0116  -44.7957 H         1 UNK         0.0600 
    130 H130       -0.4213  -12.9141  -43.9173 H         1 UNK         0.3000 
    131 H131        0.0238  -14.6132  -46.0879 H         1 UNK         0.0600 
    132 H132        1.2259  -14.4297  -43.6765 H         1 UNK         0.0800 
    133 H133        2.4543  -13.6029  -44.5809 H         1 UNK         0.0800 
    134 H134        4.5485  -15.5916  -45.6267 H         1 UNK         0.0800 
    135 H135        3.5889  -14.5058  -46.6021 H         1 UNK         0.0800 
    136 H136        2.9150  -15.1082  -48.8276 H         1 UNK         0.1150 
    137 H137        4.0472  -18.9017  -50.4411 H         1 UNK         0.1150 
    138 H138        4.6389  -18.0666  -46.2716 H         1 UNK         0.1150 
    139 H139        4.7648  -20.3832  -47.0606 H         1 UNK         0.0800 
    140 H140        6.0713  -19.9551  -48.1344 H         1 UNK         0.0800 
    141 H141        2.1279  -21.4414  -49.6166 H         1 UNK         0.0800 
    142 H142        2.4359  -20.9610  -47.9587 H         1 UNK         0.0800 
    143 H143        2.8099  -23.7675  -49.1106 H         1 UNK         0.0600 
    144 H144        3.0636  -22.8384  -46.2804 H         1 UNK         0.3000 
    145 H145        4.5038  -25.9216  -45.3140 H         1 UNK         0.0600 
    146 H146        6.5271  -24.7826  -46.2474 H         1 UNK         0.0600 
    147 H147        6.4146  -24.5573  -44.5094 H         1 UNK         0.0600 
    148 H148        5.9716  -23.2435  -45.6012 H         1 UNK         0.0600 
    149 H149        4.2084  -23.5002  -43.8753 H         1 UNK         0.3000 
    150 H150        0.8062  -23.8142  -42.9369 H         1 UNK         0.0600 
    151 H151        1.7757  -23.9036  -40.6850 H         1 UNK         0.0600 
    152 H152        2.0476  -25.4363  -41.4958 H         1 UNK         0.0600 
    153 H153        3.3686  -24.2843  -41.3399 H         1 UNK         0.0600 
    154 H154        2.4124  -21.9321  -41.9136 H         1 UNK         0.3000 
    155 H155        2.2103  -19.8070  -42.4401 H         1 UNK         0.0600 
    156 H156        3.9342  -19.7212  -44.9647 H         1 UNK         0.0600 
    157 H157        4.4948  -19.9931  -43.3237 H         1 UNK         0.0600 
    158 H158        3.8570  -18.4176  -43.7754 H         1 UNK         0.0600 
    159 H159        1.6303  -18.6149  -45.0107 H         1 UNK         0.3000 
    160 H160       -1.8265  -18.9147  -44.9309 H         1 UNK         0.0600 
    161 H161       -1.8164  -17.2590  -43.0768 H         1 UNK         0.0600 
    162 H162       -2.0959  -16.4612  -44.6154 H         1 UNK         0.0600 
    163 H163       -0.5121  -16.3687  -43.8475 H         1 UNK         0.0600 
    164 H164       -0.3867  -16.9438  -46.2941 H         1 UNK         0.3000 
    165 H165        0.7198  -17.3472  -48.4329 H         1 UNK         0.0600 
    166 H166        1.4043  -19.3599  -49.4944 H         1 UNK         0.0600 
    167 H167       -0.2237  -20.0366  -49.5613 H         1 UNK         0.0600 
    168 H168        0.2291  -18.6817  -50.5903 H         1 UNK         0.0600 
    169 H169       -2.0607  -18.1719  -49.1629 H         1 UNK         0.3000 
    170 H170       -3.5321  -16.4142  -49.6390 H         1 UNK         0.0600 
    171 H171       -3.6460  -16.0404  -46.5818 H         1 UNK         0.0600 
    172 H172       -3.7992  -17.5878  -47.3998 H         1 UNK         0.0600 
    173 H173       -5.0299  -16.3568  -47.6231 H         1 UNK         0.0600 
    174 H174       -2.7300  -13.9576  -48.2505 H         1 UNK         0.3000 
    175 H175       -4.8815  -12.0841  -50.3392 H         1 UNK         0.0600 
    176 H176       -6.6124  -12.5366  -48.5911 H         1 UNK         0.0600 
    177 H177       -5.4029  -12.3396  -47.3265 H         1 UNK         0.0600 
    178 H178       -5.8589  -10.9699  -48.3391 H         1 UNK         0.0600 
    179 H179       -2.7996  -12.1457  -48.2016 H         1 UNK         0.3000 
    180 H180       -1.2097   -9.2747  -49.6406 H         1 UNK         0.0600 
    181 H181       -2.2638   -9.9351  -46.8423 H         1 UNK         0.0600 
    182 H182       -2.5592   -8.4525  -47.7391 H         1 UNK         0.0600 
    183 H183       -0.9307   -8.8410  -47.2044 H         1 UNK         0.0600 
    184 H184       -0.6448  -11.5512  -47.8313 H         1 UNK         0.3000 
    185 H185        1.1233  -13.3582  -50.0226 H         1 UNK         0.0600 
    186 H186        3.0068  -11.8450  -50.2957 H         1 UNK         0.0600 
    187 H187        2.8982  -11.2848  -48.6378 H         1 UNK         0.0600 
    188 H188        3.4068  -12.9343  -48.9808 H         1 UNK         0.0600 
    189 H189        0.3824  -14.1426  -48.1090 H         1 UNK         0.3000 
    190 H190        1.0115  -22.7580  -46.2016 H         1 UNK         0.3000 
    191 H191       -1.5279  -22.6090  -47.3282 H         1 UNK         0.0600 
    192 H192       -0.8712  -21.7002  -45.0873 H         1 UNK         0.0600 
    193 H193       -2.3124  -22.6857  -44.9666 H         1 UNK         0.0600 
    194 H194       -0.7701  -23.3375  -44.4490 H         1 UNK         0.0600 
    195 H195        0.1306  -25.4382  -45.9745 H         1 UNK         0.3000 
    196 H196       -0.2447  -27.6164  -45.9128 H         1 UNK         0.0600 
    197 H197       -1.2013  -28.6515  -48.0027 H         1 UNK         0.0600 
    198 H198        0.0020  -27.4192  -48.3383 H         1 UNK         0.0600 
    199 H199       -1.7022  -27.0546  -48.5567 H         1 UNK         0.0600 
    200 H200       -3.3549  -27.4420  -47.4874 H         1 UNK         0.3000 
    201 H201       -4.7630  -28.7194  -45.2980 H         1 UNK         0.0600 
    202 H202       -6.6616  -28.6556  -46.9154 H         1 UNK         0.0600 
    203 H203       -5.2103  -29.2648  -47.6910 H         1 UNK         0.0600 
    204 H204       -5.7397  -27.6090  -47.9874 H         1 UNK         0.0600 
    205 H205       -4.0021  -25.4914  -45.8996 H         1 UNK         0.3000 
    206 H206       -4.3941  -23.5997  -44.8807 H         1 UNK         0.0600 
    207 H207       -4.8136  -24.7957  -42.7345 H         1 UNK         0.0600 
    208 H208       -5.7729  -23.3308  -42.8789 H         1 UNK         0.0600 
    209 H209       -6.5325  -24.8942  -43.1182 H         1 UNK         0.0600 
    210 H210       -7.4288  -25.2705  -45.7152 H         1 UNK         0.3000 
    211 H211       -8.8749  -22.9380  -46.5840 H         1 UNK         0.0600 
    212 H212      -10.3338  -24.6274  -47.7156 H         1 UNK         0.0600 
    213 H213       -9.9874  -25.0985  -46.0591 H         1 UNK         0.0600 
    214 H214       -9.1462  -25.8863  -47.3940 H         1 UNK         0.0600 
    215 H215       -6.3841  -24.8932  -48.0468 H         1 UNK         0.3000 
    216 H216       -6.7425  -24.0067  -50.7886 H         1 UNK         0.0600 
    217 H217       -4.4590  -25.5059  -49.3885 H         1 UNK         0.0600 
    218 H218       -4.6473  -25.3233  -51.1277 H         1 UNK         0.0600 
    219 H219       -5.8259  -26.2529  -50.2186 H         1 UNK         0.0600 
    220 H220       -5.4146  -22.4527  -48.0373 H         1 UNK         0.3000 
    221 H221       -3.0372  -21.3374  -49.1497 H         1 UNK         0.0600 
    222 H222       -4.7044  -20.2933  -46.7993 H         1 UNK         0.0600 
    223 H223       -3.5683  -21.6278  -46.6778 H         1 UNK         0.0600 
    224 H224       -2.9928  -20.0197  -47.0907 H         1 UNK         0.0600 
    225 H225       -6.3910  -20.2813  -49.2604 H         1 UNK         0.3000 
    226 H226       -6.0937  -17.5090  -49.5381 H         1 UNK         0.0600 
    227 H227       -8.2389  -18.5981  -49.0000 H         1 UNK         0.0600 
    228 H228       -8.4259  -17.6164  -50.4450 H         1 UNK         0.0600 
    229 H229       -8.2921  -19.3659  -50.5867 H         1 UNK         0.0600 
    230 H230       -5.2819  -16.2653  -51.0743 H         1 UNK         0.3000 
    231 H231       -4.3512  -15.4782  -52.8804 H         1 UNK         0.0600 
    232 H232       -6.4344  -17.0920  -54.4409 H         1 UNK         0.0600 
    233 H233       -5.5859  -15.6600  -55.0055 H         1 UNK         0.0600 
    234 H234       -6.7230  -15.5297  -53.6758 H         1 UNK         0.0600 
    235 H235       -3.4562  -18.3645  -52.0125 H         1 UNK         0.3000 
    236 H236       -2.5769  -19.7164  -54.3192 H         1 UNK         0.0600 
    237 H237       -1.2278  -21.0617  -52.6720 H         1 UNK         0.0600 
    238 H238       -1.6308  -19.8910  -51.4222 H         1 UNK         0.0600 
    239 H239       -2.8991  -20.8433  -52.1792 H         1 UNK         0.0600 
    240 H240       -1.1351  -16.9535  -52.8143 H         1 UNK         0.3000 
    241 H241        1.5201  -17.3058  -53.9259 H         1 UNK         0.0600 
    242 H242       -0.7278  -15.7586  -56.9090 H         1 UNK         0.3800 
    243 H243       -1.4794  -16.5068  -55.5232 H         1 UNK         0.3800 
    244 H244        1.9409  -14.9793  -53.2350 H         1 UNK         0.0800 
    245 H245        0.2449  -14.7219  -52.9259 H         1 UNK         0.0800 
    246 H246        3.1864  -17.2503  -51.9091 H         1 UNK         0.0800 
    247 H247        3.5946  -15.6128  -51.4400 H         1 UNK         0.0800 
@<TRIPOS>BOND
     1    1    2 1    
     2    1  127 1    
     3    1  128 1    
     4    1  129 1    
     5    2    3 2    
     6    2    4 am   BACKBONE|DICT|INTERRES
     7    4    5 1    
     8    4  130 1    
     9    5    6 1    
    10    5   65 1    
    11    5  131 1    
    12    6    7 1    
    13    6  132 1    
    14    6  133 1    
    15    7    8 1    
    16    8    9 1    
    17    8  134 1    
    18    8  135 1    
    19    9   10 ar   
    20    9   14 ar   
    21   10   11 ar   
    22   10  136 1    
    23   11   12 ar   
    24   11  126 1    
    25   12   13 ar   
    26   12  137 1    
    27   13   14 ar   
    28   13   15 1    
    29   14  138 1    
    30   15   16 1    
    31   15  139 1    
    32   15  140 1    
    33   16   17 1    
    34   17   18 1    
    35   17  141 1    
    36   17  142 1    
    37   18   19 1    
    38   18   67 1    
    39   18  143 1    
    40   19   20 am   BACKBONE|DICT|INTERRES
    41   19  144 1    
    42   20   21 2    
    43   20   22 1    
    44   22   23 1    
    45   22   24 1    
    46   22  145 1    
    47   23  146 1    
    48   23  147 1    
    49   23  148 1    
    50   24   25 am   BACKBONE|DICT|INTERRES
    51   24  149 1    
    52   25   26 2    
    53   25   27 1    
    54   27   28 1    
    55   27   29 1    
    56   27  150 1    
    57   28  151 1    
    58   28  152 1    
    59   28  153 1    
    60   29   30 am   BACKBONE|DICT|INTERRES
    61   29  154 1    
    62   30   31 2    
    63   30   32 1    
    64   32   33 1    
    65   32   34 1    
    66   32  155 1    
    67   33  156 1    
    68   33  157 1    
    69   33  158 1    
    70   34   35 am   BACKBONE|DICT|INTERRES
    71   34  159 1    
    72   35   36 2    
    73   35   37 1    
    74   37   38 1    
    75   37   39 1    
    76   37  160 1    
    77   38  161 1    
    78   38  162 1    
    79   38  163 1    
    80   39   40 am   BACKBONE|DICT|INTERRES
    81   39  164 1    
    82   40   41 2    
    83   40   42 1    
    84   42   43 1    
    85   42   44 1    
    86   42  165 1    
    87   43  166 1    
    88   43  167 1    
    89   43  168 1    
    90   44   45 am   BACKBONE|DICT|INTERRES
    91   44  169 1    
    92   45   46 2    
    93   45   47 1    
    94   47   48 1    
    95   47   49 1    
    96   47  170 1    
    97   48  171 1    
    98   48  172 1    
    99   48  173 1    
   100   49   50 am   BACKBONE|DICT|INTERRES
   101   49  174 1    
   102   50   51 2    
   103   50   52 1    
   104   52   53 1    
   105   52   54 1    
   106   52  175 1    
   107   53  176 1    
   108   53  177 1    
   109   53  178 1    
   110   54   55 am   BACKBONE|DICT|INTERRES
   111   54  179 1    
   112   55   56 2    
   113   55   57 1    
   114   57   58 1    
   115   57   59 1    
   116   57  180 1    
   117   58  181 1    
   118   58  182 1    
   119   58  183 1    
   120   59   60 am   BACKBONE|DICT|INTERRES
   121   59  184 1    
   122   60   61 2    
   123   60   62 1    
   124   62   63 1    
   125   62   64 1    
   126   62  185 1    
   127   63  186 1    
   128   63  187 1    
   129   63  188 1    
   130   64   65 am   BACKBONE|DICT|INTERRES
   131   64  189 1    
   132   65   66 2    
   133   67   68 2    
   134   67   69 am   BACKBONE|DICT|INTERRES
   135   69   70 1    
   136   69  190 1    
   137   70   71 1    
   138   70   72 1    
   139   70  191 1    
   140   71  192 1    
   141   71  193 1    
   142   71  194 1    
   143   72   73 2    
   144   72   74 am   BACKBONE|DICT|INTERRES
   145   74   75 1    
   146   74  195 1    
   147   75   76 1    
   148   75   77 1    
   149   75  196 1    
   150   76  197 1    
   151   76  198 1    
   152   76  199 1    
   153   77   78 2    
   154   77   79 am   BACKBONE|DICT|INTERRES
   155   79   80 1    
   156   79  200 1    
   157   80   81 1    
   158   80   82 1    
   159   80  201 1    
   160   81  202 1    
   161   81  203 1    
   162   81  204 1    
   163   82   83 2    
   164   82   84 am   BACKBONE|DICT|INTERRES
   165   84   85 1    
   166   84  205 1    
   167   85   86 1    
   168   85   87 1    
   169   85  206 1    
   170   86  207 1    
   171   86  208 1    
   172   86  209 1    
   173   87   88 2    
   174   87   89 am   BACKBONE|DICT|INTERRES
   175   89   90 1    
   176   89  210 1    
   177   90   91 1    
   178   90   92 1    
   179   90  211 1    
   180   91  212 1    
   181   91  213 1    
   182   91  214 1    
   183   92   93 2    
   184   92   94 am   BACKBONE|DICT|INTERRES
   185   94   95 1    
   186   94  215 1    
   187   95   96 1    
   188   95   97 1    
   189   95  216 1    
   190   96  217 1    
   191   96  218 1    
   192   96  219 1    
   193   97   98 2    
   194   97   99 am   BACKBONE|DICT|INTERRES
   195   99  100 1    
   196   99  220 1    
   197  100  101 1    
   198  100  102 1    
   199  100  221 1    
   200  101  222 1    
   201  101  223 1    
   202  101  224 1    
   203  102  103 2    
   204  102  104 am   BACKBONE|DICT|INTERRES
   205  104  105 1    
   206  104  225 1    
   207  105  106 1    
   208  105  107 1    
   209  105  226 1    
   210  106  227 1    
   211  106  228 1    
   212  106  229 1    
   213  107  108 2    
   214  107  109 am   BACKBONE|DICT|INTERRES
   215  109  110 1    
   216  109  230 1    
   217  110  111 1    
   218  110  112 1    
   219  110  231 1    
   220  111  232 1    
   221  111  233 1    
   222  111  234 1    
   223  112  113 2    
   224  112  114 am   BACKBONE|DICT|INTERRES
   225  114  115 1    
   226  114  235 1    
   227  115  116 1    
   228  115  117 1    
   229  115  236 1    
   230  116  237 1    
   231  116  238 1    
   232  116  239 1    
   233  117  118 2    
   234  117  119 am   BACKBONE|DICT|INTERRES
   235  119  120 1    
   236  119  240 1    
   237  120  121 1    
   238  120  124 1    
   239  120  241 1    
   240  121  122 am   BACKBONE|DICT|INTERRES
   241  121  123 2    
   242  122  242 1    
   243  122  243 1    
   244  124  125 1    
   245  124  244 1    
   246  124  245 1    
   247  125  126 1    
   248  126  246 1    
   249  126  247 1    
@<TRIPOS>SUBSTRUCTURE
     1 UNK         1 GROUP             0       ****    0 ROOT    
