@<TRIPOS>MOLECULE
3R540
247   249    1
SMALL
USER_CHARGES


@<TRIPOS>ATOM
      1 CA         -3.3551  -15.5941  -50.2502 C.3       0 UNK        -0.1800 
      2 C          -2.5082  -14.6126  -49.4498 C.2       0 UNK         0.5000 
      3 O          -2.6288  -13.4010  -49.6305 O.2       0 UNK        -0.5000 
      4 N          -1.6651  -15.1272  -48.5468 N.am      1 UNK        -0.5000 
      5 CA         -0.7446  -14.3701  -47.6881 C.3       1 UNK         0.1400 
      6 C6          0.5292  -15.1917  -47.3456 C.3       23 UNK        -0.0398 
      7 S7          1.5353  -15.6543  -48.8043 S.3       23 UNK        -0.2404 
      8 C8          0.7358  -17.2158  -49.2767 C.3       23 UNK        -0.0205 
      9 C9          1.5733  -18.0784  -50.2041 C.ar      23 UNK        -0.0193 
     10 C10         1.5070  -17.9041  -51.5898 C.ar      23 UNK        -0.1150 
     11 C11         2.1324  -18.8133  -52.4493 C.ar      23 UNK        -0.0193 
     12 C12         2.8615  -19.8783  -51.9116 C.ar      23 UNK        -0.1150 
     13 C13         2.9195  -20.0682  -50.5292 C.ar      23 UNK        -0.0193 
     14 C14         2.3039  -19.1461  -49.6795 C.ar      23 UNK        -0.1150 
     15 C15         3.5212  -21.3410  -49.9542 C.3       23 UNK        -0.0205 
     16 S16         2.4793  -22.8207  -50.2616 S.3       23 UNK        -0.2404 
     17 C17         0.7491  -22.2375  -50.0689 C.3       23 UNK        -0.0398 
     18 CA          0.0867  -22.5488  -48.7047 C.3       11 UNK         0.1400 
     19 N           0.9570  -22.2610  -47.5630 N.am      11 UNK        -0.5000 
     20 C           0.6787  -22.5451  -46.2843 C.2       10 UNK         0.5000 
     21 O          -0.3590  -23.1009  -45.9250 O.2       10 UNK        -0.5000 
     22 CA          1.7031  -22.0909  -45.2279 C.3       10 UNK         0.1400 
     23 CB          3.1544  -22.0931  -45.7523 C.3       10 UNK        -0.1800 
     24 N           1.3982  -20.7820  -44.6422 N.am      10 UNK        -0.5000 
     25 C           1.1361  -19.6264  -45.2752 C.2       9 UNK         0.5000 
     26 O           0.9020  -19.5281  -46.4789 O.2       9 UNK        -0.5000 
     27 CA          1.1758  -18.3481  -44.4205 C.3       9 UNK         0.1400 
     28 CB         -0.1945  -18.0784  -43.7812 C.3       9 UNK        -0.1800 
     29 N           2.1955  -18.4078  -43.3737 N.am      9 UNK        -0.5000 
     30 C           3.5204  -18.4765  -43.5709 C.2       8 UNK         0.5000 
     31 O           4.0522  -18.4429  -44.6807 O.2       8 UNK        -0.5000 
     32 CA          4.3990  -18.6270  -42.3163 C.3       8 UNK         0.1400 
     33 CB          4.7601  -17.2545  -41.7270 C.3       8 UNK        -0.1800 
     34 N           3.7337  -19.4272  -41.2885 N.am      8 UNK        -0.5000 
     35 C           3.8480  -20.7550  -41.1611 C.2       7 UNK         0.5000 
     36 O           4.5776  -21.4503  -41.8687 O.2       7 UNK        -0.5000 
     37 CA          3.0039  -21.4262  -40.0583 C.3       7 UNK         0.1400 
     38 CB          3.8052  -21.5169  -38.7507 C.3       7 UNK        -0.1800 
     39 N           1.7324  -20.7489  -39.7915 N.am      7 UNK        -0.5000 
     40 C           0.7086  -20.6903  -40.6533 C.2       6 UNK         0.5000 
     41 O           0.7315  -21.1935  -41.7771 O.2       6 UNK        -0.5000 
     42 CA         -0.5342  -19.8945  -40.2021 C.3       6 UNK         0.1400 
     43 CB         -1.4507  -20.7793  -39.3442 C.3       6 UNK        -0.1800 
     44 N          -0.2704  -18.6333  -39.4914 N.am      6 UNK        -0.5000 
     45 C           0.5716  -17.6686  -39.8872 C.2       5 UNK         0.5000 
     46 O           1.3816  -17.8040  -40.8044 O.2       5 UNK        -0.5000 
     47 CA          0.5293  -16.3308  -39.1267 C.3       5 UNK         0.1400 
     48 CB          1.4331  -16.3941  -37.8864 C.3       5 UNK        -0.1800 
     49 N           0.9895  -15.2424  -39.9937 N.am      5 UNK        -0.5000 
     50 C           0.2969  -14.7601  -41.0340 C.2       4 UNK         0.5000 
     51 O          -0.8824  -15.0419  -41.2630 O.2       4 UNK        -0.5000 
     52 CA          1.0796  -13.8582  -42.0076 C.3       4 UNK         0.1400 
     53 CB          1.8175  -14.7105  -43.0532 C.3       4 UNK        -0.1800 
     54 N           0.2050  -12.9292  -42.7177 N.am      4 UNK        -0.5000 
     55 C          -0.3372  -11.8266  -42.1799 C.2       3 UNK         0.5000 
     56 O          -0.1099  -11.4470  -41.0302 O.2       3 UNK        -0.5000 
     57 CA         -1.2917  -11.0103  -43.0674 C.3       3 UNK         0.1400 
     58 CB         -0.5265   -9.8931  -43.8016 C.3       3 UNK        -0.1800 
     59 N          -1.9758  -11.8793  -44.0213 N.am      3 UNK        -0.5000 
     60 C          -3.0672  -11.5968  -44.7324 C.2       2 UNK         0.5000 
     61 O          -3.6439  -10.5080  -44.6999 O.2       2 UNK        -0.5000 
     62 CA         -3.5887  -12.7416  -45.6287 C.3       2 UNK         0.1400 
     63 CB         -4.8969  -12.3783  -46.3542 C.3       2 UNK        -0.1800 
     64 N          -2.6155  -13.1905  -46.6291 N.am      2 UNK        -0.5000 
     65 C          -1.4930  -13.8933  -46.4209 C.2       1 UNK         0.5000 
     66 O          -1.0765  -14.1942  -45.2988 O.2       1 UNK        -0.5000 
     67 C          -1.2750  -21.8210  -48.6130 C.2       11 UNK         0.5000 
     68 O          -2.2565  -22.3211  -49.1598 O.2       11 UNK        -0.5000 
     69 N          -1.3285  -20.6636  -47.9347 N.am      12 UNK        -0.5000 
     70 CA         -2.5702  -19.9333  -47.6646 C.3       12 UNK         0.1400 
     71 CB         -2.2695  -18.4480  -47.4263 C.3       12 UNK        -0.1800 
     72 C          -3.3667  -20.5288  -46.4932 C.2       12 UNK         0.5000 
     73 O          -4.5948  -20.4685  -46.5208 O.2       12 UNK        -0.5000 
     74 N          -2.6778  -21.1400  -45.5184 N.am      13 UNK        -0.5000 
     75 CA         -3.3064  -21.8948  -44.4291 C.3       13 UNK         0.1400 
     76 CB         -2.2982  -22.1063  -43.2890 C.3       13 UNK        -0.1800 
     77 C          -3.8850  -23.2326  -44.9317 C.2       13 UNK         0.5000 
     78 O          -4.9426  -23.6561  -44.4657 O.2       13 UNK        -0.5000 
     79 N          -3.2125  -23.8344  -45.9233 N.am      14 UNK        -0.5000 
     80 CA         -3.6812  -24.9903  -46.6927 C.3       14 UNK         0.1400 
     81 CB         -2.4725  -25.6285  -47.3955 C.3       14 UNK        -0.1800 
     82 C          -4.7782  -24.6416  -47.7252 C.2       14 UNK         0.5000 
     83 O          -5.3641  -25.5546  -48.3069 O.2       14 UNK        -0.5000 
     84 N          -5.0175  -23.3397  -47.9473 N.am      15 UNK        -0.5000 
     85 CA         -5.9784  -22.7239  -48.8718 C.3       15 UNK         0.1400 
     86 CB         -7.4238  -23.1558  -48.5538 C.3       15 UNK        -0.1800 
     87 C          -5.6343  -22.8859  -50.3679 C.2       15 UNK         0.5000 
     88 O          -6.4392  -22.5030  -51.2173 O.2       15 UNK        -0.5000 
     89 N          -4.4316  -23.3833  -50.6810 N.am      16 UNK        -0.5000 
     90 CA         -3.9084  -23.5068  -52.0403 C.3       16 UNK         0.1400 
     91 CB         -2.6563  -24.3958  -52.0341 C.3       16 UNK        -0.1800 
     92 C          -3.5986  -22.1341  -52.6558 C.2       16 UNK         0.5000 
     93 O          -3.9459  -21.8931  -53.8106 O.2       16 UNK        -0.5000 
     94 N          -2.9966  -21.2356  -51.8641 N.am      17 UNK        -0.5000 
     95 CA         -2.7198  -19.8593  -52.2848 C.3       17 UNK         0.1400 
     96 CB         -1.6705  -19.2253  -51.3686 C.3       17 UNK        -0.1800 
     97 C          -3.9865  -18.9899  -52.3493 C.2       17 UNK         0.5000 
     98 O          -4.0527  -18.0869  -53.1815 O.2       17 UNK        -0.5000 
     99 N          -4.9878  -19.3059  -51.5149 N.am      18 UNK        -0.5000 
    100 CA        -6.3136  -18.6810  -51.5453 C.3       18 UNK         0.1400 
    101 CB        -7.0938  -19.0668  -50.2795 C.3       18 UNK        -0.1800 
    102 C         -7.1000  -19.0538  -52.8186 C.2       18 UNK         0.5000 
    103 O         -7.8069  -18.2099  -53.3691 O.2       18 UNK        -0.5000 
    104 N         -6.9169  -20.2954  -53.2895 N.am      19 UNK        -0.5000 
    105 CA        -7.4243  -20.8014  -54.5666 C.3       19 UNK         0.1400 
    106 CB        -7.4831  -22.3361  -54.4909 C.3       19 UNK        -0.1800 
    107 C         -6.5824  -20.3540  -55.7828 C.2       19 UNK         0.5000 
    108 O         -6.9844  -20.6211  -56.9159 O.2       19 UNK        -0.5000 
    109 N         -5.4319  -19.7083  -55.5326 N.am      20 UNK        -0.5000 
    110 CA        -4.4138  -19.2688  -56.4949 C.3       20 UNK         0.1400 
    111 CB        -4.9744  -18.1864  -57.4404 C.3       20 UNK        -0.1800 
    112 C         -3.7386  -20.4391  -57.2442 C.2       20 UNK         0.5000 
    113 O         -3.3043  -20.2778  -58.3860 O.2       20 UNK        -0.5000 
    114 N         -3.6482  -21.5972  -56.5792 N.am      21 UNK        -0.5000 
    115 CA        -3.0623  -22.8330  -57.0962 C.3       21 UNK         0.1400 
    116 CB        -3.8467  -24.0203  -56.5122 C.3       21 UNK        -0.1800 
    117 C         -1.5611  -22.9620  -56.7702 C.2       21 UNK         0.5000 
    118 O         -0.9282  -23.9100  -57.2369 O.2       21 UNK        -0.5000 
    119 N         -1.0154  -22.0325  -55.9728 N.am      22 UNK        -0.5000 
    120 CA         0.3907  -22.0165  -55.5356 C.3       22 UNK         0.1400 
    121 C          1.4414  -21.6725  -56.6357 C.2       22 UNK         0.5000 
    122 N          1.0456  -21.2173  -57.8184 N.am      22 UNK        -0.7600 
    123 O          2.6382  -21.8330  -56.4127 O.2       22 UNK        -0.5000 
    124 C124        0.5798  -21.1655  -54.2536 C.3       23 UNK        -0.0398 
    125 S125        0.3422  -19.3650  -54.4935 S.3       23 UNK        -0.2404 
    126 C126        1.9516  -18.6897  -53.9555 C.3       23 UNK        -0.0205 
    127 H127       -3.1267  -15.5080  -51.3126 H         1 UNK         0.0600 
    128 H128       -4.4142  -15.3777  -50.1106 H         1 UNK         0.0600 
    129 H129       -3.1793  -16.6270  -49.9505 H         1 UNK         0.0600 
    130 H130       -1.6615  -16.1235  -48.3988 H         1 UNK         0.3000 
    131 H131       -0.4211  -13.4721  -48.2188 H         1 UNK         0.0600 
    132 H132        1.1798  -14.6104  -46.6896 H         1 UNK         0.0800 
    133 H133        0.2706  -16.0898  -46.7823 H         1 UNK         0.0800 
    134 H134       -0.2103  -16.9975  -49.7699 H         1 UNK         0.0800 
    135 H135        0.4944  -17.7845  -48.3794 H         1 UNK         0.0800 
    136 H136        0.9141  -17.0994  -52.0016 H         1 UNK         0.1150 
    137 H137        3.3246  -20.6028  -52.5662 H         1 UNK         0.1150 
    138 H138        2.3228  -19.3051  -48.6109 H         1 UNK         0.1150 
    139 H139        3.6840  -21.2353  -48.8814 H         1 UNK         0.0800 
    140 H140        4.5065  -21.5053  -50.3925 H         1 UNK         0.0800 
    141 H141        0.1717  -22.7166  -50.8610 H         1 UNK         0.0800 
    142 H142        0.6787  -21.1769  -50.2899 H         1 UNK         0.0800 
    143 H143       -0.1192  -23.6202  -48.6757 H         1 UNK         0.0600 
    144 H144        1.8127  -21.7692  -47.7694 H         1 UNK         0.3000 
    145 H145        1.6445  -22.8151  -44.4139 H         1 UNK         0.0600 
    146 H146        3.4011  -23.0388  -46.2369 H         1 UNK         0.0600 
    147 H147        3.8593  -21.9582  -44.9314 H         1 UNK         0.0600 
    148 H148        3.3348  -21.2908  -46.4680 H         1 UNK         0.0600 
    149 H149        1.4509  -20.7525  -43.6289 H         1 UNK         0.3000 
    150 H150        1.4245  -17.5110  -45.0754 H         1 UNK         0.0600 
    151 H151       -0.1588  -17.2291  -43.0994 H         1 UNK         0.0600 
    152 H152       -0.9443  -17.8470  -44.5354 H         1 UNK         0.0600 
    153 H153       -0.5507  -18.9418  -43.2212 H         1 UNK         0.0600 
    154 H154        1.8585  -18.3601  -42.4143 H         1 UNK         0.3000 
    155 H155        5.3279  -19.1138  -42.6212 H         1 UNK         0.0600 
    156 H156        3.8900  -16.7543  -41.3026 H         1 UNK         0.0600 
    157 H157        5.1838  -16.5975  -42.4876 H         1 UNK         0.0600 
    158 H158        5.5015  -17.3546  -40.9342 H         1 UNK         0.0600 
    159 H159        3.0497  -18.9417  -40.7195 H         1 UNK         0.3000 
    160 H160        2.7796  -22.4420  -40.3911 H         1 UNK         0.0600 
    161 H161        4.7498  -22.0397  -38.9067 H         1 UNK         0.0600 
    162 H162        3.2540  -22.0659  -37.9870 H         1 UNK         0.0600 
    163 H163        4.0387  -20.5285  -38.3527 H         1 UNK         0.0600 
    164 H164        1.6372  -20.2883  -38.8984 H         1 UNK         0.3000 
    165 H165       -1.0878  -19.6306  -41.1034 H         1 UNK         0.0600 
    166 H166       -1.6833  -21.7144  -39.8559 H         1 UNK         0.0600 
    167 H167       -0.9870  -21.0328  -38.3901 H         1 UNK         0.0600 
    168 H168       -2.3984  -20.2823  -39.1360 H         1 UNK         0.0600 
    169 H169       -0.8729  -18.4438  -38.7035 H         1 UNK         0.3000 
    170 H170       -0.4973  -16.1288  -38.8143 H         1 UNK         0.0600 
    171 H171        2.4696  -16.6062  -38.1529 H         1 UNK         0.0600 
    172 H172        1.1042  -17.1761  -37.2008 H         1 UNK         0.0600 
    173 H173        1.4139  -15.4530  -37.3364 H         1 UNK         0.0600 
    174 H174        1.9614  -14.9873  -39.9001 H         1 UNK         0.3000 
    175 H175        1.8160  -13.2858  -41.4394 H         1 UNK         0.0600 
    176 H176        2.4574  -15.4529  -42.5784 H         1 UNK         0.0600 
    177 H177        1.1211  -15.2461  -43.6989 H         1 UNK         0.0600 
    178 H178        2.4527  -14.0932  -43.6885 H         1 UNK         0.0600 
    179 H179       -0.0359  -13.1994  -43.6613 H         1 UNK         0.3000 
    180 H180       -2.0404  -10.5578  -42.4140 H         1 UNK         0.0600 
    181 H181        0.1977  -10.3018  -44.5072 H         1 UNK         0.0600 
    182 H182        0.0188   -9.2646  -43.0964 H         1 UNK         0.0600 
    183 H183       -1.2027   -9.2420  -44.3554 H         1 UNK         0.0600 
    184 H184       -1.5962  -12.8140  -44.1368 H         1 UNK         0.3000 
    185 H185       -3.8035  -13.5849  -44.9690 H         1 UNK         0.0600 
    186 H186       -5.6703  -12.0809  -45.6448 H         1 UNK         0.0600 
    187 H187       -4.7534  -11.5525  -47.0522 H         1 UNK         0.0600 
    188 H188       -5.2848  -13.2281  -46.9164 H         1 UNK         0.0600 
    189 H189       -2.8502  -12.9890  -47.5948 H         1 UNK         0.3000 
    190 H190       -0.4770  -20.2994  -47.5117 H         1 UNK         0.3000 
    191 H191       -3.2180  -19.9990  -48.5411 H         1 UNK         0.0600 
    192 H192       -3.1683  -17.9033  -47.1331 H         1 UNK         0.0600 
    193 H193       -1.5261  -18.3067  -46.6451 H         1 UNK         0.0600 
    194 H194       -1.8937  -17.9837  -48.3336 H         1 UNK         0.0600 
    195 H195       -1.6733  -21.2120  -45.5962 H         1 UNK         0.3000 
    196 H196       -4.1348  -21.3025  -44.0344 H         1 UNK         0.0600 
    197 H197       -1.4503  -22.7178  -43.5961 H         1 UNK         0.0600 
    198 H198       -2.7693  -22.6060  -42.4418 H         1 UNK         0.0600 
    199 H199       -1.9086  -21.1548  -42.9287 H         1 UNK         0.0600 
    200 H200       -2.2995  -23.4650  -46.1696 H         1 UNK         0.3000 
    201 H201       -4.1016  -25.7210  -45.9988 H         1 UNK         0.0600 
    202 H202       -2.7580  -26.5484  -47.9072 H         1 UNK         0.0600 
    203 H203       -1.6882  -25.8834  -46.6824 H         1 UNK         0.0600 
    204 H204       -2.0437  -24.9598  -48.1415 H         1 UNK         0.0600 
    205 H205       -4.4690  -22.6821  -47.4118 H         1 UNK         0.3000 
    206 H206       -5.9162  -21.6528  -48.6770 H         1 UNK         0.0600 
    207 H207       -7.5989  -24.2037  -48.7979 H         1 UNK         0.0600 
    208 H208       -7.6547  -23.0122  -47.4982 H         1 UNK         0.0600 
    209 H209       -8.1425  -22.5663  -49.1244 H         1 UNK         0.0600 
    210 H210       -3.7826  -23.5652  -49.9258 H         1 UNK         0.3000 
    211 H211       -4.6676  -23.9881  -52.6606 H         1 UNK         0.0600 
    212 H212       -2.2450  -24.4990  -53.0393 H         1 UNK         0.0600 
    213 H213       -2.8893  -25.3978  -51.6735 H         1 UNK         0.0600 
    214 H214       -1.8717  -23.9871  -51.3973 H         1 UNK         0.0600 
    215 H215       -2.7479  -21.5088  -50.9193 H         1 UNK         0.3000 
    216 H216       -2.3044  -19.8897  -53.2936 H         1 UNK         0.0600 
    217 H217       -2.0047  -19.1859  -50.3364 H         1 UNK         0.0600 
    218 H218       -0.7357  -19.7811  -51.4057 H         1 UNK         0.0600 
    219 H219       -1.4506  -18.2042  -51.6822 H         1 UNK         0.0600 
    220 H220       -4.8608  -20.0788  -50.8811 H         1 UNK         0.3000 
    221 H221       -6.1767  -17.5973  -51.5419 H         1 UNK         0.0600 
    222 H222       -7.3062  -20.1350  -50.2424 H         1 UNK         0.0600 
    223 H223       -6.5429  -18.8005  -49.3771 H         1 UNK         0.0600 
    224 H224       -8.0507  -18.5449  -50.2417 H         1 UNK         0.0600 
    225 H225       -6.3775  -20.9507  -52.7365 H         1 UNK         0.3000 
    226 H226       -8.4392  -20.4273  -54.7153 H         1 UNK         0.0600 
    227 H227       -8.1066  -22.6663  -53.6597 H         1 UNK         0.0600 
    228 H228       -7.9067  -22.7596  -55.4023 H         1 UNK         0.0600 
    229 H229       -6.4919  -22.7708  -54.3573 H         1 UNK         0.0600 
    230 H230       -5.2036  -19.5360  -54.5634 H         1 UNK         0.3000 
    231 H231       -3.6250  -18.8040  -55.9019 H         1 UNK         0.0600 
    232 H232       -5.7197  -18.5909  -58.1255 H         1 UNK         0.0600 
    233 H233       -4.1806  -17.7469  -58.0455 H         1 UNK         0.0600 
    234 H234       -5.4385  -17.3756  -56.8788 H         1 UNK         0.0600 
    235 H235       -3.9774  -21.6365  -55.6161 H         1 UNK         0.3000 
    236 H236       -3.1662  -22.8596  -58.1828 H         1 UNK         0.0600 
    237 H237       -3.7401  -24.0813  -55.4287 H         1 UNK         0.0600 
    238 H238       -4.9099  -23.9403  -56.7396 H         1 UNK         0.0600 
    239 H239       -3.4960  -24.9651  -56.9293 H         1 UNK         0.0600 
    240 H240       -1.5982  -21.2783  -55.6432 H         1 UNK         0.3000 
    241 H241        0.6238  -23.0437  -55.2480 H         1 UNK         0.0600 
    242 H242        1.7327  -21.0028  -58.5237 H         1 UNK         0.3800 
    243 H243        0.0668  -21.0789  -58.0122 H         1 UNK         0.3800 
    244 H244        1.5702  -21.3579  -53.8438 H         1 UNK         0.0800 
    245 H245       -0.1175  -21.4977  -53.4834 H         1 UNK         0.0800 
    246 H246        2.0081  -17.6388  -54.2427 H         1 UNK         0.0800 
    247 H247        2.7587  -19.1963  -54.4875 H         1 UNK         0.0800 
@<TRIPOS>BOND
     1    1    2 1    
     2    1  127 1    
     3    1  128 1    
     4    1  129 1    
     5    2    3 2    
     6    2    4 am   BACKBONE|DICT|INTERRES
     7    4    5 1    
     8    4  130 1    
     9    5    6 1    
    10    5   65 1    
    11    5  131 1    
    12    6    7 1    
    13    6  132 1    
    14    6  133 1    
    15    7    8 1    
    16    8    9 1    
    17    8  134 1    
    18    8  135 1    
    19    9   10 ar   
    20    9   14 ar   
    21   10   11 ar   
    22   10  136 1    
    23   11   12 ar   
    24   11  126 1    
    25   12   13 ar   
    26   12  137 1    
    27   13   14 ar   
    28   13   15 1    
    29   14  138 1    
    30   15   16 1    
    31   15  139 1    
    32   15  140 1    
    33   16   17 1    
    34   17   18 1    
    35   17  141 1    
    36   17  142 1    
    37   18   19 1    
    38   18   67 1    
    39   18  143 1    
    40   19   20 am   BACKBONE|DICT|INTERRES
    41   19  144 1    
    42   20   21 2    
    43   20   22 1    
    44   22   23 1    
    45   22   24 1    
    46   22  145 1    
    47   23  146 1    
    48   23  147 1    
    49   23  148 1    
    50   24   25 am   BACKBONE|DICT|INTERRES
    51   24  149 1    
    52   25   26 2    
    53   25   27 1    
    54   27   28 1    
    55   27   29 1    
    56   27  150 1    
    57   28  151 1    
    58   28  152 1    
    59   28  153 1    
    60   29   30 am   BACKBONE|DICT|INTERRES
    61   29  154 1    
    62   30   31 2    
    63   30   32 1    
    64   32   33 1    
    65   32   34 1    
    66   32  155 1    
    67   33  156 1    
    68   33  157 1    
    69   33  158 1    
    70   34   35 am   BACKBONE|DICT|INTERRES
    71   34  159 1    
    72   35   36 2    
    73   35   37 1    
    74   37   38 1    
    75   37   39 1    
    76   37  160 1    
    77   38  161 1    
    78   38  162 1    
    79   38  163 1    
    80   39   40 am   BACKBONE|DICT|INTERRES
    81   39  164 1    
    82   40   41 2    
    83   40   42 1    
    84   42   43 1    
    85   42   44 1    
    86   42  165 1    
    87   43  166 1    
    88   43  167 1    
    89   43  168 1    
    90   44   45 am   BACKBONE|DICT|INTERRES
    91   44  169 1    
    92   45   46 2    
    93   45   47 1    
    94   47   48 1    
    95   47   49 1    
    96   47  170 1    
    97   48  171 1    
    98   48  172 1    
    99   48  173 1    
   100   49   50 am   BACKBONE|DICT|INTERRES
   101   49  174 1    
   102   50   51 2    
   103   50   52 1    
   104   52   53 1    
   105   52   54 1    
   106   52  175 1    
   107   53  176 1    
   108   53  177 1    
   109   53  178 1    
   110   54   55 am   BACKBONE|DICT|INTERRES
   111   54  179 1    
   112   55   56 2    
   113   55   57 1    
   114   57   58 1    
   115   57   59 1    
   116   57  180 1    
   117   58  181 1    
   118   58  182 1    
   119   58  183 1    
   120   59   60 am   BACKBONE|DICT|INTERRES
   121   59  184 1    
   122   60   61 2    
   123   60   62 1    
   124   62   63 1    
   125   62   64 1    
   126   62  185 1    
   127   63  186 1    
   128   63  187 1    
   129   63  188 1    
   130   64   65 am   BACKBONE|DICT|INTERRES
   131   64  189 1    
   132   65   66 2    
   133   67   68 2    
   134   67   69 am   BACKBONE|DICT|INTERRES
   135   69   70 1    
   136   69  190 1    
   137   70   71 1    
   138   70   72 1    
   139   70  191 1    
   140   71  192 1    
   141   71  193 1    
   142   71  194 1    
   143   72   73 2    
   144   72   74 am   BACKBONE|DICT|INTERRES
   145   74   75 1    
   146   74  195 1    
   147   75   76 1    
   148   75   77 1    
   149   75  196 1    
   150   76  197 1    
   151   76  198 1    
   152   76  199 1    
   153   77   78 2    
   154   77   79 am   BACKBONE|DICT|INTERRES
   155   79   80 1    
   156   79  200 1    
   157   80   81 1    
   158   80   82 1    
   159   80  201 1    
   160   81  202 1    
   161   81  203 1    
   162   81  204 1    
   163   82   83 2    
   164   82   84 am   BACKBONE|DICT|INTERRES
   165   84   85 1    
   166   84  205 1    
   167   85   86 1    
   168   85   87 1    
   169   85  206 1    
   170   86  207 1    
   171   86  208 1    
   172   86  209 1    
   173   87   88 2    
   174   87   89 am   BACKBONE|DICT|INTERRES
   175   89   90 1    
   176   89  210 1    
   177   90   91 1    
   178   90   92 1    
   179   90  211 1    
   180   91  212 1    
   181   91  213 1    
   182   91  214 1    
   183   92   93 2    
   184   92   94 am   BACKBONE|DICT|INTERRES
   185   94   95 1    
   186   94  215 1    
   187   95   96 1    
   188   95   97 1    
   189   95  216 1    
   190   96  217 1    
   191   96  218 1    
   192   96  219 1    
   193   97   98 2    
   194   97   99 am   BACKBONE|DICT|INTERRES
   195   99  100 1    
   196   99  220 1    
   197  100  101 1    
   198  100  102 1    
   199  100  221 1    
   200  101  222 1    
   201  101  223 1    
   202  101  224 1    
   203  102  103 2    
   204  102  104 am   BACKBONE|DICT|INTERRES
   205  104  105 1    
   206  104  225 1    
   207  105  106 1    
   208  105  107 1    
   209  105  226 1    
   210  106  227 1    
   211  106  228 1    
   212  106  229 1    
   213  107  108 2    
   214  107  109 am   BACKBONE|DICT|INTERRES
   215  109  110 1    
   216  109  230 1    
   217  110  111 1    
   218  110  112 1    
   219  110  231 1    
   220  111  232 1    
   221  111  233 1    
   222  111  234 1    
   223  112  113 2    
   224  112  114 am   BACKBONE|DICT|INTERRES
   225  114  115 1    
   226  114  235 1    
   227  115  116 1    
   228  115  117 1    
   229  115  236 1    
   230  116  237 1    
   231  116  238 1    
   232  116  239 1    
   233  117  118 2    
   234  117  119 am   BACKBONE|DICT|INTERRES
   235  119  120 1    
   236  119  240 1    
   237  120  121 1    
   238  120  124 1    
   239  120  241 1    
   240  121  122 am   BACKBONE|DICT|INTERRES
   241  121  123 2    
   242  122  242 1    
   243  122  243 1    
   244  124  125 1    
   245  124  244 1    
   246  124  245 1    
   247  125  126 1    
   248  126  246 1    
   249  126  247 1    
@<TRIPOS>SUBSTRUCTURE
     1 UNK         1 GROUP             0       ****    0 ROOT    
