@<TRIPOS>MOLECULE
3R540
247   249    1
SMALL
USER_CHARGES


@<TRIPOS>ATOM
      1 CA          4.0607  -11.3006  -43.2759 C.3       0 UNK        -0.1800 
      2 C           2.8853  -11.5660  -44.2054 C.2       0 UNK         0.5000 
      3 O           1.8163  -10.9846  -44.0207 O.2       0 UNK        -0.5000 
      4 N           3.0800  -12.4449  -45.1971 N.am      1 UNK        -0.5000 
      5 CA          2.0682  -12.8397  -46.1859 C.3       1 UNK         0.1400 
      6 C6          2.5135  -14.0736  -47.0103 C.3       23 UNK        -0.0398 
      7 S7          2.9147  -15.5195  -45.9687 S.3       23 UNK        -0.2404 
      8 C8          4.3245  -16.2378  -46.8721 C.3       23 UNK        -0.0205 
      9 C9          3.8896  -17.3067  -47.8660 C.ar      23 UNK        -0.0193 
     10 C10         3.0511  -16.9959  -48.9424 C.ar      23 UNK        -0.1150 
     11 C11         2.6362  -17.9890  -49.8375 C.ar      23 UNK        -0.0193 
     12 C12         3.1066  -19.2959  -49.6709 C.ar      23 UNK        -0.1150 
     13 C13         3.9752  -19.6114  -48.6217 C.ar      23 UNK        -0.0193 
     14 C14         4.3502  -18.6167  -47.7166 C.ar      23 UNK        -0.1150 
     15 C15         4.5328  -21.0180  -48.4694 C.3       23 UNK        -0.0205 
     16 S16         3.6971  -21.9309  -47.1390 S.3       23 UNK        -0.2404 
     17 C17         2.0599  -22.2118  -47.8889 C.3       23 UNK        -0.0398 
     18 CA          1.4422  -23.5549  -47.4385 C.3       11 UNK         0.1400 
     19 N           1.2775  -23.6230  -45.9841 N.am      11 UNK        -0.5000 
     20 C           0.8888  -24.7045  -45.2971 C.2       10 UNK         0.5000 
     21 O           0.6342  -25.7902  -45.8143 O.2       10 UNK        -0.5000 
     22 CA          0.7156  -24.5327  -43.7784 C.3       10 UNK         0.1400 
     23 CB          2.0265  -24.8590  -43.0487 C.3       10 UNK        -0.1800 
     24 N           0.2715  -23.1940  -43.3885 N.am      10 UNK        -0.5000 
     25 C          -0.8655  -22.5976  -43.7647 C.2       9 UNK         0.5000 
     26 O          -1.6745  -23.1074  -44.5425 O.2       9 UNK        -0.5000 
     27 CA         -1.1354  -21.1886  -43.2006 C.3       9 UNK         0.1400 
     28 CB         -1.6869  -21.2641  -41.7655 C.3       9 UNK        -0.1800 
     29 N          -0.0062  -20.2492  -43.2862 N.am      9 UNK        -0.5000 
     30 C           1.1952  -20.2864  -42.6837 C.2       8 UNK         0.5000 
     31 O           1.5648  -21.2011  -41.9467 O.2       8 UNK        -0.5000 
     32 CA          2.1624  -19.1130  -42.9551 C.3       8 UNK         0.1400 
     33 CB          3.1642  -19.4965  -44.0566 C.3       8 UNK        -0.1800 
     34 N           1.4896  -17.8772  -43.3532 N.am      8 UNK        -0.5000 
     35 C           0.6663  -17.1484  -42.5853 C.2       7 UNK         0.5000 
     36 O           0.4811  -17.3605  -41.3867 O.2       7 UNK        -0.5000 
     37 CA         -0.1158  -16.0191  -43.2906 C.3       7 UNK         0.1400 
     38 CB          0.5403  -14.6551  -43.0265 C.3       7 UNK        -0.1800 
     39 N          -0.2472  -16.2170  -44.7386 N.am      7 UNK        -0.5000 
     40 C          -0.8627  -17.2482  -45.3304 C.2       6 UNK         0.5000 
     41 O          -1.4662  -18.1271  -44.7138 O.2       6 UNK        -0.5000 
     42 CA         -0.7583  -17.3155  -46.8627 C.3       6 UNK         0.1400 
     43 CB         -0.9260  -18.7563  -47.3811 C.3       6 UNK        -0.1800 
     44 N          -1.7406  -16.4322  -47.4895 N.am      6 UNK        -0.5000 
     45 C          -1.6413  -15.1000  -47.5331 C.2       5 UNK         0.5000 
     46 O          -0.6838  -14.4723  -47.0777 O.2       5 UNK        -0.5000 
     47 CA         -2.8154  -14.3353  -48.1533 C.3       5 UNK         0.1400 
     48 CB         -3.9237  -14.1126  -47.1056 C.3       5 UNK        -0.1800 
     49 N          -2.3147  -13.0573  -48.6441 N.am      5 UNK        -0.5000 
     50 C          -2.9525  -12.2337  -49.4826 C.2       4 UNK         0.5000 
     51 O          -4.0790  -12.4459  -49.9311 O.2       4 UNK        -0.5000 
     52 CA         -2.1982  -10.9636  -49.9029 C.3       4 UNK         0.1400 
     53 CB         -2.3316   -9.8725  -48.8287 C.3       4 UNK        -0.1800 
     54 N          -0.7813  -11.2375  -50.1308 N.am      4 UNK        -0.5000 
     55 C          -0.2470  -11.5915  -51.3085 C.2       3 UNK         0.5000 
     56 O          -0.9156  -11.7471  -52.3316 O.2       3 UNK        -0.5000 
     57 CA          1.2849  -11.8149  -51.3596 C.3       3 UNK         0.1400 
     58 CB          1.9086  -11.3307  -52.6850 C.3       3 UNK        -0.1800 
     59 N           2.0058  -11.2590  -50.2066 N.am      3 UNK        -0.5000 
     60 C           2.0713   -9.9766  -49.8128 C.2       2 UNK         0.5000 
     61 O           1.6568   -9.0330  -50.4872 O.2       2 UNK        -0.5000 
     62 CA          2.6601   -9.7108  -48.4062 C.3       2 UNK         0.1400 
     63 CB          1.9242   -8.5621  -47.6858 C.3       2 UNK        -0.1800 
     64 N           2.7183  -10.8912  -47.5273 N.am      2 UNK        -0.5000 
     65 C           1.7024  -11.6817  -47.1381 C.2       1 UNK         0.5000 
     66 O           0.5402  -11.5472  -47.5253 O.2       1 UNK        -0.5000 
     67 C           0.1128  -23.8028  -48.1754 C.2       11 UNK         0.5000 
     68 O           0.0763  -24.5911  -49.1202 O.2       11 UNK        -0.5000 
     69 N          -0.9605  -23.1551  -47.7005 N.am      12 UNK        -0.5000 
     70 CA         -2.3114  -23.3103  -48.2339 C.3       12 UNK         0.1400 
     71 CB         -3.2104  -22.1928  -47.6902 C.3       12 UNK        -0.1800 
     72 C          -2.8922  -24.6981  -47.9245 C.2       12 UNK         0.5000 
     73 O          -3.5059  -25.3038  -48.8023 O.2       12 UNK        -0.5000 
     74 N          -2.6378  -25.1982  -46.7065 N.am      13 UNK        -0.5000 
     75 CA         -3.0265  -26.5383  -46.2660 C.3       13 UNK         0.1400 
     76 CB         -2.7236  -26.6983  -44.7689 C.3       13 UNK        -0.1800 
     77 C          -2.3552  -27.6540  -47.0902 C.2       13 UNK         0.5000 
     78 O          -3.0388  -28.5874  -47.5107 O.2       13 UNK        -0.5000 
     79 N          -1.0453  -27.5170  -47.3430 N.am      14 UNK        -0.5000 
     80 CA         -0.2507  -28.4312  -48.1666 C.3       14 UNK         0.1400 
     81 CB          1.2398  -28.0887  -48.0211 C.3       14 UNK        -0.1800 
     82 C          -0.6642  -28.4193  -49.6494 C.2       14 UNK         0.5000 
     83 O          -0.6890  -29.4764  -50.2809 O.2       14 UNK        -0.5000 
     84 N          -1.0038  -27.2327  -50.1713 N.am      15 UNK        -0.5000 
     85 CA         -1.5136  -27.0381  -51.5305 C.3       15 UNK         0.1400 
     86 CB         -1.3998  -25.5489  -51.8936 C.3       15 UNK        -0.1800 
     87 C          -2.9673  -27.5181  -51.7193 C.2       15 UNK         0.5000 
     88 O          -3.3943  -27.6880  -52.8621 O.2       15 UNK        -0.5000 
     89 N          -3.6994  -27.6960  -50.6083 N.am      16 UNK        -0.5000 
     90 CA         -5.1414  -27.9496  -50.5170 C.3       16 UNK         0.1400 
     91 CB         -5.5037  -29.3311  -51.1003 C.3       16 UNK        -0.1800 
     92 C          -5.9592  -26.7886  -51.1232 C.2       16 UNK         0.5000 
     93 O          -6.9227  -27.0140  -51.8586 O.2       16 UNK        -0.5000 
     94 N          -5.5248  -25.5625  -50.8157 N.am      17 UNK        -0.5000 
     95 CA         -6.0625  -24.3027  -51.3137 C.3       17 UNK         0.1400 
     96 CB         -4.9314  -23.5685  -52.0553 C.3       17 UNK        -0.1800 
     97 C          -6.5781  -23.4488  -50.1453 C.2       17 UNK         0.5000 
     98 O          -6.3365  -23.7681  -48.9784 O.2       17 UNK        -0.5000 
     99 N          -7.2664  -22.3532  -50.4837 N.am      18 UNK        -0.5000 
    100 CA        -7.6493  -21.3089  -49.5369 C.3       18 UNK         0.1400 
    101 CB        -8.7301  -20.4244  -50.1776 C.3       18 UNK        -0.1800 
    102 C         -6.4290  -20.4564  -49.1502 C.2       18 UNK         0.5000 
    103 O         -5.5424  -20.2394  -49.9830 O.2       18 UNK        -0.5000 
    104 N         -6.4282  -19.9360  -47.9162 N.am      19 UNK        -0.5000 
    105 CA        -5.3904  -19.0317  -47.4148 C.3       19 UNK         0.1400 
    106 CB        -5.5879  -18.7816  -45.9135 C.3       19 UNK        -0.1800 
    107 C         -5.3437  -17.7061  -48.1921 C.2       19 UNK         0.5000 
    108 O         -4.2539  -17.2250  -48.4944 O.2       19 UNK        -0.5000 
    109 N         -6.5202  -17.1835  -48.5660 N.am      20 UNK        -0.5000 
    110 CA        -6.6880  -15.9793  -49.3860 C.3       20 UNK         0.1400 
    111 CB        -8.1654  -15.5605  -49.3548 C.3       20 UNK        -0.1800 
    112 C         -6.2050  -16.1447  -50.8419 C.2       20 UNK         0.5000 
    113 O         -5.8756  -15.1496  -51.4859 O.2       20 UNK        -0.5000 
    114 N         -6.1492  -17.3923  -51.3286 N.am      21 UNK        -0.5000 
    115 CA        -5.5681  -17.7575  -52.6232 C.3       21 UNK         0.1400 
    116 CB        -6.2985  -18.9997  -53.1612 C.3       21 UNK        -0.1800 
    117 C         -4.0484  -18.0122  -52.5292 C.2       21 UNK         0.5000 
    118 O         -3.4159  -18.2736  -53.5530 O.2       21 UNK        -0.5000 
    119 N         -3.4936  -17.9431  -51.3115 N.am      22 UNK        -0.5000 
    120 CA        -2.1106  -18.2819  -50.9570 C.3       22 UNK         0.1400 
    121 C         -1.7974  -19.8077  -51.0434 C.2       22 UNK         0.5000 
    122 N         -2.7866  -20.6857  -50.9165 N.am      22 UNK        -0.7600 
    123 O         -0.6514  -20.2127  -51.2116 O.2       22 UNK        -0.5000 
    124 C124       -1.0572  -17.3587  -51.6434 C.3       23 UNK        -0.0398 
    125 S125        0.2089  -16.7636  -50.4681 S.3       23 UNK        -0.2404 
    126 C126        1.7067  -17.6568  -51.0015 C.3       23 UNK        -0.0205 
    127 H127        4.3326  -10.2455  -43.3067 H         1 UNK         0.0600 
    128 H128        4.9376  -11.8862  -43.5529 H         1 UNK         0.0600 
    129 H129        3.7924  -11.5552  -42.2505 H         1 UNK         0.0600 
    130 H130        3.9714  -12.9136  -45.2734 H         1 UNK         0.3000 
    131 H131        1.1604  -13.1048  -45.6405 H         1 UNK         0.0600 
    132 H132        1.7356  -14.3710  -47.7134 H         1 UNK         0.0800 
    133 H133        3.3805  -13.8172  -47.6206 H         1 UNK         0.0800 
    134 H134        4.8969  -15.4671  -47.3886 H         1 UNK         0.0800 
    135 H135        5.0046  -16.6655  -46.1340 H         1 UNK         0.0800 
    136 H136        2.7059  -15.9826  -49.0800 H         1 UNK         0.1150 
    137 H137        2.8067  -20.0667  -50.3670 H         1 UNK         0.1150 
    138 H138        5.0111  -18.8671  -46.8984 H         1 UNK         0.1150 
    139 H139        4.4575  -21.5726  -49.4061 H         1 UNK         0.0800 
    140 H140        5.5975  -20.9594  -48.2386 H         1 UNK         0.0800 
    141 H141        2.1602  -22.1947  -48.9758 H         1 UNK         0.0800 
    142 H142        1.4142  -21.3713  -47.6277 H         1 UNK         0.0800 
    143 H143        2.1248  -24.3575  -47.7271 H         1 UNK         0.0600 
    144 H144        1.4865  -22.7812  -45.4689 H         1 UNK         0.3000 
    145 H145       -0.0461  -25.2413  -43.4491 H         1 UNK         0.0600 
    146 H146        1.8947  -24.8243  -41.9671 H         1 UNK         0.0600 
    147 H147        2.3763  -25.8609  -43.3015 H         1 UNK         0.0600 
    148 H148        2.8186  -24.1567  -43.3124 H         1 UNK         0.0600 
    149 H149        0.8758  -22.6723  -42.7569 H         1 UNK         0.3000 
    150 H150       -1.9192  -20.7556  -43.8244 H         1 UNK         0.0600 
    151 H151       -2.5813  -21.8871  -41.7247 H         1 UNK         0.0600 
    152 H152       -1.9624  -20.2751  -41.3991 H         1 UNK         0.0600 
    153 H153       -0.9622  -21.6889  -41.0704 H         1 UNK         0.0600 
    154 H154       -0.2142  -19.4323  -43.8506 H         1 UNK         0.3000 
    155 H155        2.7148  -18.9183  -42.0338 H         1 UNK         0.0600 
    156 H156        2.6662  -19.6774  -45.0104 H         1 UNK         0.0600 
    157 H157        3.9027  -18.7094  -44.2111 H         1 UNK         0.0600 
    158 H158        3.7087  -20.4047  -43.7945 H         1 UNK         0.0600 
    159 H159        1.6082  -17.5907  -44.3139 H         1 UNK         0.3000 
    160 H160       -1.1219  -16.0047  -42.8669 H         1 UNK         0.0600 
    161 H161        1.5558  -14.6118  -43.4209 H         1 UNK         0.0600 
    162 H162        0.5974  -14.4505  -41.9567 H         1 UNK         0.0600 
    163 H163       -0.0312  -13.8454  -43.4807 H         1 UNK         0.0600 
    164 H164        0.1606  -15.5077  -45.3361 H         1 UNK         0.3000 
    165 H165        0.2454  -16.9861  -47.1422 H         1 UNK         0.0600 
    166 H166       -0.5715  -18.8499  -48.4058 H         1 UNK         0.0600 
    167 H167       -0.3388  -19.4606  -46.7902 H         1 UNK         0.0600 
    168 H168       -1.9657  -19.0803  -47.3426 H         1 UNK         0.0600 
    169 H169       -2.5925  -16.8604  -47.8442 H         1 UNK         0.3000 
    170 H170       -3.2034  -14.9052  -48.9995 H         1 UNK         0.0600 
    171 H171       -4.2849  -15.0616  -46.7081 H         1 UNK         0.0600 
    172 H172       -3.5625  -13.5210  -46.2635 H         1 UNK         0.0600 
    173 H173       -4.7825  -13.5953  -47.5322 H         1 UNK         0.0600 
    174 H174       -1.3863  -12.8214  -48.3096 H         1 UNK         0.3000 
    175 H175       -2.6524  -10.5872  -50.8220 H         1 UNK         0.0600 
    176 H176       -1.8991  -10.1855  -47.8774 H         1 UNK         0.0600 
    177 H177       -1.8303   -8.9547  -49.1367 H         1 UNK         0.0600 
    178 H178       -3.3792   -9.6280  -48.6491 H         1 UNK         0.0600 
    179 H179       -0.1782  -11.1805  -49.3159 H         1 UNK         0.3000 
    180 H180        1.4266  -12.8954  -51.3073 H         1 UNK         0.0600 
    181 H181        1.7322  -10.2680  -52.8528 H         1 UNK         0.0600 
    182 H182        1.4872  -11.8680  -53.5353 H         1 UNK         0.0600 
    183 H183        2.9854  -11.4991  -52.6990 H         1 UNK         0.0600 
    184 H184        2.3897  -11.9435  -49.5726 H         1 UNK         0.3000 
    185 H185        3.6923   -9.3963  -48.5663 H         1 UNK         0.0600 
    186 H186        1.9973   -7.6310  -48.2490 H         1 UNK         0.0600 
    187 H187        0.8643   -8.7828  -47.5542 H         1 UNK         0.0600 
    188 H188        2.3519   -8.3767  -46.7004 H         1 UNK         0.0600 
    189 H189        3.6330  -11.0986  -47.1510 H         1 UNK         0.3000 
    190 H190       -0.8637  -22.5856  -46.8728 H         1 UNK         0.3000 
    191 H191       -2.2635  -23.2064  -49.3195 H         1 UNK         0.0600 
    192 H192       -3.2760  -22.2123  -46.6020 H         1 UNK         0.0600 
    193 H193       -4.2231  -22.2833  -48.0826 H         1 UNK         0.0600 
    194 H194       -2.8336  -21.2162  -47.9900 H         1 UNK         0.0600 
    195 H195       -2.1415  -24.6195  -46.0390 H         1 UNK         0.3000 
    196 H196       -4.1062  -26.6277  -46.4036 H         1 UNK         0.0600 
    197 H197       -3.0799  -27.6615  -44.4017 H         1 UNK         0.0600 
    198 H198       -3.2143  -25.9227  -44.1805 H         1 UNK         0.0600 
    199 H199       -1.6545  -26.6474  -44.5655 H         1 UNK         0.0600 
    200 H200       -0.5396  -26.7460  -46.9129 H         1 UNK         0.3000 
    201 H201       -0.4053  -29.4435  -47.7876 H         1 UNK         0.0600 
    202 H202        1.5668  -28.1875  -46.9859 H         1 UNK         0.0600 
    203 H203        1.4504  -27.0677  -48.3421 H         1 UNK         0.0600 
    204 H204        1.8567  -28.7578  -48.6222 H         1 UNK         0.0600 
    205 H205       -0.8963  -26.3984  -49.6046 H         1 UNK         0.3000 
    206 H206       -0.8870  -27.6070  -52.2204 H         1 UNK         0.0600 
    207 H207       -0.3658  -25.2076  -51.8413 H         1 UNK         0.0600 
    208 H208       -1.7520  -25.3627  -52.9090 H         1 UNK         0.0600 
    209 H209       -1.9923  -24.9271  -51.2219 H         1 UNK         0.0600 
    210 H210       -3.2468  -27.4933  -49.7265 H         1 UNK         0.3000 
    211 H211       -5.3791  -27.9683  -49.4524 H         1 UNK         0.0600 
    212 H212       -5.3504  -29.3725  -52.1788 H         1 UNK         0.0600 
    213 H213       -6.5506  -29.5702  -50.9108 H         1 UNK         0.0600 
    214 H214       -4.9034  -30.1190  -50.6452 H         1 UNK         0.0600 
    215 H215       -4.7828  -25.4720  -50.1232 H         1 UNK         0.3000 
    216 H216       -6.8913  -24.4780  -52.0025 H         1 UNK         0.0600 
    217 H217       -5.2737  -22.6203  -52.4717 H         1 UNK         0.0600 
    218 H218       -4.5511  -24.1675  -52.8830 H         1 UNK         0.0600 
    219 H219       -4.0949  -23.3523  -51.3901 H         1 UNK         0.0600 
    220 H220       -7.3979  -22.1400  -51.4612 H         1 UNK         0.3000 
    221 H221       -8.0613  -21.7744  -48.6389 H         1 UNK         0.0600 
    222 H222       -8.3690  -19.9333  -51.0819 H         1 UNK         0.0600 
    223 H223       -9.6100  -21.0101  -50.4444 H         1 UNK         0.0600 
    224 H224       -9.0583  -19.6442  -49.4896 H         1 UNK         0.0600 
    225 H225       -7.1857  -20.1541  -47.2848 H         1 UNK         0.3000 
    226 H226       -4.4249  -19.5207  -47.5499 H         1 UNK         0.0600 
    227 H227       -5.5403  -19.7137  -45.3502 H         1 UNK         0.0600 
    228 H228       -4.8064  -18.1282  -45.5220 H         1 UNK         0.0600 
    229 H229       -6.5484  -18.3095  -45.7039 H         1 UNK         0.0600 
    230 H230       -7.3658  -17.6532  -48.2779 H         1 UNK         0.3000 
    231 H231       -6.0958  -15.1795  -48.9375 H         1 UNK         0.0600 
    232 H232       -8.3254  -14.6485  -49.9317 H         1 UNK         0.0600 
    233 H233       -8.4976  -15.3605  -48.3359 H         1 UNK         0.0600 
    234 H234       -8.8114  -16.3325  -49.7749 H         1 UNK         0.0600 
    235 H235       -6.4053  -18.1613  -50.7258 H         1 UNK         0.3000 
    236 H236       -5.7199  -16.9433  -53.3347 H         1 UNK         0.0600 
    237 H237       -7.3721  -18.8261  -53.2339 H         1 UNK         0.0600 
    238 H238       -5.9450  -19.2576  -54.1602 H         1 UNK         0.0600 
    239 H239       -6.1397  -19.8713  -52.5264 H         1 UNK         0.0600 
    240 H240       -4.0877  -17.7158  -50.5247 H         1 UNK         0.3000 
    241 H241       -2.0863  -18.0690  -49.8910 H         1 UNK         0.0600 
    242 H242       -3.7402  -20.3918  -50.7267 H         1 UNK         0.3800 
    243 H243       -2.5700  -21.6627  -51.0003 H         1 UNK         0.3800 
    244 H244       -0.5982  -17.8395  -52.5085 H         1 UNK         0.0800 
    245 H245       -1.5408  -16.4640  -52.0376 H         1 UNK         0.0800 
    246 H246        1.4190  -18.5723  -51.5192 H         1 UNK         0.0800 
    247 H247        2.2451  -17.0476  -51.7283 H         1 UNK         0.0800 
@<TRIPOS>BOND
     1    1    2 1    
     2    1  127 1    
     3    1  128 1    
     4    1  129 1    
     5    2    3 2    
     6    2    4 am   BACKBONE|DICT|INTERRES
     7    4    5 1    
     8    4  130 1    
     9    5    6 1    
    10    5   65 1    
    11    5  131 1    
    12    6    7 1    
    13    6  132 1    
    14    6  133 1    
    15    7    8 1    
    16    8    9 1    
    17    8  134 1    
    18    8  135 1    
    19    9   10 ar   
    20    9   14 ar   
    21   10   11 ar   
    22   10  136 1    
    23   11   12 ar   
    24   11  126 1    
    25   12   13 ar   
    26   12  137 1    
    27   13   14 ar   
    28   13   15 1    
    29   14  138 1    
    30   15   16 1    
    31   15  139 1    
    32   15  140 1    
    33   16   17 1    
    34   17   18 1    
    35   17  141 1    
    36   17  142 1    
    37   18   19 1    
    38   18   67 1    
    39   18  143 1    
    40   19   20 am   BACKBONE|DICT|INTERRES
    41   19  144 1    
    42   20   21 2    
    43   20   22 1    
    44   22   23 1    
    45   22   24 1    
    46   22  145 1    
    47   23  146 1    
    48   23  147 1    
    49   23  148 1    
    50   24   25 am   BACKBONE|DICT|INTERRES
    51   24  149 1    
    52   25   26 2    
    53   25   27 1    
    54   27   28 1    
    55   27   29 1    
    56   27  150 1    
    57   28  151 1    
    58   28  152 1    
    59   28  153 1    
    60   29   30 am   BACKBONE|DICT|INTERRES
    61   29  154 1    
    62   30   31 2    
    63   30   32 1    
    64   32   33 1    
    65   32   34 1    
    66   32  155 1    
    67   33  156 1    
    68   33  157 1    
    69   33  158 1    
    70   34   35 am   BACKBONE|DICT|INTERRES
    71   34  159 1    
    72   35   36 2    
    73   35   37 1    
    74   37   38 1    
    75   37   39 1    
    76   37  160 1    
    77   38  161 1    
    78   38  162 1    
    79   38  163 1    
    80   39   40 am   BACKBONE|DICT|INTERRES
    81   39  164 1    
    82   40   41 2    
    83   40   42 1    
    84   42   43 1    
    85   42   44 1    
    86   42  165 1    
    87   43  166 1    
    88   43  167 1    
    89   43  168 1    
    90   44   45 am   BACKBONE|DICT|INTERRES
    91   44  169 1    
    92   45   46 2    
    93   45   47 1    
    94   47   48 1    
    95   47   49 1    
    96   47  170 1    
    97   48  171 1    
    98   48  172 1    
    99   48  173 1    
   100   49   50 am   BACKBONE|DICT|INTERRES
   101   49  174 1    
   102   50   51 2    
   103   50   52 1    
   104   52   53 1    
   105   52   54 1    
   106   52  175 1    
   107   53  176 1    
   108   53  177 1    
   109   53  178 1    
   110   54   55 am   BACKBONE|DICT|INTERRES
   111   54  179 1    
   112   55   56 2    
   113   55   57 1    
   114   57   58 1    
   115   57   59 1    
   116   57  180 1    
   117   58  181 1    
   118   58  182 1    
   119   58  183 1    
   120   59   60 am   BACKBONE|DICT|INTERRES
   121   59  184 1    
   122   60   61 2    
   123   60   62 1    
   124   62   63 1    
   125   62   64 1    
   126   62  185 1    
   127   63  186 1    
   128   63  187 1    
   129   63  188 1    
   130   64   65 am   BACKBONE|DICT|INTERRES
   131   64  189 1    
   132   65   66 2    
   133   67   68 2    
   134   67   69 am   BACKBONE|DICT|INTERRES
   135   69   70 1    
   136   69  190 1    
   137   70   71 1    
   138   70   72 1    
   139   70  191 1    
   140   71  192 1    
   141   71  193 1    
   142   71  194 1    
   143   72   73 2    
   144   72   74 am   BACKBONE|DICT|INTERRES
   145   74   75 1    
   146   74  195 1    
   147   75   76 1    
   148   75   77 1    
   149   75  196 1    
   150   76  197 1    
   151   76  198 1    
   152   76  199 1    
   153   77   78 2    
   154   77   79 am   BACKBONE|DICT|INTERRES
   155   79   80 1    
   156   79  200 1    
   157   80   81 1    
   158   80   82 1    
   159   80  201 1    
   160   81  202 1    
   161   81  203 1    
   162   81  204 1    
   163   82   83 2    
   164   82   84 am   BACKBONE|DICT|INTERRES
   165   84   85 1    
   166   84  205 1    
   167   85   86 1    
   168   85   87 1    
   169   85  206 1    
   170   86  207 1    
   171   86  208 1    
   172   86  209 1    
   173   87   88 2    
   174   87   89 am   BACKBONE|DICT|INTERRES
   175   89   90 1    
   176   89  210 1    
   177   90   91 1    
   178   90   92 1    
   179   90  211 1    
   180   91  212 1    
   181   91  213 1    
   182   91  214 1    
   183   92   93 2    
   184   92   94 am   BACKBONE|DICT|INTERRES
   185   94   95 1    
   186   94  215 1    
   187   95   96 1    
   188   95   97 1    
   189   95  216 1    
   190   96  217 1    
   191   96  218 1    
   192   96  219 1    
   193   97   98 2    
   194   97   99 am   BACKBONE|DICT|INTERRES
   195   99  100 1    
   196   99  220 1    
   197  100  101 1    
   198  100  102 1    
   199  100  221 1    
   200  101  222 1    
   201  101  223 1    
   202  101  224 1    
   203  102  103 2    
   204  102  104 am   BACKBONE|DICT|INTERRES
   205  104  105 1    
   206  104  225 1    
   207  105  106 1    
   208  105  107 1    
   209  105  226 1    
   210  106  227 1    
   211  106  228 1    
   212  106  229 1    
   213  107  108 2    
   214  107  109 am   BACKBONE|DICT|INTERRES
   215  109  110 1    
   216  109  230 1    
   217  110  111 1    
   218  110  112 1    
   219  110  231 1    
   220  111  232 1    
   221  111  233 1    
   222  111  234 1    
   223  112  113 2    
   224  112  114 am   BACKBONE|DICT|INTERRES
   225  114  115 1    
   226  114  235 1    
   227  115  116 1    
   228  115  117 1    
   229  115  236 1    
   230  116  237 1    
   231  116  238 1    
   232  116  239 1    
   233  117  118 2    
   234  117  119 am   BACKBONE|DICT|INTERRES
   235  119  120 1    
   236  119  240 1    
   237  120  121 1    
   238  120  124 1    
   239  120  241 1    
   240  121  122 am   BACKBONE|DICT|INTERRES
   241  121  123 2    
   242  122  242 1    
   243  122  243 1    
   244  124  125 1    
   245  124  244 1    
   246  124  245 1    
   247  125  126 1    
   248  126  246 1    
   249  126  247 1    
@<TRIPOS>SUBSTRUCTURE
     1 UNK         1 GROUP             0       ****    0 ROOT    
