@<TRIPOS>MOLECULE
3R540
247   249    1
SMALL
USER_CHARGES


@<TRIPOS>ATOM
      1 CA         -2.9413  -15.9032  -49.3751 C.3       0 UNK        -0.1800 
      2 C          -1.6938  -15.0298  -49.3683 C.2       0 UNK         0.5000 
      3 O          -1.8017  -13.8040  -49.3761 O.2       0 UNK        -0.5000 
      4 N          -0.5104  -15.6566  -49.3490 N.am      1 UNK        -0.5000 
      5 CA          0.8022  -14.9914  -49.3434 C.3       1 UNK         0.1400 
      6 C6          1.9421  -15.9628  -49.7365 C.3       23 UNK        -0.0398 
      7 S7          1.6926  -16.7205  -51.3729 S.3       23 UNK        -0.2404 
      8 C8          3.3516  -17.3879  -51.7078 C.3       23 UNK        -0.0205 
      9 C9          3.2526  -18.7722  -52.3242 C.ar      23 UNK        -0.0193 
     10 C10         2.9378  -18.9185  -53.6777 C.ar      23 UNK        -0.1150 
     11 C11         2.7937  -20.1906  -54.2384 C.ar      23 UNK        -0.0193 
     12 C12         2.9901  -21.3212  -53.4411 C.ar      23 UNK        -0.1150 
     13 C13         3.3007  -21.1861  -52.0847 C.ar      23 UNK        -0.0193 
     14 C14         3.4399  -19.9089  -51.5335 C.ar      23 UNK        -0.1150 
     15 C15         3.4369  -22.4177  -51.2009 C.3       23 UNK        -0.0205 
     16 S16         1.8602  -23.3192  -51.0387 S.3       23 UNK        -0.2404 
     17 C17         0.7457  -22.0366  -50.3683 C.3       23 UNK        -0.0398 
     18 CA          0.2739  -22.3546  -48.9349 C.3       11 UNK         0.1400 
     19 N           1.3868  -22.4363  -47.9899 N.am      11 UNK        -0.5000 
     20 C           1.3304  -22.9917  -46.7765 C.2       10 UNK         0.5000 
     21 O           0.2956  -23.4429  -46.2862 O.2       10 UNK        -0.5000 
     22 CA          2.6407  -23.0160  -45.9676 C.3       10 UNK         0.1400 
     23 CB          3.7141  -23.8900  -46.6456 C.3       10 UNK        -0.1800 
     24 N           3.1489  -21.6748  -45.6554 N.am      10 UNK        -0.5000 
     25 C           3.5742  -20.7112  -46.4854 C.2       9 UNK         0.5000 
     26 O           3.6942  -20.8665  -47.7021 O.2       9 UNK        -0.5000 
     27 CA          3.9127  -19.3327  -45.8699 C.3       9 UNK         0.1400 
     28 CB          3.2681  -18.1893  -46.6792 C.3       9 UNK        -0.1800 
     29 N           3.6180  -19.1599  -44.4363 N.am      9 UNK        -0.5000 
     30 C           2.4382  -19.2694  -43.8089 C.2       8 UNK         0.5000 
     31 O           1.4025  -19.6751  -44.3438 O.2       8 UNK        -0.5000 
     32 CA          2.4198  -18.8698  -42.3269 C.3       8 UNK         0.1400 
     33 CB          2.2790  -17.3445  -42.1690 C.3       8 UNK        -0.1800 
     34 N           1.3038  -19.5501  -41.6823 N.am      8 UNK        -0.5000 
     35 C           1.1195  -19.6792  -40.3669 C.2       7 UNK         0.5000 
     36 O           1.8750  -19.2058  -39.5137 O.2       7 UNK        -0.5000 
     37 CA         -0.1110  -20.4786  -39.9218 C.3       7 UNK         0.1400 
     38 CB          0.2467  -21.9524  -39.6593 C.3       7 UNK        -0.1800 
     39 N          -0.6207  -19.8533  -38.7112 N.am      7 UNK        -0.5000 
     40 C          -1.8591  -19.9642  -38.2207 C.2       6 UNK         0.5000 
     41 O          -2.7205  -20.7115  -38.6856 O.2       6 UNK        -0.5000 
     42 CA         -2.1983  -19.0529  -37.0244 C.3       6 UNK         0.1400 
     43 CB         -1.8552  -19.7498  -35.6987 C.3       6 UNK        -0.1800 
     44 N          -1.5077  -17.7593  -37.0856 N.am      6 UNK        -0.5000 
     45 C          -1.7578  -16.8154  -38.0027 C.2       5 UNK         0.5000 
     46 O          -2.6346  -16.9113  -38.8668 O.2       5 UNK        -0.5000 
     47 CA         -0.8656  -15.5675  -37.9650 C.3       5 UNK         0.1400 
     48 CB          0.4779  -15.8300  -38.6692 C.3       5 UNK        -0.1800 
     49 N          -1.5688  -14.4854  -38.6424 N.am      5 UNK        -0.5000 
     50 C          -1.4438  -13.1797  -38.3865 C.2       4 UNK         0.5000 
     51 O          -0.6653  -12.7205  -37.5484 O.2       4 UNK        -0.5000 
     52 CA         -2.3588  -12.2426  -39.2056 C.3       4 UNK         0.1400 
     53 CB         -1.9370  -10.7595  -39.1276 C.3       4 UNK        -0.1800 
     54 N          -2.5235  -12.6721  -40.6021 N.am      4 UNK        -0.5000 
     55 C          -1.5653  -12.7585  -41.5365 C.2       3 UNK         0.5000 
     56 O          -0.3786  -12.4772  -41.3432 O.2       3 UNK        -0.5000 
     57 CA         -2.0179  -13.2293  -42.9286 C.3       3 UNK         0.1400 
     58 CB         -2.9645  -12.2084  -43.5906 C.3       3 UNK        -0.1800 
     59 N          -0.8371  -13.4215  -43.7635 N.am      3 UNK        -0.5000 
     60 C          -0.7641  -14.1753  -44.8625 C.2       2 UNK         0.5000 
     61 O          -1.7079  -14.8274  -45.3175 O.2       2 UNK        -0.5000 
     62 CA          0.6002  -14.2067  -45.5651 C.3       2 UNK         0.1400 
     63 CB          1.5942  -15.1180  -44.8266 C.3       2 UNK        -0.1800 
     64 N           0.4235  -14.6965  -46.9253 N.am      2 UNK        -0.5000 
     65 C           1.1406  -14.3246  -47.9906 C.2       1 UNK         0.5000 
     66 O           2.0577  -13.5038  -47.9380 O.2       1 UNK        -0.5000 
     67 C          -0.8057  -21.3492  -48.4936 C.2       11 UNK         0.5000 
     68 O          -1.9560  -21.5063  -48.9006 O.2       11 UNK        -0.5000 
     69 N          -0.4471  -20.3441  -47.6803 N.am      12 UNK        -0.5000 
     70 CA         -1.4128  -19.4122  -47.0927 C.3       12 UNK         0.1400 
     71 CB         -0.7157  -18.1131  -46.6665 C.3       12 UNK        -0.1800 
     72 C          -2.1717  -20.0602  -45.9217 C.2       12 UNK         0.5000 
     73 O          -3.3831  -19.8744  -45.8157 O.2       12 UNK        -0.5000 
     74 N          -1.4646  -20.8594  -45.1076 N.am      13 UNK        -0.5000 
     75 CA         -2.0363  -21.6655  -44.0248 C.3       13 UNK         0.1400 
     76 CB         -0.9043  -22.2826  -43.1896 C.3       13 UNK        -0.1800 
     77 C          -2.9795  -22.7659  -44.5461 C.2       13 UNK         0.5000 
     78 O          -4.0505  -22.9743  -43.9761 O.2       13 UNK        -0.5000 
     79 N          -2.5758  -23.4230  -45.6423 N.am      14 UNK        -0.5000 
     80 CA         -3.3655  -24.4309  -46.3547 C.3       14 UNK         0.1400 
     81 CB         -2.4245  -25.2340  -47.2666 C.3       14 UNK        -0.1800 
     82 C          -4.5253  -23.8373  -47.1824 C.2       14 UNK         0.5000 
     83 O          -5.3885  -24.5922  -47.6299 O.2       14 UNK        -0.5000 
     84 N          -4.5018  -22.5133  -47.3994 N.am      15 UNK        -0.5000 
     85 CA         -5.4139  -21.7044  -48.2178 C.3       15 UNK         0.1400 
     86 CB         -6.8650  -21.7915  -47.7043 C.3       15 UNK        -0.1800 
     87 C          -5.3084  -21.9738  -49.7343 C.2       15 UNK         0.5000 
     88 O          -6.1323  -21.4743  -50.4992 O.2       15 UNK        -0.5000 
     89 N          -4.2680  -22.7009  -50.1589 N.am      16 UNK        -0.5000 
     90 CA         -3.9306  -22.9741  -51.5544 C.3       16 UNK         0.1400 
     91 CB         -2.8131  -24.0271  -51.5980 C.3       16 UNK        -0.1800 
     92 C          -3.5136  -21.7014  -52.3122 C.2       16 UNK         0.5000 
     93 O          -3.8824  -21.5351  -53.4750 O.2       16 UNK        -0.5000 
     94 N          -2.7931  -20.8030  -51.6259 N.am      17 UNK        -0.5000 
     95 CA         -2.4080  -19.4928  -52.1530 C.3       17 UNK         0.1400 
     96 CB         -1.3287  -18.8684  -51.2576 C.3       17 UNK        -0.1800 
     97 C          -3.6139  -18.5466  -52.2955 C.2       17 UNK         0.5000 
     98 O          -3.6855  -17.7979  -53.2690 O.2       17 UNK        -0.5000 
     99 N          -4.5566  -18.6262  -51.3446 N.am      18 UNK        -0.5000 
    100 CA        -5.8122  -17.8712  -51.3535 C.3       18 UNK         0.1400 
    101 CB        -6.4605  -17.9404  -49.9623 C.3       18 UNK        -0.1800 
    102 C         -6.7820  -18.3636  -52.4450 C.2       18 UNK         0.5000 
    103 O         -7.4486  -17.5479  -53.0819 O.2       18 UNK        -0.5000 
    104 N         -6.8068  -19.6846  -52.6705 N.am      19 UNK        -0.5000 
    105 CA        -7.5439  -20.3495  -53.7480 C.3       19 UNK         0.1400 
    106 CB        -7.6438  -21.8483  -53.4223 C.3       19 UNK        -0.1800 
    107 C         -6.9176  -20.1479  -55.1446 C.2       19 UNK         0.5000 
    108 O         -7.5619  -20.4796  -56.1405 O.2       19 UNK        -0.5000 
    109 N         -5.6835  -19.6237  -55.1912 N.am      20 UNK        -0.5000 
    110 CA        -4.8546  -19.3805  -56.3741 C.3       20 UNK         0.1400 
    111 CB        -5.4956  -18.3234  -57.2972 C.3       20 UNK        -0.1800 
    112 C         -4.4716  -20.6828  -57.1063 C.2       20 UNK         0.5000 
    113 O         -4.4755  -20.7325  -58.3385 O.2       20 UNK        -0.5000 
    114 N         -4.1104  -21.7139  -56.3277 N.am      21 UNK        -0.5000 
    115 CA        -3.6731  -23.0301  -56.8080 C.3       21 UNK         0.1400 
    116 CB        -3.5797  -23.9889  -55.6116 C.3       21 UNK        -0.1800 
    117 C         -2.3372  -23.0048  -57.5821 C.2       21 UNK         0.5000 
    118 O         -2.0193  -23.9737  -58.2729 O.2       21 UNK        -0.5000 
    119 N         -1.5905  -21.8999  -57.4613 N.am      22 UNK        -0.5000 
    120 CA        -0.3503  -21.6001  -58.1933 C.3       22 UNK         0.1400 
    121 C         -0.5213  -21.4749  -59.7376 C.2       22 UNK         0.5000 
    122 N         -1.7230  -21.2518  -60.2589 N.am      22 UNK        -0.7600 
    123 O          0.4562  -21.5794  -60.4733 O.2       22 UNK        -0.5000 
    124 C124        0.3381  -20.3227  -57.6440 C.3       23 UNK        -0.0398 
    125 S125        0.5666  -20.3318  -55.8323 S.3       23 UNK        -0.2404 
    126 C126        2.3795  -20.3390  -55.6919 C.3       23 UNK        -0.0205 
    127 H127       -3.6518  -15.5499  -48.6277 H         1 UNK         0.0600 
    128 H128       -2.7108  -16.9439  -49.1506 H         1 UNK         0.0600 
    129 H129       -3.4229  -15.8609  -50.3518 H         1 UNK         0.0600 
    130 H130       -0.4807  -16.6639  -49.3887 H         1 UNK         0.3000 
    131 H131        0.7729  -14.1925  -50.0875 H         1 UNK         0.0600 
    132 H132        2.8993  -15.4374  -49.7499 H         1 UNK         0.0800 
    133 H133        2.0366  -16.7632  -49.0013 H         1 UNK         0.0800 
    134 H134        3.8837  -16.7143  -52.3810 H         1 UNK         0.0800 
    135 H135        3.9374  -17.4314  -50.7883 H         1 UNK         0.0800 
    136 H136        2.7706  -18.0407  -54.2861 H         1 UNK         0.1150 
    137 H137        2.8620  -22.3074  -53.8651 H         1 UNK         0.1150 
    138 H138        3.6649  -19.7995  -50.4812 H         1 UNK         0.1150 
    139 H139        4.1858  -23.0852  -51.6291 H         1 UNK         0.0800 
    140 H140        3.7979  -22.1476  -50.2072 H         1 UNK         0.0800 
    141 H141       -0.1040  -21.9689  -51.0497 H         1 UNK         0.0800 
    142 H142        1.2260  -21.0590  -50.3906 H         1 UNK         0.0800 
    143 H143       -0.2061  -23.3345  -48.9581 H         1 UNK         0.0600 
    144 H144        2.2699  -22.0231  -48.2750 H         1 UNK         0.3000 
    145 H145        2.4053  -23.4771  -45.0071 H         1 UNK         0.0600 
    146 H146        4.6089  -23.9611  -46.0273 H         1 UNK         0.0600 
    147 H147        3.3454  -24.9046  -46.8009 H         1 UNK         0.0600 
    148 H148        4.0125  -23.5020  -47.6197 H         1 UNK         0.0600 
    149 H149        3.0477  -21.4027  -44.6882 H         1 UNK         0.3000 
    150 H150        4.9945  -19.2304  -45.9657 H         1 UNK         0.0600 
    151 H151        2.1812  -18.2449  -46.6581 H         1 UNK         0.0600 
    152 H152        3.5786  -18.2214  -47.7243 H         1 UNK         0.0600 
    153 H153        3.5610  -17.2152  -46.2881 H         1 UNK         0.0600 
    154 H154        4.4097  -18.8592  -43.8844 H         1 UNK         0.3000 
    155 H155        3.3527  -19.2028  -41.8673 H         1 UNK         0.0600 
    156 H156        1.3062  -16.9971  -42.5179 H         1 UNK         0.0600 
    157 H157        3.0461  -16.8151  -42.7352 H         1 UNK         0.0600 
    158 H158        2.3845  -17.0406  -41.1277 H         1 UNK         0.0600 
    159 H159        0.6554  -19.9634  -42.3404 H         1 UNK         0.3000 
    160 H160       -0.8747  -20.4172  -40.7000 H         1 UNK         0.0600 
    161 H161        0.9694  -22.0500  -38.8483 H         1 UNK         0.0600 
    162 H162        0.6838  -22.4144  -40.5451 H         1 UNK         0.0600 
    163 H163       -0.6359  -22.5338  -39.3929 H         1 UNK         0.0600 
    164 H164        0.0280  -19.2077  -38.2793 H         1 UNK         0.3000 
    165 H165       -3.2743  -18.8669  -37.0436 H         1 UNK         0.0600 
    166 H166       -2.1576  -19.1438  -34.8445 H         1 UNK         0.0600 
    167 H167       -2.3724  -20.7067  -35.6163 H         1 UNK         0.0600 
    168 H168       -0.7859  -19.9463  -35.6108 H         1 UNK         0.0600 
    169 H169       -0.7771  -17.6050  -36.4054 H         1 UNK         0.3000 
    170 H170       -0.6911  -15.2977  -36.9213 H         1 UNK         0.0600 
    171 H171        0.3349  -16.1160  -39.7122 H         1 UNK         0.0600 
    172 H172        1.1133  -14.9443  -38.6511 H         1 UNK         0.0600 
    173 H173        1.0294  -16.6344  -38.1812 H         1 UNK         0.0600 
    174 H174       -2.2652  -14.7997  -39.3065 H         1 UNK         0.3000 
    175 H175       -3.3462  -12.3201  -38.7481 H         1 UNK         0.0600 
    176 H176       -0.9253  -10.6032  -39.5028 H         1 UNK         0.0600 
    177 H177       -2.6108  -10.1271  -39.7057 H         1 UNK         0.0600 
    178 H178       -1.9610  -10.4006  -38.0981 H         1 UNK         0.0600 
    179 H179       -3.4655  -12.9295  -40.8627 H         1 UNK         0.3000 
    180 H180       -2.5321  -14.1853  -42.8098 H         1 UNK         0.0600 
    181 H181       -2.4822  -11.2379  -43.7132 H         1 UNK         0.0600 
    182 H182       -3.8649  -12.0553  -42.9950 H         1 UNK         0.0600 
    183 H183       -3.2879  -12.5466  -44.5752 H         1 UNK         0.0600 
    184 H184       -0.0089  -12.9648  -43.3998 H         1 UNK         0.3000 
    185 H185        0.9878  -13.1859  -45.5866 H         1 UNK         0.0600 
    186 H186        2.5759  -15.0937  -45.2994 H         1 UNK         0.0600 
    187 H187        1.7266  -14.8001  -43.7920 H         1 UNK         0.0600 
    188 H188        1.2542  -16.1543  -44.8179 H         1 UNK         0.0600 
    189 H189       -0.3769  -15.3015  -47.0516 H         1 UNK         0.3000 
    190 H190        0.5133  -20.2739  -47.3782 H         1 UNK         0.3000 
    191 H191       -2.1486  -19.1494  -47.8557 H         1 UNK         0.0600 
    192 H192       -0.0959  -17.7142  -47.4677 H         1 UNK         0.0600 
    193 H193       -1.4526  -17.3519  -46.4090 H         1 UNK         0.0600 
    194 H194       -0.0832  -18.2532  -45.7926 H         1 UNK         0.0600 
    195 H195       -0.4659  -20.9296  -45.2457 H         1 UNK         0.3000 
    196 H196       -2.6144  -20.9994  -43.3809 H         1 UNK         0.0600 
    197 H197       -1.3032  -22.7835  -42.3067 H         1 UNK         0.0600 
    198 H198       -0.2053  -21.5232  -42.8489 H         1 UNK         0.0600 
    199 H199       -0.3358  -23.0217  -43.7540 H         1 UNK         0.0600 
    200 H200       -1.6380  -23.2485  -45.9925 H         1 UNK         0.3000 
    201 H201       -3.7990  -25.1137  -45.6211 H         1 UNK         0.0600 
    202 H202       -2.9584  -26.0428  -47.7670 H         1 UNK         0.0600 
    203 H203       -1.6115  -25.6852  -46.6973 H         1 UNK         0.0600 
    204 H204       -1.9834  -24.6054  -48.0400 H         1 UNK         0.0600 
    205 H205       -3.7376  -21.9969  -46.9860 H         1 UNK         0.3000 
    206 H206       -5.0854  -20.6731  -48.0822 H         1 UNK         0.0600 
    207 H207       -6.9171  -21.5869  -46.6350 H         1 UNK         0.0600 
    208 H208       -7.5009  -21.0603  -48.2047 H         1 UNK         0.0600 
    209 H209       -7.3017  -22.7744  -47.8816 H         1 UNK         0.0600 
    210 H210       -3.5905  -22.9834  -49.4651 H         1 UNK         0.3000 
    211 H211       -4.8140  -23.3849  -52.0470 H         1 UNK         0.0600 
    212 H212       -1.9135  -23.6840  -51.0863 H         1 UNK         0.0600 
    213 H213       -2.5357  -24.2658  -52.6247 H         1 UNK         0.0600 
    214 H214       -3.1313  -24.9562  -51.1248 H         1 UNK         0.0600 
    215 H215       -2.5452  -21.0144  -50.6639 H         1 UNK         0.3000 
    216 H216       -1.9801  -19.6333  -53.1484 H         1 UNK         0.0600 
    217 H217       -1.1027  -17.8502  -51.5763 H         1 UNK         0.0600 
    218 H218       -0.3986  -19.4330  -51.3100 H         1 UNK         0.0600 
    219 H219       -1.6414  -18.8268  -50.2154 H         1 UNK         0.0600 
    220 H220       -4.4346  -19.2958  -50.6012 H         1 UNK         0.3000 
    221 H221       -5.5783  -16.8255  -51.5649 H         1 UNK         0.0600 
    222 H222       -6.7272  -18.9610  -49.6881 H         1 UNK         0.0600 
    223 H223       -5.7916  -17.5498  -49.1952 H         1 UNK         0.0600 
    224 H224       -7.3738  -17.3450  -49.9302 H         1 UNK         0.0600 
    225 H225       -6.3007  -20.2946  -52.0352 H         1 UNK         0.3000 
    226 H226       -8.5543  -19.9369  -53.7792 H         1 UNK         0.0600 
    227 H227       -8.2288  -22.3767  -54.1760 H         1 UNK         0.0600 
    228 H228       -6.6593  -22.3155  -53.3839 H         1 UNK         0.0600 
    229 H229       -8.1304  -22.0122  -52.4606 H         1 UNK         0.0600 
    230 H230       -5.2425  -19.4128  -54.3068 H         1 UNK         0.3000 
    231 H231       -3.9193  -18.9604  -56.0014 H         1 UNK         0.0600 
    232 H232       -6.4089  -18.6906  -57.7659 H         1 UNK         0.0600 
    233 H233       -4.8113  -18.0389  -58.0973 H         1 UNK         0.0600 
    234 H234       -5.7424  -17.4167  -56.7447 H         1 UNK         0.0600 
    235 H235       -4.1167  -21.5886  -55.3169 H         1 UNK         0.3000 
    236 H236       -4.4383  -23.4058  -57.4902 H         1 UNK         0.0600 
    237 H237       -4.5195  -24.0307  -55.0605 H         1 UNK         0.0600 
    238 H238       -3.3476  -25.0031  -55.9388 H         1 UNK         0.0600 
    239 H239       -2.7960  -23.6802  -54.9196 H         1 UNK         0.0600 
    240 H240       -1.9203  -21.1755  -56.8422 H         1 UNK         0.3000 
    241 H241        0.3250  -22.4409  -58.0253 H         1 UNK         0.0600 
    242 H242       -2.5360  -21.1593  -59.6654 H         1 UNK         0.3800 
    243 H243       -1.8232  -21.1740  -61.2589 H         1 UNK         0.3800 
    244 H244        1.3055  -20.1784  -58.1285 H         1 UNK         0.0800 
    245 H245       -0.2543  -19.4402  -57.8920 H         1 UNK         0.0800 
    246 H246        2.7991  -19.5225  -56.2818 H         1 UNK         0.0800 
    247 H247        2.7763  -21.2655  -56.1100 H         1 UNK         0.0800 
@<TRIPOS>BOND
     1    1    2 1    
     2    1  127 1    
     3    1  128 1    
     4    1  129 1    
     5    2    3 2    
     6    2    4 am   BACKBONE|DICT|INTERRES
     7    4    5 1    
     8    4  130 1    
     9    5    6 1    
    10    5   65 1    
    11    5  131 1    
    12    6    7 1    
    13    6  132 1    
    14    6  133 1    
    15    7    8 1    
    16    8    9 1    
    17    8  134 1    
    18    8  135 1    
    19    9   10 ar   
    20    9   14 ar   
    21   10   11 ar   
    22   10  136 1    
    23   11   12 ar   
    24   11  126 1    
    25   12   13 ar   
    26   12  137 1    
    27   13   14 ar   
    28   13   15 1    
    29   14  138 1    
    30   15   16 1    
    31   15  139 1    
    32   15  140 1    
    33   16   17 1    
    34   17   18 1    
    35   17  141 1    
    36   17  142 1    
    37   18   19 1    
    38   18   67 1    
    39   18  143 1    
    40   19   20 am   BACKBONE|DICT|INTERRES
    41   19  144 1    
    42   20   21 2    
    43   20   22 1    
    44   22   23 1    
    45   22   24 1    
    46   22  145 1    
    47   23  146 1    
    48   23  147 1    
    49   23  148 1    
    50   24   25 am   BACKBONE|DICT|INTERRES
    51   24  149 1    
    52   25   26 2    
    53   25   27 1    
    54   27   28 1    
    55   27   29 1    
    56   27  150 1    
    57   28  151 1    
    58   28  152 1    
    59   28  153 1    
    60   29   30 am   BACKBONE|DICT|INTERRES
    61   29  154 1    
    62   30   31 2    
    63   30   32 1    
    64   32   33 1    
    65   32   34 1    
    66   32  155 1    
    67   33  156 1    
    68   33  157 1    
    69   33  158 1    
    70   34   35 am   BACKBONE|DICT|INTERRES
    71   34  159 1    
    72   35   36 2    
    73   35   37 1    
    74   37   38 1    
    75   37   39 1    
    76   37  160 1    
    77   38  161 1    
    78   38  162 1    
    79   38  163 1    
    80   39   40 am   BACKBONE|DICT|INTERRES
    81   39  164 1    
    82   40   41 2    
    83   40   42 1    
    84   42   43 1    
    85   42   44 1    
    86   42  165 1    
    87   43  166 1    
    88   43  167 1    
    89   43  168 1    
    90   44   45 am   BACKBONE|DICT|INTERRES
    91   44  169 1    
    92   45   46 2    
    93   45   47 1    
    94   47   48 1    
    95   47   49 1    
    96   47  170 1    
    97   48  171 1    
    98   48  172 1    
    99   48  173 1    
   100   49   50 am   BACKBONE|DICT|INTERRES
   101   49  174 1    
   102   50   51 2    
   103   50   52 1    
   104   52   53 1    
   105   52   54 1    
   106   52  175 1    
   107   53  176 1    
   108   53  177 1    
   109   53  178 1    
   110   54   55 am   BACKBONE|DICT|INTERRES
   111   54  179 1    
   112   55   56 2    
   113   55   57 1    
   114   57   58 1    
   115   57   59 1    
   116   57  180 1    
   117   58  181 1    
   118   58  182 1    
   119   58  183 1    
   120   59   60 am   BACKBONE|DICT|INTERRES
   121   59  184 1    
   122   60   61 2    
   123   60   62 1    
   124   62   63 1    
   125   62   64 1    
   126   62  185 1    
   127   63  186 1    
   128   63  187 1    
   129   63  188 1    
   130   64   65 am   BACKBONE|DICT|INTERRES
   131   64  189 1    
   132   65   66 2    
   133   67   68 2    
   134   67   69 am   BACKBONE|DICT|INTERRES
   135   69   70 1    
   136   69  190 1    
   137   70   71 1    
   138   70   72 1    
   139   70  191 1    
   140   71  192 1    
   141   71  193 1    
   142   71  194 1    
   143   72   73 2    
   144   72   74 am   BACKBONE|DICT|INTERRES
   145   74   75 1    
   146   74  195 1    
   147   75   76 1    
   148   75   77 1    
   149   75  196 1    
   150   76  197 1    
   151   76  198 1    
   152   76  199 1    
   153   77   78 2    
   154   77   79 am   BACKBONE|DICT|INTERRES
   155   79   80 1    
   156   79  200 1    
   157   80   81 1    
   158   80   82 1    
   159   80  201 1    
   160   81  202 1    
   161   81  203 1    
   162   81  204 1    
   163   82   83 2    
   164   82   84 am   BACKBONE|DICT|INTERRES
   165   84   85 1    
   166   84  205 1    
   167   85   86 1    
   168   85   87 1    
   169   85  206 1    
   170   86  207 1    
   171   86  208 1    
   172   86  209 1    
   173   87   88 2    
   174   87   89 am   BACKBONE|DICT|INTERRES
   175   89   90 1    
   176   89  210 1    
   177   90   91 1    
   178   90   92 1    
   179   90  211 1    
   180   91  212 1    
   181   91  213 1    
   182   91  214 1    
   183   92   93 2    
   184   92   94 am   BACKBONE|DICT|INTERRES
   185   94   95 1    
   186   94  215 1    
   187   95   96 1    
   188   95   97 1    
   189   95  216 1    
   190   96  217 1    
   191   96  218 1    
   192   96  219 1    
   193   97   98 2    
   194   97   99 am   BACKBONE|DICT|INTERRES
   195   99  100 1    
   196   99  220 1    
   197  100  101 1    
   198  100  102 1    
   199  100  221 1    
   200  101  222 1    
   201  101  223 1    
   202  101  224 1    
   203  102  103 2    
   204  102  104 am   BACKBONE|DICT|INTERRES
   205  104  105 1    
   206  104  225 1    
   207  105  106 1    
   208  105  107 1    
   209  105  226 1    
   210  106  227 1    
   211  106  228 1    
   212  106  229 1    
   213  107  108 2    
   214  107  109 am   BACKBONE|DICT|INTERRES
   215  109  110 1    
   216  109  230 1    
   217  110  111 1    
   218  110  112 1    
   219  110  231 1    
   220  111  232 1    
   221  111  233 1    
   222  111  234 1    
   223  112  113 2    
   224  112  114 am   BACKBONE|DICT|INTERRES
   225  114  115 1    
   226  114  235 1    
   227  115  116 1    
   228  115  117 1    
   229  115  236 1    
   230  116  237 1    
   231  116  238 1    
   232  116  239 1    
   233  117  118 2    
   234  117  119 am   BACKBONE|DICT|INTERRES
   235  119  120 1    
   236  119  240 1    
   237  120  121 1    
   238  120  124 1    
   239  120  241 1    
   240  121  122 am   BACKBONE|DICT|INTERRES
   241  121  123 2    
   242  122  242 1    
   243  122  243 1    
   244  124  125 1    
   245  124  244 1    
   246  124  245 1    
   247  125  126 1    
   248  126  246 1    
   249  126  247 1    
@<TRIPOS>SUBSTRUCTURE
     1 UNK         1 GROUP             0       ****    0 ROOT    
