@<TRIPOS>MOLECULE
3R540
247   249    1
SMALL
USER_CHARGES


@<TRIPOS>ATOM
      1 CA          1.0166  -15.9536  -49.6550 C.3       0 UNK        -0.1800 
      2 C           1.6540  -14.5937  -49.8927 C.2       0 UNK         0.5000 
      3 O           0.9747  -13.6558  -50.3097 O.2       0 UNK        -0.5000 
      4 N           2.9570  -14.4817  -49.6085 N.am      1 UNK        -0.5000 
      5 CA          3.7484  -13.2511  -49.7458 C.3       1 UNK         0.1400 
      6 C6          5.2654  -13.5584  -49.8023 C.3       23 UNK        -0.0398 
      7 S7          5.7801  -14.1777  -51.4389 S.3       23 UNK        -0.2404 
      8 C8          6.1397  -15.9382  -51.1261 C.3       23 UNK        -0.0205 
      9 C9          4.9315  -16.8544  -51.2941 C.ar      23 UNK        -0.0193 
     10 C10         4.1084  -16.7558  -52.4216 C.ar      23 UNK        -0.1150 
     11 C11         3.0526  -17.6507  -52.6154 C.ar      23 UNK        -0.0193 
     12 C12         2.8241  -18.6601  -51.6762 C.ar      23 UNK        -0.1150 
     13 C13         3.6374  -18.7709  -50.5457 C.ar      23 UNK        -0.0193 
     14 C14         4.6833  -17.8616  -50.3567 C.ar      23 UNK        -0.1150 
     15 C15         3.4141  -19.8904  -49.5423 C.3       23 UNK        -0.0205 
     16 S16         2.3443  -19.3526  -48.1773 S.3       23 UNK        -0.2404 
     17 C17         0.6935  -19.9211  -48.7148 C.3       23 UNK        -0.0398 
     18 CA          0.2550  -21.2087  -47.9739 C.3       11 UNK         0.1400 
     19 N           0.2366  -21.0503  -46.5149 N.am      11 UNK        -0.5000 
     20 C           0.0868  -22.0507  -45.6359 C.2       10 UNK         0.5000 
     21 O          -0.0175  -23.2329  -45.9591 O.2       10 UNK        -0.5000 
     22 CA         -0.0149  -21.6638  -44.1507 C.3       10 UNK         0.1400 
     23 CB          1.3779  -21.4873  -43.5267 C.3       10 UNK        -0.1800 
     24 N          -0.8014  -20.4461  -43.9640 N.am      10 UNK        -0.5000 
     25 C          -2.1301  -20.3735  -44.1169 C.2       9 UNK         0.5000 
     26 O          -2.8391  -21.3443  -44.3827 O.2       9 UNK        -0.5000 
     27 CA         -2.7687  -18.9758  -44.0013 C.3       9 UNK         0.1400 
     28 CB         -3.0577  -18.6281  -42.5358 C.3       9 UNK        -0.1800 
     29 N          -1.9481  -17.9268  -44.6145 N.am      9 UNK        -0.5000 
     30 C          -1.7488  -17.8409  -45.9368 C.2       8 UNK         0.5000 
     31 O          -2.2400  -18.6240  -46.7487 O.2       8 UNK        -0.5000 
     32 CA         -0.8280  -16.7233  -46.4565 C.3       8 UNK         0.1400 
     33 CB         -1.6358  -15.4319  -46.6537 C.3       8 UNK        -0.1800 
     34 N           0.3850  -16.4503  -45.6728 N.am      8 UNK        -0.5000 
     35 C           1.2495  -17.3699  -45.2132 C.2       7 UNK         0.5000 
     36 O           1.0436  -18.5803  -45.2740 O.2       7 UNK        -0.5000 
     37 CA          2.5698  -16.9005  -44.5814 C.3       7 UNK         0.1400 
     38 CB          2.8934  -15.4126  -44.7869 C.3       7 UNK        -0.1800 
     39 N           2.5211  -17.1783  -43.1523 N.am      7 UNK        -0.5000 
     40 C           3.2540  -18.0956  -42.5083 C.2       6 UNK         0.5000 
     41 O           4.0873  -18.8153  -43.0602 O.2       6 UNK        -0.5000 
     42 CA          3.0537  -18.2220  -40.9829 C.3       6 UNK         0.1400 
     43 CB          4.3111  -17.7505  -40.2343 C.3       6 UNK        -0.1800 
     44 N           1.9078  -17.4597  -40.4845 N.am      6 UNK        -0.5000 
     45 C           0.6330  -17.8643  -40.5469 C.2       5 UNK         0.5000 
     46 O           0.2843  -18.9603  -40.9830 O.2       5 UNK        -0.5000 
     47 CA         -0.4311  -16.8532  -40.0732 C.3       5 UNK         0.1400 
     48 CB         -0.7337  -17.0505  -38.5804 C.3       5 UNK        -0.1800 
     49 N          -0.0629  -15.4534  -40.3119 N.am      5 UNK        -0.5000 
     50 C           0.1441  -14.9130  -41.5204 C.2       4 UNK         0.5000 
     51 O           0.0852  -15.5542  -42.5722 O.2       4 UNK        -0.5000 
     52 CA          0.5531  -13.4274  -41.5363 C.3       4 UNK         0.1400 
     53 CB          2.0619  -13.2944  -41.2730 C.3       4 UNK        -0.1800 
     54 N           0.2432  -12.7528  -42.7973 N.am      4 UNK        -0.5000 
     55 C          -0.9804  -12.5749  -43.3141 C.2       3 UNK         0.5000 
     56 O          -2.0144  -12.9459  -42.7562 O.2       3 UNK        -0.5000 
     57 CA         -1.0809  -11.8235  -44.6605 C.3       3 UNK         0.1400 
     58 CB         -1.9081  -10.5365  -44.5038 C.3       3 UNK        -0.1800 
     59 N           0.2142  -11.4697  -45.2529 N.am      3 UNK        -0.5000 
     60 C           1.0076  -12.3174  -45.9163 C.2       2 UNK         0.5000 
     61 O           0.7637  -13.5166  -46.0575 O.2       2 UNK        -0.5000 
     62 CA          2.3046  -11.7356  -46.4896 C.3       2 UNK         0.1400 
     63 CB          3.3952  -11.6348  -45.4089 C.3       2 UNK        -0.1800 
     64 N           2.7591  -12.5997  -47.5729 N.am      2 UNK        -0.5000 
     65 C           3.4414  -12.2008  -48.6517 C.2       1 UNK         0.5000 
     66 O           3.8279  -11.0416  -48.8120 O.2       1 UNK        -0.5000 
     67 C          -1.0980  -21.7296  -48.5042 C.2       11 UNK         0.5000 
     68 O          -1.1104  -22.6089  -49.3654 O.2       11 UNK        -0.5000 
     69 N          -2.2079  -21.2229  -47.9458 N.am      12 UNK        -0.5000 
     70 CA         -3.5618  -21.7145  -48.1972 C.3       12 UNK         0.1400 
     71 CB         -4.5945  -20.7640  -47.5743 C.3       12 UNK        -0.1800 
     72 C          -3.7618  -23.1505  -47.6891 C.2       12 UNK         0.5000 
     73 O          -4.2786  -23.9823  -48.4327 O.2       12 UNK        -0.5000 
     74 N          -3.3201  -23.4381  -46.4550 N.am      13 UNK        -0.5000 
     75 CA         -3.3755  -24.7707  -45.8443 C.3       13 UNK         0.1400 
     76 CB         -2.8964  -24.7024  -44.3875 C.3       13 UNK        -0.1800 
     77 C          -2.5840  -25.8305  -46.6342 C.2       13 UNK         0.5000 
     78 O          -3.0888  -26.9348  -46.8386 O.2       13 UNK        -0.5000 
     79 N          -1.3948  -25.4550  -47.1260 N.am      14 UNK        -0.5000 
     80 CA         -0.5544  -26.2643  -48.0139 C.3       14 UNK         0.1400 
     81 CB          0.8015  -25.5670  -48.2008 C.3       14 UNK        -0.1800 
     82 C          -1.2058  -26.5567  -49.3817 C.2       14 UNK         0.5000 
     83 O          -0.9085  -27.5873  -49.9857 O.2       14 UNK        -0.5000 
     84 N          -2.1101  -25.6729  -49.8224 N.am      15 UNK        -0.5000 
     85 CA         -2.9410  -25.8177  -51.0177 C.3       15 UNK         0.1400 
     86 CB         -3.1244  -24.4314  -51.6603 C.3       15 UNK        -0.1800 
     87 C          -4.2957  -26.4987  -50.7155 C.2       15 UNK         0.5000 
     88 O          -5.2201  -26.3802  -51.5191 O.2       15 UNK        -0.5000 
     89 N          -4.3980  -27.1949  -49.5721 N.am      16 UNK        -0.5000 
     90 CA         -5.5652  -27.9295  -49.0706 C.3       16 UNK         0.1400 
     91 CB         -5.9655  -29.0730  -50.0273 C.3       16 UNK        -0.1800 
     92 C          -6.7405  -27.0057  -48.6900 C.2       16 UNK         0.5000 
     93 O          -7.8999  -27.3380  -48.9420 O.2       16 UNK        -0.5000 
     94 N          -6.4035  -25.8638  -48.0742 N.am      17 UNK        -0.5000 
     95 CA         -7.2915  -24.7992  -47.5934 C.3       17 UNK         0.1400 
     96 CB         -8.2890  -25.3245  -46.5395 C.3       17 UNK        -0.1800 
     97 C          -7.9655  -24.0054  -48.7313 C.2       17 UNK         0.5000 
     98 O          -9.0371  -23.4314  -48.5277 O.2       17 UNK        -0.5000 
     99 N          -7.3243  -23.9694  -49.9065 N.am      18 UNK        -0.5000 
    100 CA        -7.7614  -23.1887  -51.0595 C.3       18 UNK         0.1400 
    101 CB        -7.0859  -23.7305  -52.3276 C.3       18 UNK        -0.1800 
    102 C         -7.4265  -21.7008  -50.8681 C.2       18 UNK         0.5000 
    103 O         -6.2887  -21.3688  -50.5273 O.2       18 UNK        -0.5000 
    104 N         -8.4123  -20.8333  -51.1220 N.am      19 UNK        -0.5000 
    105 CA        -8.2315  -19.3844  -51.1868 C.3       19 UNK         0.1400 
    106 CB        -9.6031  -18.7018  -51.0710 C.3       19 UNK        -0.1800 
    107 C         -7.5382  -18.9895  -52.5032 C.2       19 UNK         0.5000 
    108 O         -7.7690  -19.6377  -53.5276 O.2       19 UNK        -0.5000 
    109 N         -6.7205  -17.9277  -52.4492 N.am      20 UNK        -0.5000 
    110 CA        -5.9130  -17.3890  -53.5527 C.3       20 UNK         0.1400 
    111 CB        -6.8132  -16.7558  -54.6347 C.3       20 UNK        -0.1800 
    112 C         -4.9235  -18.4309  -54.1193 C.2       20 UNK         0.5000 
    113 O         -4.8189  -18.6001  -55.3361 O.2       20 UNK        -0.5000 
    114 N         -4.2170  -19.1157  -53.2070 N.am      21 UNK        -0.5000 
    115 CA        -3.2978  -20.2295  -53.4716 C.3       21 UNK         0.1400 
    116 CB        -2.7336  -20.7299  -52.1330 C.3       21 UNK        -0.1800 
    117 C         -2.1522  -19.9196  -54.4570 C.2       21 UNK         0.5000 
    118 O         -1.6530  -20.8382  -55.1082 O.2       21 UNK        -0.5000 
    119 N         -1.7728  -18.6405  -54.5650 N.am      22 UNK        -0.5000 
    120 CA        -0.8083  -18.1332  -55.5534 C.3       22 UNK         0.1400 
    121 C         -1.3586  -18.0484  -57.0093 C.2       22 UNK         0.5000 
    122 N         -2.6536  -18.2141  -57.2544 N.am      22 UNK        -0.7600 
    123 O         -0.5887  -17.8333  -57.9414 O.2       22 UNK        -0.5000 
    124 C124       -0.1942  -16.7753  -55.1244 C.3       23 UNK        -0.0398 
    125 S125        0.5619  -16.8122  -53.4647 S.3       23 UNK        -0.2404 
    126 C126        2.1781  -17.5476  -53.8537 C.3       23 UNK        -0.0205 
    127 H127        1.4747  -16.4583  -48.8045 H         1 UNK         0.0600 
    128 H128        1.1355  -16.5856  -50.5332 H         1 UNK         0.0600 
    129 H129       -0.0492  -15.8451  -49.4565 H         1 UNK         0.0600 
    130 H130        3.4652  -15.2992  -49.3036 H         1 UNK         0.3000 
    131 H131        3.4652  -12.7782  -50.6889 H         1 UNK         0.0600 
    132 H132        5.8550  -12.6560  -49.6286 H         1 UNK         0.0800 
    133 H133        5.5543  -14.2552  -49.0142 H         1 UNK         0.0800 
    134 H134        6.9002  -16.2591  -51.8390 H         1 UNK         0.0800 
    135 H135        6.5882  -16.0524  -50.1382 H         1 UNK         0.0800 
    136 H136        4.3006  -15.9896  -53.1593 H         1 UNK         0.1150 
    137 H137        2.0151  -19.3601  -51.8302 H         1 UNK         0.1150 
    138 H138        5.3218  -17.9589  -49.4897 H         1 UNK         0.1150 
    139 H139        2.9976  -20.7729  -50.0301 H         1 UNK         0.0800 
    140 H140        4.3733  -20.2035  -49.1275 H         1 UNK         0.0800 
    141 H141        0.6985  -20.0785  -49.7946 H         1 UNK         0.0800 
    142 H142       -0.0187  -19.1160  -48.5321 H         1 UNK         0.0800 
    143 H143        0.9949  -21.9804  -48.1976 H         1 UNK         0.0600 
    144 H144        0.3866  -20.1110  -46.1539 H         1 UNK         0.3000 
    145 H145       -0.5166  -22.4772  -43.6233 H         1 UNK         0.0600 
    146 H146        1.3070  -21.2272  -42.4704 H         1 UNK         0.0600 
    147 H147        1.9540  -22.4105  -43.5976 H         1 UNK         0.0600 
    148 H148        1.9526  -20.7062  -44.0247 H         1 UNK         0.0600 
    149 H149       -0.2771  -19.5899  -43.8367 H         1 UNK         0.3000 
    150 H150       -3.7239  -19.0028  -44.5302 H         1 UNK         0.0600 
    151 H151       -3.7925  -19.3151  -42.1145 H         1 UNK         0.0600 
    152 H152       -3.4563  -17.6187  -42.4331 H         1 UNK         0.0600 
    153 H153       -2.1596  -18.7055  -41.9271 H         1 UNK         0.0600 
    154 H154       -1.4878  -17.2646  -44.0044 H         1 UNK         0.3000 
    155 H155       -0.4876  -17.0510  -47.4381 H         1 UNK         0.0600 
    156 H156       -1.1068  -14.7303  -47.2975 H         1 UNK         0.0600 
    157 H157       -1.8381  -14.9388  -45.7024 H         1 UNK         0.0600 
    158 H158       -2.5957  -15.6318  -47.1322 H         1 UNK         0.0600 
    159 H159        0.6163  -15.4675  -45.5644 H         1 UNK         0.3000 
    160 H160        3.3618  -17.4783  -45.0621 H         1 UNK         0.0600 
    161 H161        2.1748  -14.7698  -44.2796 H         1 UNK         0.0600 
    162 H162        2.9027  -15.1543  -45.8460 H         1 UNK         0.0600 
    163 H163        3.8804  -15.1738  -44.3909 H         1 UNK         0.0600 
    164 H164        1.7955  -16.6852  -42.6452 H         1 UNK         0.3000 
    165 H165        2.9006  -19.2803  -40.7605 H         1 UNK         0.0600 
    166 H166        4.5214  -16.6973  -40.4249 H         1 UNK         0.0600 
    167 H167        4.2022  -17.8826  -39.1576 H         1 UNK         0.0600 
    168 H168        5.1883  -18.3212  -40.5420 H         1 UNK         0.0600 
    169 H169        2.1026  -16.5437  -40.1081 H         1 UNK         0.3000 
    170 H170       -1.3475  -17.0451  -40.6314 H         1 UNK         0.0600 
    171 H171       -1.0384  -18.0780  -38.3767 H         1 UNK         0.0600 
    172 H172        0.1383  -16.8376  -37.9607 H         1 UNK         0.0600 
    173 H173       -1.5462  -16.4018  -38.2529 H         1 UNK         0.0600 
    174 H174        0.0187  -14.8673  -39.4933 H         1 UNK         0.3000 
    175 H175        0.0090  -12.9123  -40.7421 H         1 UNK         0.0600 
    176 H176        2.3662  -12.2480  -41.2396 H         1 UNK         0.0600 
    177 H177        2.3367  -13.7388  -40.3156 H         1 UNK         0.0600 
    178 H178        2.6521  -13.7900  -42.0448 H         1 UNK         0.0600 
    179 H179        1.0287  -12.4275  -43.3384 H         1 UNK         0.3000 
    180 H180       -1.6101  -12.4805  -45.3536 H         1 UNK         0.0600 
    181 H181       -1.4353   -9.8365  -43.8139 H         1 UNK         0.0600 
    182 H182       -2.9056  -10.7533  -44.1192 H         1 UNK         0.0600 
    183 H183       -2.0365  -10.0309  -45.4611 H         1 UNK         0.0600 
    184 H184        0.4953  -10.5038  -45.1616 H         1 UNK         0.3000 
    185 H185        2.0842  -10.7403  -46.8816 H         1 UNK         0.0600 
    186 H186        4.3108  -11.2035  -45.8136 H         1 UNK         0.0600 
    187 H187        3.0755  -10.9973  -44.5839 H         1 UNK         0.0600 
    188 H188        3.6434  -12.6115  -44.9934 H         1 UNK         0.0600 
    189 H189        2.4000  -13.5445  -47.5328 H         1 UNK         0.3000 
    190 H190       -2.1241  -20.4465  -47.2951 H         1 UNK         0.3000 
    191 H191       -3.7230  -21.7243  -49.2758 H         1 UNK         0.0600 
    192 H192       -4.5220  -19.7677  -48.0103 H         1 UNK         0.0600 
    193 H193       -5.6097  -21.1216  -47.7518 H         1 UNK         0.0600 
    194 H194       -4.4613  -20.6687  -46.4967 H         1 UNK         0.0600 
    195 H195       -2.9429  -22.6913  -45.8801 H         1 UNK         0.3000 
    196 H196       -4.4219  -25.0819  -45.8362 H         1 UNK         0.0600 
    197 H197       -2.9729  -25.6781  -43.9061 H         1 UNK         0.0600 
    198 H198       -3.4997  -24.0053  -43.8058 H         1 UNK         0.0600 
    199 H199       -1.8566  -24.3847  -44.3189 H         1 UNK         0.0600 
    200 H200       -1.0248  -24.5451  -46.8599 H         1 UNK         0.3000 
    201 H201       -0.3802  -27.2235  -47.5225 H         1 UNK         0.0600 
    202 H202        1.3078  -25.4268  -47.2456 H         1 UNK         0.0600 
    203 H203        0.6881  -24.5874  -48.6659 H         1 UNK         0.0600 
    204 H204        1.4624  -26.1584  -48.8356 H         1 UNK         0.0600 
    205 H205       -2.2980  -24.8545  -49.2568 H         1 UNK         0.3000 
    206 H206       -2.4244  -26.4508  -51.7415 H         1 UNK         0.0600 
    207 H207       -2.1606  -23.9622  -51.8569 H         1 UNK         0.0600 
    208 H208       -3.6474  -24.5043  -52.6143 H         1 UNK         0.0600 
    209 H209       -3.6975  -23.7597  -51.0209 H         1 UNK         0.0600 
    210 H210       -3.6014  -27.1894  -48.9468 H         1 UNK         0.3000 
    211 H211       -5.2422  -28.3927  -48.1372 H         1 UNK         0.0600 
    212 H212       -6.3762  -28.6967  -50.9644 H         1 UNK         0.0600 
    213 H213       -6.7247  -29.7113  -49.5740 H         1 UNK         0.0600 
    214 H214       -5.1107  -29.7061  -50.2647 H         1 UNK         0.0600 
    215 H215       -5.4166  -25.6371  -48.0216 H         1 UNK         0.3000 
    216 H216       -6.6462  -24.0830  -47.0840 H         1 UNK         0.0600 
    217 H217       -7.7771  -25.8816  -45.7549 H         1 UNK         0.0600 
    218 H218       -9.0422  -25.9775  -46.9804 H         1 UNK         0.0600 
    219 H219       -8.8170  -24.5006  -46.0580 H         1 UNK         0.0600 
    220 H220       -6.4276  -24.4291  -49.9812 H         1 UNK         0.3000 
    221 H221       -8.8412  -23.3059  -51.1736 H         1 UNK         0.0600 
    222 H222       -6.0001  -23.6514  -52.2694 H         1 UNK         0.0600 
    223 H223       -7.3374  -24.7785  -52.4918 H         1 UNK         0.0600 
    224 H224       -7.4081  -23.1749  -53.2092 H         1 UNK         0.0600 
    225 H225       -9.3069  -21.1843  -51.4309 H         1 UNK         0.3000 
    226 H226       -7.6114  -19.0675  -50.3452 H         1 UNK         0.0600 
    227 H227      -10.0963  -18.9639  -50.1347 H         1 UNK         0.0600 
    228 H228       -9.5020  -17.6160  -51.0917 H         1 UNK         0.0600 
    229 H229      -10.2651  -18.9850  -51.8904 H         1 UNK         0.0600 
    230 H230       -6.6074  -17.4576  -51.5616 H         1 UNK         0.3000 
    231 H231       -5.3028  -16.5902  -53.1288 H         1 UNK         0.0600 
    232 H232       -6.2141  -16.2517  -55.3939 H         1 UNK         0.0600 
    233 H233       -7.4828  -16.0114  -54.2040 H         1 UNK         0.0600 
    234 H234       -7.4242  -17.5012  -55.1445 H         1 UNK         0.0600 
    235 H235       -4.3856  -18.9102  -52.2332 H         1 UNK         0.3000 
    236 H236       -3.8878  -21.0350  -53.9135 H         1 UNK         0.0600 
    237 H237       -2.0282  -21.5482  -52.2816 H         1 UNK         0.0600 
    238 H238       -2.2089  -19.9405  -51.5936 H         1 UNK         0.0600 
    239 H239       -3.5315  -21.1049  -51.4931 H         1 UNK         0.0600 
    240 H240       -2.2261  -17.9511  -53.9850 H         1 UNK         0.3000 
    241 H241        0.0102  -18.8537  -55.5997 H         1 UNK         0.0600 
    242 H242       -2.9847  -18.1594  -58.2044 H         1 UNK         0.3800 
    243 H243       -3.3189  -18.3909  -56.5064 H         1 UNK         0.3800 
    244 H244        0.5607  -16.4474  -55.8414 H         1 UNK         0.0800 
    245 H245       -0.9628  -16.0007  -55.1230 H         1 UNK         0.0800 
    246 H246        2.0352  -18.5421  -54.2781 H         1 UNK         0.0800 
    247 H247        2.6737  -16.9509  -54.6211 H         1 UNK         0.0800 
@<TRIPOS>BOND
     1    1    2 1    
     2    1  127 1    
     3    1  128 1    
     4    1  129 1    
     5    2    3 2    
     6    2    4 am   BACKBONE|DICT|INTERRES
     7    4    5 1    
     8    4  130 1    
     9    5    6 1    
    10    5   65 1    
    11    5  131 1    
    12    6    7 1    
    13    6  132 1    
    14    6  133 1    
    15    7    8 1    
    16    8    9 1    
    17    8  134 1    
    18    8  135 1    
    19    9   10 ar   
    20    9   14 ar   
    21   10   11 ar   
    22   10  136 1    
    23   11   12 ar   
    24   11  126 1    
    25   12   13 ar   
    26   12  137 1    
    27   13   14 ar   
    28   13   15 1    
    29   14  138 1    
    30   15   16 1    
    31   15  139 1    
    32   15  140 1    
    33   16   17 1    
    34   17   18 1    
    35   17  141 1    
    36   17  142 1    
    37   18   19 1    
    38   18   67 1    
    39   18  143 1    
    40   19   20 am   BACKBONE|DICT|INTERRES
    41   19  144 1    
    42   20   21 2    
    43   20   22 1    
    44   22   23 1    
    45   22   24 1    
    46   22  145 1    
    47   23  146 1    
    48   23  147 1    
    49   23  148 1    
    50   24   25 am   BACKBONE|DICT|INTERRES
    51   24  149 1    
    52   25   26 2    
    53   25   27 1    
    54   27   28 1    
    55   27   29 1    
    56   27  150 1    
    57   28  151 1    
    58   28  152 1    
    59   28  153 1    
    60   29   30 am   BACKBONE|DICT|INTERRES
    61   29  154 1    
    62   30   31 2    
    63   30   32 1    
    64   32   33 1    
    65   32   34 1    
    66   32  155 1    
    67   33  156 1    
    68   33  157 1    
    69   33  158 1    
    70   34   35 am   BACKBONE|DICT|INTERRES
    71   34  159 1    
    72   35   36 2    
    73   35   37 1    
    74   37   38 1    
    75   37   39 1    
    76   37  160 1    
    77   38  161 1    
    78   38  162 1    
    79   38  163 1    
    80   39   40 am   BACKBONE|DICT|INTERRES
    81   39  164 1    
    82   40   41 2    
    83   40   42 1    
    84   42   43 1    
    85   42   44 1    
    86   42  165 1    
    87   43  166 1    
    88   43  167 1    
    89   43  168 1    
    90   44   45 am   BACKBONE|DICT|INTERRES
    91   44  169 1    
    92   45   46 2    
    93   45   47 1    
    94   47   48 1    
    95   47   49 1    
    96   47  170 1    
    97   48  171 1    
    98   48  172 1    
    99   48  173 1    
   100   49   50 am   BACKBONE|DICT|INTERRES
   101   49  174 1    
   102   50   51 2    
   103   50   52 1    
   104   52   53 1    
   105   52   54 1    
   106   52  175 1    
   107   53  176 1    
   108   53  177 1    
   109   53  178 1    
   110   54   55 am   BACKBONE|DICT|INTERRES
   111   54  179 1    
   112   55   56 2    
   113   55   57 1    
   114   57   58 1    
   115   57   59 1    
   116   57  180 1    
   117   58  181 1    
   118   58  182 1    
   119   58  183 1    
   120   59   60 am   BACKBONE|DICT|INTERRES
   121   59  184 1    
   122   60   61 2    
   123   60   62 1    
   124   62   63 1    
   125   62   64 1    
   126   62  185 1    
   127   63  186 1    
   128   63  187 1    
   129   63  188 1    
   130   64   65 am   BACKBONE|DICT|INTERRES
   131   64  189 1    
   132   65   66 2    
   133   67   68 2    
   134   67   69 am   BACKBONE|DICT|INTERRES
   135   69   70 1    
   136   69  190 1    
   137   70   71 1    
   138   70   72 1    
   139   70  191 1    
   140   71  192 1    
   141   71  193 1    
   142   71  194 1    
   143   72   73 2    
   144   72   74 am   BACKBONE|DICT|INTERRES
   145   74   75 1    
   146   74  195 1    
   147   75   76 1    
   148   75   77 1    
   149   75  196 1    
   150   76  197 1    
   151   76  198 1    
   152   76  199 1    
   153   77   78 2    
   154   77   79 am   BACKBONE|DICT|INTERRES
   155   79   80 1    
   156   79  200 1    
   157   80   81 1    
   158   80   82 1    
   159   80  201 1    
   160   81  202 1    
   161   81  203 1    
   162   81  204 1    
   163   82   83 2    
   164   82   84 am   BACKBONE|DICT|INTERRES
   165   84   85 1    
   166   84  205 1    
   167   85   86 1    
   168   85   87 1    
   169   85  206 1    
   170   86  207 1    
   171   86  208 1    
   172   86  209 1    
   173   87   88 2    
   174   87   89 am   BACKBONE|DICT|INTERRES
   175   89   90 1    
   176   89  210 1    
   177   90   91 1    
   178   90   92 1    
   179   90  211 1    
   180   91  212 1    
   181   91  213 1    
   182   91  214 1    
   183   92   93 2    
   184   92   94 am   BACKBONE|DICT|INTERRES
   185   94   95 1    
   186   94  215 1    
   187   95   96 1    
   188   95   97 1    
   189   95  216 1    
   190   96  217 1    
   191   96  218 1    
   192   96  219 1    
   193   97   98 2    
   194   97   99 am   BACKBONE|DICT|INTERRES
   195   99  100 1    
   196   99  220 1    
   197  100  101 1    
   198  100  102 1    
   199  100  221 1    
   200  101  222 1    
   201  101  223 1    
   202  101  224 1    
   203  102  103 2    
   204  102  104 am   BACKBONE|DICT|INTERRES
   205  104  105 1    
   206  104  225 1    
   207  105  106 1    
   208  105  107 1    
   209  105  226 1    
   210  106  227 1    
   211  106  228 1    
   212  106  229 1    
   213  107  108 2    
   214  107  109 am   BACKBONE|DICT|INTERRES
   215  109  110 1    
   216  109  230 1    
   217  110  111 1    
   218  110  112 1    
   219  110  231 1    
   220  111  232 1    
   221  111  233 1    
   222  111  234 1    
   223  112  113 2    
   224  112  114 am   BACKBONE|DICT|INTERRES
   225  114  115 1    
   226  114  235 1    
   227  115  116 1    
   228  115  117 1    
   229  115  236 1    
   230  116  237 1    
   231  116  238 1    
   232  116  239 1    
   233  117  118 2    
   234  117  119 am   BACKBONE|DICT|INTERRES
   235  119  120 1    
   236  119  240 1    
   237  120  121 1    
   238  120  124 1    
   239  120  241 1    
   240  121  122 am   BACKBONE|DICT|INTERRES
   241  121  123 2    
   242  122  242 1    
   243  122  243 1    
   244  124  125 1    
   245  124  244 1    
   246  124  245 1    
   247  125  126 1    
   248  126  246 1    
   249  126  247 1    
@<TRIPOS>SUBSTRUCTURE
     1 UNK         1 GROUP             0       ****    0 ROOT    
