@<TRIPOS>MOLECULE
3R540
247   249    1
SMALL
USER_CHARGES


@<TRIPOS>ATOM
      1 CA          4.9387  -13.3719  -47.1800 C.3       0 UNK        -0.1800 
      2 C           3.5912  -13.2888  -47.8832 C.2       0 UNK         0.5000 
      3 O           2.9924  -12.2141  -47.9302 O.2       0 UNK        -0.5000 
      4 N           3.1193  -14.4168  -48.4325 N.am      1 UNK        -0.5000 
      5 CA          1.8509  -14.5611  -49.1607 C.3       1 UNK         0.1400 
      6 C6          1.8694  -13.8236  -50.5335 C.3       23 UNK        -0.0398 
      7 S7          3.0553  -14.5969  -51.6874 S.3       23 UNK        -0.2404 
      8 C8          1.9493  -15.5638  -52.7694 C.3       23 UNK        -0.0205 
      9 C9          1.1105  -16.5636  -51.9856 C.ar      23 UNK        -0.0193 
     10 C10        -0.2157  -16.2620  -51.6580 C.ar      23 UNK        -0.1150 
     11 C11        -0.9781  -17.1540  -50.9027 C.ar      23 UNK        -0.0193 
     12 C12        -0.4155  -18.3681  -50.5079 C.ar      23 UNK        -0.1150 
     13 C13         0.9039  -18.6930  -50.8333 C.ar      23 UNK        -0.0193 
     14 C14         1.6636  -17.7808  -51.5733 C.ar      23 UNK        -0.1150 
     15 C15         1.5022  -20.0287  -50.4042 C.3       23 UNK        -0.0205 
     16 S16         1.8209  -20.1133  -48.6077 S.3       23 UNK        -0.2404 
     17 C17         0.1788  -20.5728  -47.9536 C.3       23 UNK        -0.0398 
     18 CA          0.2120  -21.7907  -46.9972 C.3       11 UNK         0.1400 
     19 N           0.8664  -21.4654  -45.7295 N.am      11 UNK        -0.5000 
     20 C           1.3865  -22.3445  -44.8648 C.2       10 UNK         0.5000 
     21 O           1.4744  -23.5528  -45.0901 O.2       10 UNK        -0.5000 
     22 CA          1.8317  -21.7888  -43.4997 C.3       10 UNK         0.1400 
     23 CB          3.2381  -21.1774  -43.5878 C.3       10 UNK        -0.1800 
     24 N           0.8909  -20.8012  -42.9632 N.am      10 UNK        -0.5000 
     25 C          -0.3636  -21.0796  -42.5758 C.2       9 UNK         0.5000 
     26 O          -0.8411  -22.2149  -42.5724 O.2       9 UNK        -0.5000 
     27 CA         -1.2379  -19.8960  -42.1194 C.3       9 UNK         0.1400 
     28 CB         -0.9621  -19.5527  -40.6477 C.3       9 UNK        -0.1800 
     29 N          -1.0575  -18.7027  -42.9469 N.am      9 UNK        -0.5000 
     30 C          -1.4529  -18.5990  -44.2246 C.2       8 UNK         0.5000 
     31 O          -2.0784  -19.4785  -44.8128 O.2       8 UNK        -0.5000 
     32 CA         -1.0449  -17.3202  -44.9849 C.3       8 UNK         0.1400 
     33 CB         -2.0482  -16.1841  -44.7391 C.3       8 UNK        -0.1800 
     34 N           0.3015  -16.8629  -44.6389 N.am      8 UNK        -0.5000 
     35 C           1.4181  -17.5711  -44.8565 C.2       7 UNK         0.5000 
     36 O           1.4334  -18.6717  -45.4043 O.2       7 UNK        -0.5000 
     37 CA          2.7292  -16.9915  -44.3025 C.3       7 UNK         0.1400 
     38 CB          3.3081  -15.9236  -45.2378 C.3       7 UNK        -0.1800 
     39 N           2.5501  -16.4378  -42.9613 N.am      7 UNK        -0.5000 
     40 C           2.3568  -17.1848  -41.8652 C.2       6 UNK         0.5000 
     41 O           2.3419  -18.4152  -41.8716 O.2       6 UNK        -0.5000 
     42 CA          2.1014  -16.4301  -40.5483 C.3       6 UNK         0.1400 
     43 CB          3.4278  -16.0058  -39.9004 C.3       6 UNK        -0.1800 
     44 N           1.2512  -15.2532  -40.7299 N.am      6 UNK        -0.5000 
     45 C          -0.0392  -15.3007  -41.0898 C.2       5 UNK         0.5000 
     46 O          -0.6581  -16.3464  -41.2785 O.2       5 UNK        -0.5000 
     47 CA         -0.7440  -13.9518  -41.3189 C.3       5 UNK         0.1400 
     48 CB         -1.3294  -13.4178  -40.0032 C.3       5 UNK        -0.1800 
     49 N           0.1280  -12.9344  -41.9126 N.am      5 UNK        -0.5000 
     50 C           0.6918  -13.0338  -43.1231 C.2       4 UNK         0.5000 
     51 O           0.5751  -14.0190  -43.8540 O.2       4 UNK        -0.5000 
     52 CA          1.5512  -11.8510  -43.5803 C.3       4 UNK         0.1400 
     53 CB          3.0339  -12.2471  -43.6542 C.3       4 UNK        -0.1800 
     54 N           1.0950  -11.4344  -44.9015 N.am      4 UNK        -0.5000 
     55 C           0.6412  -10.2116  -45.2031 C.2       3 UNK         0.5000 
     56 O           0.6188   -9.2757  -44.4021 O.2       3 UNK        -0.5000 
     57 CA          0.1180   -9.9753  -46.6328 C.3       3 UNK         0.1400 
     58 CB          1.1435   -9.1869  -47.4623 C.3       3 UNK        -0.1800 
     59 N          -0.2290  -11.2050  -47.3463 N.am      3 UNK        -0.5000 
     60 C          -1.3401  -11.9254  -47.1330 C.2       2 UNK         0.5000 
     61 O          -2.1765  -11.6427  -46.2746 O.2       2 UNK        -0.5000 
     62 CA         -1.5804  -13.1466  -48.0451 C.3       2 UNK         0.1400 
     63 CB         -2.7076  -12.8522  -49.0475 C.3       2 UNK        -0.1800 
     64 N          -0.3896  -13.5587  -48.7918 N.am      2 UNK        -0.5000 
     65 C           0.6427  -14.2208  -48.2526 C.2       1 UNK         0.5000 
     66 O           0.6650  -14.5646  -47.0708 O.2       1 UNK        -0.5000 
     67 C          -1.2061  -22.3546  -46.7436 C.2       11 UNK         0.5000 
     68 O          -2.1979  -21.7274  -47.1163 O.2       11 UNK        -0.5000 
     69 N          -1.2833  -23.5360  -46.1175 N.am      12 UNK        -0.5000 
     70 CA         -2.5220  -24.2772  -45.8858 C.3       12 UNK         0.1400 
     71 CB         -2.2181  -25.5071  -45.0177 C.3       12 UNK        -0.1800 
     72 C          -3.1746  -24.6984  -47.2151 C.2       12 UNK         0.5000 
     73 O          -2.4865  -25.2429  -48.0813 O.2       12 UNK        -0.5000 
     74 N          -4.4864  -24.4573  -47.3466 N.am      13 UNK        -0.5000 
     75 CA         -5.2647  -24.6315  -48.5798 C.3       13 UNK         0.1400 
     76 CB         -6.7067  -24.1629  -48.3365 C.3       13 UNK        -0.1800 
     77 C          -5.2467  -26.0528  -49.1745 C.2       13 UNK         0.5000 
     78 O          -5.4245  -26.2020  -50.3836 O.2       13 UNK        -0.5000 
     79 N          -4.9767  -27.0595  -48.3320 N.am      14 UNK        -0.5000 
     80 CA         -4.7690  -28.4599  -48.7070 C.3       14 UNK         0.1400 
     81 CB         -4.5971  -29.2923  -47.4271 C.3       14 UNK        -0.1800 
     82 C          -3.5782  -28.6904  -49.6631 C.2       14 UNK         0.5000 
     83 O          -3.5668  -29.6994  -50.3692 O.2       14 UNK        -0.5000 
     84 N          -2.6138  -27.7570  -49.6943 N.am      15 UNK        -0.5000 
     85 CA         -1.4946  -27.7545  -50.6402 C.3       15 UNK         0.1400 
     86 CB         -0.3991  -26.8113  -50.1191 C.3       15 UNK        -0.1800 
     87 C          -1.9073  -27.3664  -52.0770 C.2       15 UNK         0.5000 
     88 O          -1.1465  -27.6393  -53.0069 O.2       15 UNK        -0.5000 
     89 N          -3.0945  -26.7571  -52.2314 N.am      16 UNK        -0.5000 
     90 CA         -3.7003  -26.2734  -53.4756 C.3       16 UNK         0.1400 
     91 CB         -4.0104  -27.4540  -54.4223 C.3       16 UNK        -0.1800 
     92 C          -2.8881  -25.1455  -54.1512 C.2       16 UNK         0.5000 
     93 O          -2.0391  -24.5220  -53.5096 O.2       16 UNK        -0.5000 
     94 N          -3.1972  -24.8680  -55.4267 N.am      17 UNK        -0.5000 
     95 CA         -2.6165  -23.8084  -56.2586 C.3       17 UNK         0.1400 
     96 CB         -1.1550  -24.1527  -56.6267 C.3       17 UNK        -0.1800 
     97 C          -2.8013  -22.4205  -55.6072 C.2       17 UNK         0.5000 
     98 O          -3.9399  -22.0410  -55.3272 O.2       17 UNK        -0.5000 
     99 N          -1.6989  -21.7038  -55.3487 N.am      18 UNK        -0.5000 
    100 CA        -1.6867  -20.4025  -54.6778 C.3       18 UNK         0.1400 
    101 CB        -0.2682  -19.8138  -54.7323 C.3       18 UNK        -0.1800 
    102 C         -2.1797  -20.4563  -53.2206 C.2       18 UNK         0.5000 
    103 O         -2.7731  -19.4854  -52.7545 O.2       18 UNK        -0.5000 
    104 N         -1.9577  -21.5858  -52.5302 N.am      19 UNK        -0.5000 
    105 CA        -2.3227  -21.7662  -51.1240 C.3       19 UNK         0.1400 
    106 CB        -1.7163  -23.0680  -50.5871 C.3       19 UNK        -0.1800 
    107 C         -3.8382  -21.7229  -50.8777 C.2       19 UNK         0.5000 
    108 O         -4.2719  -21.2452  -49.8307 O.2       19 UNK        -0.5000 
    109 N         -4.6255  -22.1604  -51.8682 N.am      20 UNK        -0.5000 
    110 CA        -6.0879  -22.1307  -51.8384 C.3       20 UNK         0.1400 
    111 CB        -6.6243  -22.9301  -53.0351 C.3       20 UNK        -0.1800 
    112 C         -6.6887  -20.7085  -51.8112 C.2       20 UNK         0.5000 
    113 O         -7.8598  -20.5634  -51.4592 O.2       20 UNK        -0.5000 
    114 N         -5.8959  -19.6892  -52.1748 N.am      21 UNK        -0.5000 
    115 CA        -6.3161  -18.2899  -52.1961 C.3       21 UNK         0.1400 
    116 CB        -5.4634  -17.5220  -53.2191 C.3       21 UNK        -0.1800 
    117 C         -6.2598  -17.6010  -50.8181 C.2       21 UNK         0.5000 
    118 O         -6.8800  -16.5461  -50.6733 O.2       21 UNK        -0.5000 
    119 N         -5.5308  -18.1620  -49.8397 N.am      22 UNK        -0.5000 
    120 CA        -5.3563  -17.5389  -48.5133 C.3       22 UNK         0.1400 
    121 C         -5.0839  -18.5084  -47.3281 C.2       22 UNK         0.5000 
    122 N         -4.8065  -19.7885  -47.5331 N.am      22 UNK        -0.7600 
    123 O         -5.1550  -18.0866  -46.1771 O.2       22 UNK        -0.5000 
    124 C124       -4.3766  -16.3284  -48.5402 C.3       23 UNK        -0.0398 
    125 S125       -2.6101  -16.7644  -48.7048 S.3       23 UNK        -0.2404 
    126 C126       -2.4098  -16.8202  -50.5128 C.3       23 UNK        -0.0205 
    127 H127        4.8485  -13.0276  -46.1503 H         1 UNK         0.0600 
    128 H128        5.3269  -14.3905  -47.1652 H         1 UNK         0.0600 
    129 H129        5.6649  -12.7381  -47.6886 H         1 UNK         0.0600 
    130 H130        3.6575  -15.2659  -48.3454 H         1 UNK         0.3000 
    131 H131        1.7441  -15.6288  -49.3568 H         1 UNK         0.0600 
    132 H132        0.8933  -13.8157  -51.0151 H         1 UNK         0.0800 
    133 H133        2.1419  -12.7749  -50.4085 H         1 UNK         0.0800 
    134 H134        1.3086  -14.8830  -53.3321 H         1 UNK         0.0800 
    135 H135        2.5515  -16.0938  -53.5087 H         1 UNK         0.0800 
    136 H136       -0.6510  -15.3264  -51.9785 H         1 UNK         0.1150 
    137 H137       -1.0202  -19.0439  -49.9283 H         1 UNK         0.1150 
    138 H138        2.6887  -18.0125  -51.8261 H         1 UNK         0.1150 
    139 H139        0.8485  -20.8448  -50.7148 H         1 UNK         0.0800 
    140 H140        2.4478  -20.1947  -50.9222 H         1 UNK         0.0800 
    141 H141       -0.4628  -20.8096  -48.7989 H         1 UNK         0.0800 
    142 H142       -0.2657  -19.7036  -47.4646 H         1 UNK         0.0800 
    143 H143        0.7806  -22.5828  -47.4894 H         1 UNK         0.0600 
    144 H144        0.8862  -20.4780  -45.4852 H         1 UNK         0.3000 
    145 H145        1.8724  -22.6254  -42.7991 H         1 UNK         0.0600 
    146 H146        3.5848  -20.8433  -42.6099 H         1 UNK         0.0600 
    147 H147        3.9584  -21.9089  -43.9560 H         1 UNK         0.0600 
    148 H148        3.2658  -20.3223  -44.2630 H         1 UNK         0.0600 
    149 H149        1.2302  -19.8494  -42.8797 H         1 UNK         0.3000 
    150 H150       -2.2818  -20.2060  -42.2013 H         1 UNK         0.0600 
    151 H151       -1.0986  -20.4270  -40.0100 H         1 UNK         0.0600 
    152 H152       -1.6429  -18.7803  -40.2896 H         1 UNK         0.0600 
    153 H153        0.0570  -19.1945  -40.5010 H         1 UNK         0.0600 
    154 H154       -0.6172  -17.9028  -42.5034 H         1 UNK         0.3000 
    155 H155       -1.0493  -17.5511  -46.0523 H         1 UNK         0.0600 
    156 H156       -1.7738  -15.2901  -45.2996 H         1 UNK         0.0600 
    157 H157       -2.1014  -15.9155  -43.6841 H         1 UNK         0.0600 
    158 H158       -3.0496  -16.4756  -45.0581 H         1 UNK         0.0600 
    159 H159        0.3822  -15.9306  -44.2429 H         1 UNK         0.3000 
    160 H160        3.4545  -17.8056  -44.2406 H         1 UNK         0.0600 
    161 H161        2.6232  -15.0856  -45.3611 H         1 UNK         0.0600 
    162 H162        3.4948  -16.3412  -46.2274 H         1 UNK         0.0600 
    163 H163        4.2545  -15.5357  -44.8614 H         1 UNK         0.0600 
    164 H164        2.4822  -15.4340  -42.8874 H         1 UNK         0.3000 
    165 H165        1.5920  -17.1146  -39.8665 H         1 UNK         0.0600 
    166 H166        3.9741  -15.2971  -40.5241 H         1 UNK         0.0600 
    167 H167        3.2608  -15.5398  -38.9292 H         1 UNK         0.0600 
    168 H168        4.0757  -16.8684  -39.7386 H         1 UNK         0.0600 
    169 H169        1.6811  -14.3503  -40.5945 H         1 UNK         0.3000 
    170 H170       -1.5695  -14.1265  -42.0120 H         1 UNK         0.0600 
    171 H171       -1.9992  -14.1494  -39.5491 H         1 UNK         0.0600 
    172 H172       -0.5485  -13.1918  -39.2761 H         1 UNK         0.0600 
    173 H173       -1.9083  -12.5090  -40.1689 H         1 UNK         0.0600 
    174 H174        0.2735  -12.0955  -41.3694 H         1 UNK         0.3000 
    175 H175        1.4495  -11.0413  -42.8549 H         1 UNK         0.0600 
    176 H176        3.6504  -11.4006  -43.9569 H         1 UNK         0.0600 
    177 H177        3.3989  -12.5870  -42.6843 H         1 UNK         0.0600 
    178 H178        3.2008  -13.0505  -44.3702 H         1 UNK         0.0600 
    179 H179        1.0280  -12.1686  -45.5949 H         1 UNK         0.3000 
    180 H180       -0.7834   -9.3643  -46.5494 H         1 UNK         0.0600 
    181 H181        2.0801   -9.7337  -47.5718 H         1 UNK         0.0600 
    182 H182        1.3769   -8.2322  -46.9891 H         1 UNK         0.0600 
    183 H183        0.7622   -8.9688  -48.4600 H         1 UNK         0.0600 
    184 H184        0.4327  -11.5258  -48.0389 H         1 UNK         0.3000 
    185 H185       -1.8989  -13.9750  -47.4090 H         1 UNK         0.0600 
    186 H186       -2.9135  -13.7171  -49.6772 H         1 UNK         0.0600 
    187 H187       -3.6348  -12.6021  -48.5303 H         1 UNK         0.0600 
    188 H188       -2.4584  -12.0140  -49.6994 H         1 UNK         0.0600 
    189 H189       -0.3636  -13.2991  -49.7658 H         1 UNK         0.3000 
    190 H190       -0.4197  -23.9730  -45.8169 H         1 UNK         0.3000 
    191 H191       -3.2061  -23.6249  -45.3391 H         1 UNK         0.0600 
    192 H192       -1.7844  -25.2153  -44.0608 H         1 UNK         0.0600 
    193 H193       -3.1275  -26.0703  -44.8048 H         1 UNK         0.0600 
    194 H194       -1.5191  -26.1845  -45.5104 H         1 UNK         0.0600 
    195 H195       -4.9742  -24.0197  -46.5785 H         1 UNK         0.3000 
    196 H196       -4.8195  -23.9787  -49.3309 H         1 UNK         0.0600 
    197 H197       -7.3158  -24.2811  -49.2337 H         1 UNK         0.0600 
    198 H198       -6.7359  -23.1075  -48.0640 H         1 UNK         0.0600 
    199 H199       -7.1847  -24.7322  -47.5385 H         1 UNK         0.0600 
    200 H200       -4.8340  -26.8302  -47.3597 H         1 UNK         0.3000 
    201 H201       -5.6693  -28.8011  -49.2219 H         1 UNK         0.0600 
    202 H202       -5.4711  -29.2090  -46.7809 H         1 UNK         0.0600 
    203 H203       -3.7239  -28.9742  -46.8559 H         1 UNK         0.0600 
    204 H204       -4.4685  -30.3497  -47.6621 H         1 UNK         0.0600 
    205 H205       -2.6811  -26.9511  -49.0788 H         1 UNK         0.3000 
    206 H206       -1.0784  -28.7632  -50.6812 H         1 UNK         0.0600 
    207 H207       -0.7430  -25.7779  -50.0825 H         1 UNK         0.0600 
    208 H208       -0.0779  -27.0928  -49.1161 H         1 UNK         0.0600 
    209 H209        0.4803  -26.8398  -50.7636 H         1 UNK         0.0600 
    210 H210       -3.6492  -26.5866  -51.4008 H         1 UNK         0.3000 
    211 H211       -4.6508  -25.8270  -53.1817 H         1 UNK         0.0600 
    212 H212       -3.1044  -27.8646  -54.8693 H         1 UNK         0.0600 
    213 H213       -4.6717  -27.1524  -55.2348 H         1 UNK         0.0600 
    214 H214       -4.5134  -28.2613  -53.8895 H         1 UNK         0.0600 
    215 H215       -3.9339  -25.4030  -55.8636 H         1 UNK         0.3000 
    216 H216       -3.1935  -23.7872  -57.1841 H         1 UNK         0.0600 
    217 H217       -1.1001  -25.1217  -57.1230 H         1 UNK         0.0600 
    218 H218       -0.5065  -24.1980  -55.7510 H         1 UNK         0.0600 
    219 H219       -0.7374  -23.4189  -57.3171 H         1 UNK         0.0600 
    220 H220       -0.8015  -22.0968  -55.5921 H         1 UNK         0.3000 
    221 H221       -2.3557  -19.7355  -55.2257 H         1 UNK         0.0600 
    222 H222        0.4533  -20.4532  -54.2221 H         1 UNK         0.0600 
    223 H223        0.0663  -19.6811  -55.7613 H         1 UNK         0.0600 
    224 H224       -0.2332  -18.8350  -54.2507 H         1 UNK         0.0600 
    225 H225       -1.5437  -22.3824  -52.9994 H         1 UNK         0.3000 
    226 H226       -1.8882  -20.9390  -50.5683 H         1 UNK         0.0600 
    227 H227       -0.6510  -23.1373  -50.8063 H         1 UNK         0.0600 
    228 H228       -1.8287  -23.1196  -49.5062 H         1 UNK         0.0600 
    229 H229       -2.2081  -23.9480  -51.0011 H         1 UNK         0.0600 
    230 H230       -4.1913  -22.4774  -52.7240 H         1 UNK         0.3000 
    231 H231       -6.4126  -22.6311  -50.9246 H         1 UNK         0.0600 
    232 H232       -7.7146  -22.9593  -53.0296 H         1 UNK         0.0600 
    233 H233       -6.2740  -23.9617  -53.0092 H         1 UNK         0.0600 
    234 H234       -6.3127  -22.4910  -53.9835 H         1 UNK         0.0600 
    235 H235       -4.9343  -19.8756  -52.4333 H         1 UNK         0.3000 
    236 H236       -7.3529  -18.2446  -52.5365 H         1 UNK         0.0600 
    237 H237       -5.8261  -16.5004  -53.3384 H         1 UNK         0.0600 
    238 H238       -4.4194  -17.4604  -52.9145 H         1 UNK         0.0600 
    239 H239       -5.4994  -17.9955  -54.2003 H         1 UNK         0.0600 
    240 H240       -5.0604  -19.0417  -50.0005 H         1 UNK         0.3000 
    241 H241       -6.3335  -17.1273  -48.2521 H         1 UNK         0.0600 
    242 H242       -4.6811  -20.2052  -48.4522 H         1 UNK         0.3800 
    243 H243       -4.5808  -20.3524  -46.7298 H         1 UNK         0.3800 
    244 H244       -4.6485  -15.6317  -49.3335 H         1 UNK         0.0800 
    245 H245       -4.4805  -15.7581  -47.6158 H         1 UNK         0.0800 
    246 H246       -3.0684  -17.5838  -50.9236 H         1 UNK         0.0800 
    247 H247       -2.7205  -15.8684  -50.9451 H         1 UNK         0.0800 
@<TRIPOS>BOND
     1    1    2 1    
     2    1  127 1    
     3    1  128 1    
     4    1  129 1    
     5    2    3 2    
     6    2    4 am   BACKBONE|DICT|INTERRES
     7    4    5 1    
     8    4  130 1    
     9    5    6 1    
    10    5   65 1    
    11    5  131 1    
    12    6    7 1    
    13    6  132 1    
    14    6  133 1    
    15    7    8 1    
    16    8    9 1    
    17    8  134 1    
    18    8  135 1    
    19    9   10 ar   
    20    9   14 ar   
    21   10   11 ar   
    22   10  136 1    
    23   11   12 ar   
    24   11  126 1    
    25   12   13 ar   
    26   12  137 1    
    27   13   14 ar   
    28   13   15 1    
    29   14  138 1    
    30   15   16 1    
    31   15  139 1    
    32   15  140 1    
    33   16   17 1    
    34   17   18 1    
    35   17  141 1    
    36   17  142 1    
    37   18   19 1    
    38   18   67 1    
    39   18  143 1    
    40   19   20 am   BACKBONE|DICT|INTERRES
    41   19  144 1    
    42   20   21 2    
    43   20   22 1    
    44   22   23 1    
    45   22   24 1    
    46   22  145 1    
    47   23  146 1    
    48   23  147 1    
    49   23  148 1    
    50   24   25 am   BACKBONE|DICT|INTERRES
    51   24  149 1    
    52   25   26 2    
    53   25   27 1    
    54   27   28 1    
    55   27   29 1    
    56   27  150 1    
    57   28  151 1    
    58   28  152 1    
    59   28  153 1    
    60   29   30 am   BACKBONE|DICT|INTERRES
    61   29  154 1    
    62   30   31 2    
    63   30   32 1    
    64   32   33 1    
    65   32   34 1    
    66   32  155 1    
    67   33  156 1    
    68   33  157 1    
    69   33  158 1    
    70   34   35 am   BACKBONE|DICT|INTERRES
    71   34  159 1    
    72   35   36 2    
    73   35   37 1    
    74   37   38 1    
    75   37   39 1    
    76   37  160 1    
    77   38  161 1    
    78   38  162 1    
    79   38  163 1    
    80   39   40 am   BACKBONE|DICT|INTERRES
    81   39  164 1    
    82   40   41 2    
    83   40   42 1    
    84   42   43 1    
    85   42   44 1    
    86   42  165 1    
    87   43  166 1    
    88   43  167 1    
    89   43  168 1    
    90   44   45 am   BACKBONE|DICT|INTERRES
    91   44  169 1    
    92   45   46 2    
    93   45   47 1    
    94   47   48 1    
    95   47   49 1    
    96   47  170 1    
    97   48  171 1    
    98   48  172 1    
    99   48  173 1    
   100   49   50 am   BACKBONE|DICT|INTERRES
   101   49  174 1    
   102   50   51 2    
   103   50   52 1    
   104   52   53 1    
   105   52   54 1    
   106   52  175 1    
   107   53  176 1    
   108   53  177 1    
   109   53  178 1    
   110   54   55 am   BACKBONE|DICT|INTERRES
   111   54  179 1    
   112   55   56 2    
   113   55   57 1    
   114   57   58 1    
   115   57   59 1    
   116   57  180 1    
   117   58  181 1    
   118   58  182 1    
   119   58  183 1    
   120   59   60 am   BACKBONE|DICT|INTERRES
   121   59  184 1    
   122   60   61 2    
   123   60   62 1    
   124   62   63 1    
   125   62   64 1    
   126   62  185 1    
   127   63  186 1    
   128   63  187 1    
   129   63  188 1    
   130   64   65 am   BACKBONE|DICT|INTERRES
   131   64  189 1    
   132   65   66 2    
   133   67   68 2    
   134   67   69 am   BACKBONE|DICT|INTERRES
   135   69   70 1    
   136   69  190 1    
   137   70   71 1    
   138   70   72 1    
   139   70  191 1    
   140   71  192 1    
   141   71  193 1    
   142   71  194 1    
   143   72   73 2    
   144   72   74 am   BACKBONE|DICT|INTERRES
   145   74   75 1    
   146   74  195 1    
   147   75   76 1    
   148   75   77 1    
   149   75  196 1    
   150   76  197 1    
   151   76  198 1    
   152   76  199 1    
   153   77   78 2    
   154   77   79 am   BACKBONE|DICT|INTERRES
   155   79   80 1    
   156   79  200 1    
   157   80   81 1    
   158   80   82 1    
   159   80  201 1    
   160   81  202 1    
   161   81  203 1    
   162   81  204 1    
   163   82   83 2    
   164   82   84 am   BACKBONE|DICT|INTERRES
   165   84   85 1    
   166   84  205 1    
   167   85   86 1    
   168   85   87 1    
   169   85  206 1    
   170   86  207 1    
   171   86  208 1    
   172   86  209 1    
   173   87   88 2    
   174   87   89 am   BACKBONE|DICT|INTERRES
   175   89   90 1    
   176   89  210 1    
   177   90   91 1    
   178   90   92 1    
   179   90  211 1    
   180   91  212 1    
   181   91  213 1    
   182   91  214 1    
   183   92   93 2    
   184   92   94 am   BACKBONE|DICT|INTERRES
   185   94   95 1    
   186   94  215 1    
   187   95   96 1    
   188   95   97 1    
   189   95  216 1    
   190   96  217 1    
   191   96  218 1    
   192   96  219 1    
   193   97   98 2    
   194   97   99 am   BACKBONE|DICT|INTERRES
   195   99  100 1    
   196   99  220 1    
   197  100  101 1    
   198  100  102 1    
   199  100  221 1    
   200  101  222 1    
   201  101  223 1    
   202  101  224 1    
   203  102  103 2    
   204  102  104 am   BACKBONE|DICT|INTERRES
   205  104  105 1    
   206  104  225 1    
   207  105  106 1    
   208  105  107 1    
   209  105  226 1    
   210  106  227 1    
   211  106  228 1    
   212  106  229 1    
   213  107  108 2    
   214  107  109 am   BACKBONE|DICT|INTERRES
   215  109  110 1    
   216  109  230 1    
   217  110  111 1    
   218  110  112 1    
   219  110  231 1    
   220  111  232 1    
   221  111  233 1    
   222  111  234 1    
   223  112  113 2    
   224  112  114 am   BACKBONE|DICT|INTERRES
   225  114  115 1    
   226  114  235 1    
   227  115  116 1    
   228  115  117 1    
   229  115  236 1    
   230  116  237 1    
   231  116  238 1    
   232  116  239 1    
   233  117  118 2    
   234  117  119 am   BACKBONE|DICT|INTERRES
   235  119  120 1    
   236  119  240 1    
   237  120  121 1    
   238  120  124 1    
   239  120  241 1    
   240  121  122 am   BACKBONE|DICT|INTERRES
   241  121  123 2    
   242  122  242 1    
   243  122  243 1    
   244  124  125 1    
   245  124  244 1    
   246  124  245 1    
   247  125  126 1    
   248  126  246 1    
   249  126  247 1    
@<TRIPOS>SUBSTRUCTURE
     1 UNK         1 GROUP             0       ****    0 ROOT    
