@<TRIPOS>MOLECULE
3R540
247   249    1
SMALL
USER_CHARGES


@<TRIPOS>ATOM
      1 CA          2.0366   -9.5185  -51.5644 C.3       0 UNK        -0.1800 
      2 C           3.0290  -10.5860  -51.1268 C.2       0 UNK         0.5000 
      3 O           3.8825  -10.3218  -50.2803 O.2       0 UNK        -0.5000 
      4 N           2.9135  -11.7955  -51.6895 N.am      1 UNK        -0.5000 
      5 CA          3.7765  -12.9497  -51.3998 C.3       1 UNK         0.1400 
      6 C6          3.7766  -13.9606  -52.5784 C.3       23 UNK        -0.0398 
      7 S7          2.1657  -14.7797  -52.8784 S.3       23 UNK        -0.2404 
      8 C8          2.4802  -16.4211  -52.1353 C.3       23 UNK        -0.0205 
      9 C9          1.2725  -17.0358  -51.4342 C.ar      23 UNK        -0.0193 
     10 C10         0.3748  -16.2520  -50.7026 C.ar      23 UNK        -0.1150 
     11 C11        -0.6947  -16.8344  -50.0177 C.ar      23 UNK        -0.0193 
     12 C12        -0.8457  -18.2236  -50.0409 C.ar      23 UNK        -0.1150 
     13 C13         0.0496  -19.0224  -50.7565 C.ar      23 UNK        -0.0193 
     14 C14         1.0953  -18.4213  -51.4622 C.ar      23 UNK        -0.1150 
     15 C15        -0.0865  -20.5368  -50.7456 C.3       23 UNK        -0.0205 
     16 S16         1.2456  -21.3139  -49.7762 S.3       23 UNK        -0.2404 
     17 C17         0.7753  -20.8724  -48.0668 C.3       23 UNK        -0.0398 
     18 CA          0.3350  -22.1052  -47.2448 C.3       11 UNK         0.1400 
     19 N           0.3893  -21.8583  -45.8032 N.am      11 UNK        -0.5000 
     20 C           0.2678  -22.8096  -44.8666 C.2       10 UNK         0.5000 
     21 O           0.1435  -24.0072  -45.1214 O.2       10 UNK        -0.5000 
     22 CA          0.2240  -22.3426  -43.4008 C.3       10 UNK         0.1400 
     23 CB          1.6388  -22.0737  -42.8684 C.3       10 UNK        -0.1800 
     24 N          -0.6156  -21.1580  -43.2144 N.am      10 UNK        -0.5000 
     25 C          -1.9343  -21.1260  -43.4581 C.2       9 UNK         0.5000 
     26 O          -2.5856  -22.1055  -43.8194 O.2       9 UNK        -0.5000 
     27 CA         -2.6403  -19.7674  -43.3187 C.3       9 UNK         0.1400 
     28 CB         -2.9655  -19.4744  -41.8468 C.3       9 UNK        -0.1800 
     29 N          -1.8632  -18.6650  -43.8843 N.am      9 UNK        -0.5000 
     30 C          -1.5416  -18.5411  -45.1807 C.2       8 UNK         0.5000 
     31 O          -1.8900  -19.3356  -46.0551 O.2       8 UNK        -0.5000 
     32 CA         -0.6294  -17.3575  -45.5515 C.3       8 UNK         0.1400 
     33 CB         -1.4121  -16.0369  -45.5319 C.3       8 UNK        -0.1800 
     34 N           0.5296  -17.2512  -44.6651 N.am      8 UNK        -0.5000 
     35 C           1.4628  -18.2027  -44.5174 C.2       7 UNK         0.5000 
     36 O           1.4786  -19.2518  -45.1618 O.2       7 UNK        -0.5000 
     37 CA          2.5179  -17.9806  -43.4209 C.3       7 UNK         0.1400 
     38 CB          3.6982  -17.1521  -43.9385 C.3       7 UNK        -0.1800 
     39 N           1.9510  -17.3411  -42.2348 N.am      7 UNK        -0.5000 
     40 C           1.1340  -17.9593  -41.3718 C.2       6 UNK         0.5000 
     41 O           0.7850  -19.1350  -41.4816 O.2       6 UNK        -0.5000 
     42 CA          0.5861  -17.1063  -40.2141 C.3       6 UNK         0.1400 
     43 CB          1.6486  -16.9200  -39.1203 C.3       6 UNK        -0.1800 
     44 N           0.1062  -15.7962  -40.6565 N.am      6 UNK        -0.5000 
     45 C          -0.9391  -15.6151  -41.4747 C.2       5 UNK         0.5000 
     46 O          -1.6068  -16.5353  -41.9439 O.2       5 UNK        -0.5000 
     47 CA         -1.2911  -14.1657  -41.8527 C.3       5 UNK         0.1400 
     48 CB         -2.2653  -13.5685  -40.8261 C.3       5 UNK        -0.1800 
     49 N          -0.1396  -13.2715  -41.9999 N.am      5 UNK        -0.5000 
     50 C           0.8784  -13.4408  -42.8549 C.2       4 UNK         0.5000 
     51 O           1.0283  -14.4516  -43.5457 O.2       4 UNK        -0.5000 
     52 CA          1.8522  -12.2494  -42.9577 C.3       4 UNK         0.1400 
     53 CB          2.6002  -11.9940  -41.6312 C.3       4 UNK        -0.1800 
     54 N           2.7652  -12.3461  -44.1034 N.am      4 UNK        -0.5000 
     55 C           3.8596  -13.1091  -44.2451 C.2       3 UNK         0.5000 
     56 O           4.3426  -13.8077  -43.3523 O.2       3 UNK        -0.5000 
     57 CA          4.5304  -13.0506  -45.6374 C.3       3 UNK         0.1400 
     58 CB          5.6110  -14.1342  -45.8397 C.3       3 UNK        -0.1800 
     59 N           3.5602  -13.0679  -46.7417 N.am      3 UNK        -0.5000 
     60 C           2.6814  -14.0446  -47.0181 C.2       2 UNK         0.5000 
     61 O           2.5874  -15.0971  -46.3911 O.2       2 UNK        -0.5000 
     62 CA          1.7403  -13.8116  -48.2112 C.3       2 UNK         0.1400 
     63 CB          0.5489  -12.9361  -47.7896 C.3       2 UNK        -0.1800 
     64 N           2.3567  -13.2172  -49.3994 N.am      2 UNK        -0.5000 
     65 C           3.4557  -13.6354  -50.0476 C.2       1 UNK         0.5000 
     66 O           4.1888  -14.5399  -49.6477 O.2       1 UNK        -0.5000 
     67 C          -1.0470  -22.6307  -47.6837 C.2       11 UNK         0.5000 
     68 O          -1.1076  -23.6108  -48.4238 O.2       11 UNK        -0.5000 
     69 N          -2.1298  -22.0128  -47.1890 N.am      12 UNK        -0.5000 
     70 CA         -3.5071  -22.4441  -47.4412 C.3       12 UNK         0.1400 
     71 CB         -4.4869  -21.4191  -46.8528 C.3       12 UNK        -0.1800 
     72 C          -3.8017  -23.8592  -46.9063 C.2       12 UNK         0.5000 
     73 O          -4.4622  -24.6409  -47.5920 O.2       12 UNK        -0.5000 
     74 N          -3.2745  -24.1776  -45.7157 N.am      13 UNK        -0.5000 
     75 CA         -3.3389  -25.5057  -45.1072 C.3       13 UNK         0.1400 
     76 CB         -2.8516  -25.4374  -43.6523 C.3       13 UNK        -0.1800 
     77 C          -2.5483  -26.5565  -45.9072 C.2       13 UNK         0.5000 
     78 O          -3.0774  -27.6372  -46.1669 O.2       13 UNK        -0.5000 
     79 N          -1.3218  -26.2110  -46.3267 N.am      14 UNK        -0.5000 
     80 CA         -0.4610  -27.0468  -47.1709 C.3       14 UNK         0.1400 
     81 CB          0.9283  -26.4022  -47.2877 C.3       14 UNK        -0.1800 
     82 C          -1.0581  -27.3111  -48.5670 C.2       14 UNK         0.5000 
     83 O          -0.9174  -28.4158  -49.0923 O.2       14 UNK        -0.5000 
     84 N          -1.7535  -26.3079  -49.1175 N.am      15 UNK        -0.5000 
     85 CA         -2.5194  -26.3818  -50.3620 C.3       15 UNK         0.1400 
     86 CB         -2.7556  -24.9527  -50.8794 C.3       15 UNK        -0.1800 
     87 C          -3.8594  -27.1359  -50.2225 C.2       15 UNK         0.5000 
     88 O          -4.5479  -27.3073  -51.2276 O.2       15 UNK        -0.5000 
     89 N          -4.2231  -27.5533  -48.9997 N.am      16 UNK        -0.5000 
     90 CA         -5.4527  -28.2624  -48.6304 C.3       16 UNK         0.1400 
     91 CB         -5.4754  -29.6767  -49.2468 C.3       16 UNK        -0.1800 
     92 C          -6.7266  -27.4450  -48.9304 C.2       16 UNK         0.5000 
     93 O          -7.7211  -27.9960  -49.4058 O.2       16 UNK        -0.5000 
     94 N          -6.6582  -26.1356  -48.6483 N.am      17 UNK        -0.5000 
     95 CA         -7.7027  -25.1241  -48.8376 C.3       17 UNK         0.1400 
     96 CB         -8.9436  -25.4325  -47.9731 C.3       17 UNK        -0.1800 
     97 C          -8.0519  -24.8400  -50.3151 C.2       17 UNK         0.5000 
     98 O          -9.1273  -24.3055  -50.5945 O.2       17 UNK        -0.5000 
     99 N          -7.1316  -25.1595  -51.2365 N.am      18 UNK        -0.5000 
    100 CA        -7.1831  -24.7411  -52.6389 C.3       18 UNK         0.1400 
    101 CB        -6.2020  -25.5986  -53.4539 C.3       18 UNK        -0.1800 
    102 C         -6.8647  -23.2386  -52.7938 C.2       18 UNK         0.5000 
    103 O         -6.4311  -22.5933  -51.8349 O.2       18 UNK        -0.5000 
    104 N         -7.0881  -22.7101  -54.0049 N.am      19 UNK        -0.5000 
    105 CA        -6.8656  -21.3102  -54.3746 C.3       19 UNK         0.1400 
    106 CB        -7.2747  -21.1042  -55.8418 C.3       19 UNK        -0.1800 
    107 C         -5.4111  -20.8544  -54.1396 C.2       19 UNK         0.5000 
    108 O         -4.4850  -21.4286  -54.7175 O.2       19 UNK        -0.5000 
    109 N         -5.2500  -19.8419  -53.2824 N.am      20 UNK        -0.5000 
    110 CA        -3.9709  -19.2358  -52.9246 C.3       20 UNK         0.1400 
    111 CB        -4.1510  -18.5111  -51.5841 C.3       20 UNK        -0.1800 
    112 C         -3.4777  -18.2564  -54.0058 C.2       20 UNK         0.5000 
    113 O         -4.2780  -17.7630  -54.8048 O.2       20 UNK        -0.5000 
    114 N         -2.1681  -17.9744  -53.9957 N.am      21 UNK        -0.5000 
    115 CA        -1.5328  -17.0193  -54.9080 C.3       21 UNK         0.1400 
    116 CB        -0.0363  -17.3426  -55.0209 C.3       21 UNK        -0.1800 
    117 C         -1.7500  -15.5498  -54.4934 C.2       21 UNK         0.5000 
    118 O         -1.6928  -14.6706  -55.3546 O.2       21 UNK        -0.5000 
    119 N         -2.0018  -15.3051  -53.2003 N.am      22 UNK        -0.5000 
    120 CA        -2.4034  -13.9987  -52.6581 C.3       22 UNK         0.1400 
    121 C         -3.8261  -13.5580  -53.1119 C.2       22 UNK         0.5000 
    122 N         -4.0801  -12.2582  -53.1890 N.am      22 UNK        -0.7600 
    123 O         -4.7106  -14.3732  -53.3640 O.2       22 UNK        -0.5000 
    124 C124       -2.2492  -13.9285  -51.1141 C.3       23 UNK        -0.0398 
    125 S125       -3.0299  -15.3113  -50.2045 S.3       23 UNK        -0.2404 
    126 C126       -1.6562  -15.9754  -49.2092 C.3       23 UNK        -0.0205 
    127 H127        1.4632   -9.1651  -50.7074 H         1 UNK         0.0600 
    128 H128        2.5659   -8.6688  -51.9956 H         1 UNK         0.0600 
    129 H129        1.3364   -9.8965  -52.3097 H         1 UNK         0.0600 
    130 H130        2.1908  -11.9600  -52.3767 H         1 UNK         0.3000 
    131 H131        4.7986  -12.5760  -51.3078 H         1 UNK         0.0600 
    132 H132        4.5534  -14.7128  -52.4313 H         1 UNK         0.0800 
    133 H133        4.0591  -13.4427  -53.4959 H         1 UNK         0.0800 
    134 H134        2.8417  -17.0842  -52.9226 H         1 UNK         0.0800 
    135 H135        3.2806  -16.3584  -51.3985 H         1 UNK         0.0800 
    136 H136        0.5248  -15.1856  -50.6539 H         1 UNK         0.1150 
    137 H137       -1.6528  -18.6841  -49.4878 H         1 UNK         0.1150 
    138 H138        1.7953  -19.0422  -52.0038 H         1 UNK         0.1150 
    139 H139       -1.0563  -20.8445  -50.3507 H         1 UNK         0.0800 
    140 H140       -0.0406  -20.9082  -51.7703 H         1 UNK         0.0800 
    141 H141        0.0092  -20.0961  -48.0553 H         1 UNK         0.0800 
    142 H142        1.6571  -20.4217  -47.6100 H         1 UNK         0.0800 
    143 H143        1.0557  -22.9027  -47.4396 H         1 UNK         0.0600 
    144 H144        0.5351  -20.8957  -45.5106 H         1 UNK         0.3000 
    145 H145       -0.2102  -23.1513  -42.8092 H         1 UNK         0.0600 
    146 H146        1.6187  -21.8072  -41.8117 H         1 UNK         0.0600 
    147 H147        2.2673  -22.9595  -42.9685 H         1 UNK         0.0600 
    148 H148        2.1266  -21.2634  -43.4095 H         1 UNK         0.0600 
    149 H149       -0.1567  -20.3208  -42.8712 H         1 UNK         0.3000 
    150 H150       -3.5817  -19.8255  -43.8684 H         1 UNK         0.0600 
    151 H151       -3.5458  -20.2852  -41.4047 H         1 UNK         0.0600 
    152 H152       -3.5543  -18.5623  -41.7484 H         1 UNK         0.0600 
    153 H153       -2.0601  -19.3533  -41.2507 H         1 UNK         0.0600 
    154 H154       -1.5656  -17.9447  -43.2313 H         1 UNK         0.3000 
    155 H155       -0.2600  -17.5231  -46.5658 H         1 UNK         0.0600 
    156 H156       -1.7605  -15.7918  -44.5304 H         1 UNK         0.0600 
    157 H157       -2.2924  -16.0863  -46.1722 H         1 UNK         0.0600 
    158 H158       -0.7936  -15.2117  -45.8805 H         1 UNK         0.0600 
    159 H159        0.6294  -16.3887  -44.1394 H         1 UNK         0.3000 
    160 H160        2.9036  -18.9599  -43.1309 H         1 UNK         0.0600 
    161 H161        4.4980  -17.0953  -43.2003 H         1 UNK         0.0600 
    162 H162        3.3881  -16.1354  -44.1721 H         1 UNK         0.0600 
    163 H163        4.1176  -17.5860  -44.8470 H         1 UNK         0.0600 
    164 H164        2.1384  -16.3556  -42.1158 H         1 UNK         0.3000 
    165 H165       -0.2588  -17.6443  -39.7785 H         1 UNK         0.0600 
    166 H166        1.2383  -16.3938  -38.2582 H         1 UNK         0.0600 
    167 H167        2.0165  -17.8840  -38.7663 H         1 UNK         0.0600 
    168 H168        2.5074  -16.3533  -39.4821 H         1 UNK         0.0600 
    169 H169        0.6057  -14.9845  -40.3246 H         1 UNK         0.3000 
    170 H170       -1.8002  -14.1953  -42.8173 H         1 UNK         0.0600 
    171 H171       -3.1468  -14.2007  -40.7099 H         1 UNK         0.0600 
    172 H172       -1.8026  -13.4667  -39.8437 H         1 UNK         0.0600 
    173 H173       -2.6138  -12.5837  -41.1378 H         1 UNK         0.0600 
    174 H174       -0.1804  -12.4150  -41.4668 H         1 UNK         0.3000 
    175 H175        1.2399  -11.3694  -43.1602 H         1 UNK         0.0600 
    176 H176        3.1135  -12.8862  -41.2718 H         1 UNK         0.0600 
    177 H177        3.3400  -11.2009  -41.7403 H         1 UNK         0.0600 
    178 H178        1.9115  -11.6834  -40.8452 H         1 UNK         0.0600 
    179 H179        2.4615  -11.8420  -44.9237 H         1 UNK         0.3000 
    180 H180        5.0307  -12.0825  -45.6878 H         1 UNK         0.0600 
    181 H181        5.2006  -15.1400  -45.7485 H         1 UNK         0.0600 
    182 H182        6.4052  -14.0378  -45.0986 H         1 UNK         0.0600 
    183 H183        6.0727  -14.0503  -46.8235 H         1 UNK         0.0600 
    184 H184        3.5601  -12.2548  -47.3415 H         1 UNK         0.3000 
    185 H185        1.3597  -14.7917  -48.4996 H         1 UNK         0.0600 
    186 H186        0.0661  -13.3286  -46.8948 H         1 UNK         0.0600 
    187 H187        0.8610  -11.9152  -47.5667 H         1 UNK         0.0600 
    188 H188       -0.2071  -12.8892  -48.5732 H         1 UNK         0.0600 
    189 H189        1.8505  -12.4537  -49.8221 H         1 UNK         0.3000 
    190 H190       -2.0079  -21.1860  -46.6101 H         1 UNK         0.3000 
    191 H191       -3.6524  -22.4654  -48.5231 H         1 UNK         0.0600 
    192 H192       -4.3797  -21.3339  -45.7714 H         1 UNK         0.0600 
    193 H193       -5.5194  -21.7028  -47.0602 H         1 UNK         0.0600 
    194 H194       -4.3275  -20.4302  -47.2832 H         1 UNK         0.0600 
    195 H195       -2.7991  -23.4547  -45.1824 H         1 UNK         0.3000 
    196 H196       -4.3859  -25.8162  -45.0967 H         1 UNK         0.0600 
    197 H197       -1.8168  -25.1013  -43.5869 H         1 UNK         0.0600 
    198 H198       -2.9105  -26.4159  -43.1742 H         1 UNK         0.0600 
    199 H199       -3.4620  -24.7509  -43.0654 H         1 UNK         0.0600 
    200 H200       -0.9380  -25.3153  -46.0366 H         1 UNK         0.3000 
    201 H201       -0.3464  -28.0120  -46.6735 H         1 UNK         0.0600 
    202 H202        0.8776  -25.4193  -47.7566 H         1 UNK         0.0600 
    203 H203        1.5965  -27.0194  -47.8894 H         1 UNK         0.0600 
    204 H204        1.3906  -26.2818  -46.3079 H         1 UNK         0.0600 
    205 H205       -1.7414  -25.4029  -48.6540 H         1 UNK         0.3000 
    206 H206       -1.9220  -26.9172  -51.1025 H         1 UNK         0.0600 
    207 H207       -1.8144  -24.4166  -51.0031 H         1 UNK         0.0600 
    208 H208       -3.2493  -24.9606  -51.8509 H         1 UNK         0.0600 
    209 H209       -3.3817  -24.3770  -50.1972 H         1 UNK         0.0600 
    210 H210       -3.6012  -27.3499  -48.2265 H         1 UNK         0.3000 
    211 H211       -5.4204  -28.3797  -47.5465 H         1 UNK         0.0600 
    212 H212       -5.5657  -29.6457  -50.3330 H         1 UNK         0.0600 
    213 H213       -6.3177  -30.2552  -48.8657 H         1 UNK         0.0600 
    214 H214       -4.5673  -30.2272  -49.0010 H         1 UNK         0.0600 
    215 H215       -5.7819  -25.7699  -48.2789 H         1 UNK         0.3000 
    216 H216       -7.2732  -24.1949  -48.4603 H         1 UNK         0.0600 
    217 H217       -8.6654  -25.6170  -46.9355 H         1 UNK         0.0600 
    218 H218       -9.6402  -24.5935  -47.9753 H         1 UNK         0.0600 
    219 H219       -9.4861  -26.3053  -48.3368 H         1 UNK         0.0600 
    220 H220       -6.2790  -25.6081  -50.9317 H         1 UNK         0.3000 
    221 H221       -8.1926  -24.9168  -53.0163 H         1 UNK         0.0600 
    222 H222       -5.1684  -25.4128  -53.1629 H         1 UNK         0.0600 
    223 H223       -6.4015  -26.6620  -53.3195 H         1 UNK         0.0600 
    224 H224       -6.2830  -25.3884  -54.5207 H         1 UNK         0.0600 
    225 H225       -7.4187  -23.3141  -54.7429 H         1 UNK         0.3000 
    226 H226       -7.5284  -20.7030  -53.7546 H         1 UNK         0.0600 
    227 H227       -8.3268  -21.3439  -55.9971 H         1 UNK         0.0600 
    228 H228       -7.1306  -20.0659  -56.1439 H         1 UNK         0.0600 
    229 H229       -6.6844  -21.7265  -56.5156 H         1 UNK         0.0600 
    230 H230       -6.0686  -19.4182  -52.8717 H         1 UNK         0.3000 
    231 H231       -3.2253  -20.0244  -52.8007 H         1 UNK         0.0600 
    232 H232       -4.9121  -17.7319  -51.6443 H         1 UNK         0.0600 
    233 H233       -3.2249  -18.0322  -51.2771 H         1 UNK         0.0600 
    234 H234       -4.4366  -19.2040  -50.7922 H         1 UNK         0.0600 
    235 H235       -1.5683  -18.4112  -53.3109 H         1 UNK         0.3000 
    236 H236       -1.9710  -17.1430  -55.9009 H         1 UNK         0.0600 
    237 H237        0.4664  -17.2464  -54.0614 H         1 UNK         0.0600 
    238 H238        0.1238  -18.3576  -55.3846 H         1 UNK         0.0600 
    239 H239        0.4590  -16.6647  -55.7172 H         1 UNK         0.0600 
    240 H240       -2.0579  -16.0808  -52.5581 H         1 UNK         0.3000 
    241 H241       -1.7084  -13.2673  -53.0759 H         1 UNK         0.0600 
    242 H242       -5.0008  -11.9577  -53.4700 H         1 UNK         0.3800 
    243 H243       -3.3766  -11.5646  -52.9870 H         1 UNK         0.3800 
    244 H244       -1.1921  -13.8775  -50.8647 H         1 UNK         0.0800 
    245 H245       -2.6643  -12.9957  -50.7285 H         1 UNK         0.0800 
    246 H246       -2.0880  -16.5803  -48.4121 H         1 UNK         0.0800 
    247 H247       -1.1248  -15.1622  -48.7161 H         1 UNK         0.0800 
@<TRIPOS>BOND
     1    1    2 1    
     2    1  127 1    
     3    1  128 1    
     4    1  129 1    
     5    2    3 2    
     6    2    4 am   BACKBONE|DICT|INTERRES
     7    4    5 1    
     8    4  130 1    
     9    5    6 1    
    10    5   65 1    
    11    5  131 1    
    12    6    7 1    
    13    6  132 1    
    14    6  133 1    
    15    7    8 1    
    16    8    9 1    
    17    8  134 1    
    18    8  135 1    
    19    9   10 ar   
    20    9   14 ar   
    21   10   11 ar   
    22   10  136 1    
    23   11   12 ar   
    24   11  126 1    
    25   12   13 ar   
    26   12  137 1    
    27   13   14 ar   
    28   13   15 1    
    29   14  138 1    
    30   15   16 1    
    31   15  139 1    
    32   15  140 1    
    33   16   17 1    
    34   17   18 1    
    35   17  141 1    
    36   17  142 1    
    37   18   19 1    
    38   18   67 1    
    39   18  143 1    
    40   19   20 am   BACKBONE|DICT|INTERRES
    41   19  144 1    
    42   20   21 2    
    43   20   22 1    
    44   22   23 1    
    45   22   24 1    
    46   22  145 1    
    47   23  146 1    
    48   23  147 1    
    49   23  148 1    
    50   24   25 am   BACKBONE|DICT|INTERRES
    51   24  149 1    
    52   25   26 2    
    53   25   27 1    
    54   27   28 1    
    55   27   29 1    
    56   27  150 1    
    57   28  151 1    
    58   28  152 1    
    59   28  153 1    
    60   29   30 am   BACKBONE|DICT|INTERRES
    61   29  154 1    
    62   30   31 2    
    63   30   32 1    
    64   32   33 1    
    65   32   34 1    
    66   32  155 1    
    67   33  156 1    
    68   33  157 1    
    69   33  158 1    
    70   34   35 am   BACKBONE|DICT|INTERRES
    71   34  159 1    
    72   35   36 2    
    73   35   37 1    
    74   37   38 1    
    75   37   39 1    
    76   37  160 1    
    77   38  161 1    
    78   38  162 1    
    79   38  163 1    
    80   39   40 am   BACKBONE|DICT|INTERRES
    81   39  164 1    
    82   40   41 2    
    83   40   42 1    
    84   42   43 1    
    85   42   44 1    
    86   42  165 1    
    87   43  166 1    
    88   43  167 1    
    89   43  168 1    
    90   44   45 am   BACKBONE|DICT|INTERRES
    91   44  169 1    
    92   45   46 2    
    93   45   47 1    
    94   47   48 1    
    95   47   49 1    
    96   47  170 1    
    97   48  171 1    
    98   48  172 1    
    99   48  173 1    
   100   49   50 am   BACKBONE|DICT|INTERRES
   101   49  174 1    
   102   50   51 2    
   103   50   52 1    
   104   52   53 1    
   105   52   54 1    
   106   52  175 1    
   107   53  176 1    
   108   53  177 1    
   109   53  178 1    
   110   54   55 am   BACKBONE|DICT|INTERRES
   111   54  179 1    
   112   55   56 2    
   113   55   57 1    
   114   57   58 1    
   115   57   59 1    
   116   57  180 1    
   117   58  181 1    
   118   58  182 1    
   119   58  183 1    
   120   59   60 am   BACKBONE|DICT|INTERRES
   121   59  184 1    
   122   60   61 2    
   123   60   62 1    
   124   62   63 1    
   125   62   64 1    
   126   62  185 1    
   127   63  186 1    
   128   63  187 1    
   129   63  188 1    
   130   64   65 am   BACKBONE|DICT|INTERRES
   131   64  189 1    
   132   65   66 2    
   133   67   68 2    
   134   67   69 am   BACKBONE|DICT|INTERRES
   135   69   70 1    
   136   69  190 1    
   137   70   71 1    
   138   70   72 1    
   139   70  191 1    
   140   71  192 1    
   141   71  193 1    
   142   71  194 1    
   143   72   73 2    
   144   72   74 am   BACKBONE|DICT|INTERRES
   145   74   75 1    
   146   74  195 1    
   147   75   76 1    
   148   75   77 1    
   149   75  196 1    
   150   76  197 1    
   151   76  198 1    
   152   76  199 1    
   153   77   78 2    
   154   77   79 am   BACKBONE|DICT|INTERRES
   155   79   80 1    
   156   79  200 1    
   157   80   81 1    
   158   80   82 1    
   159   80  201 1    
   160   81  202 1    
   161   81  203 1    
   162   81  204 1    
   163   82   83 2    
   164   82   84 am   BACKBONE|DICT|INTERRES
   165   84   85 1    
   166   84  205 1    
   167   85   86 1    
   168   85   87 1    
   169   85  206 1    
   170   86  207 1    
   171   86  208 1    
   172   86  209 1    
   173   87   88 2    
   174   87   89 am   BACKBONE|DICT|INTERRES
   175   89   90 1    
   176   89  210 1    
   177   90   91 1    
   178   90   92 1    
   179   90  211 1    
   180   91  212 1    
   181   91  213 1    
   182   91  214 1    
   183   92   93 2    
   184   92   94 am   BACKBONE|DICT|INTERRES
   185   94   95 1    
   186   94  215 1    
   187   95   96 1    
   188   95   97 1    
   189   95  216 1    
   190   96  217 1    
   191   96  218 1    
   192   96  219 1    
   193   97   98 2    
   194   97   99 am   BACKBONE|DICT|INTERRES
   195   99  100 1    
   196   99  220 1    
   197  100  101 1    
   198  100  102 1    
   199  100  221 1    
   200  101  222 1    
   201  101  223 1    
   202  101  224 1    
   203  102  103 2    
   204  102  104 am   BACKBONE|DICT|INTERRES
   205  104  105 1    
   206  104  225 1    
   207  105  106 1    
   208  105  107 1    
   209  105  226 1    
   210  106  227 1    
   211  106  228 1    
   212  106  229 1    
   213  107  108 2    
   214  107  109 am   BACKBONE|DICT|INTERRES
   215  109  110 1    
   216  109  230 1    
   217  110  111 1    
   218  110  112 1    
   219  110  231 1    
   220  111  232 1    
   221  111  233 1    
   222  111  234 1    
   223  112  113 2    
   224  112  114 am   BACKBONE|DICT|INTERRES
   225  114  115 1    
   226  114  235 1    
   227  115  116 1    
   228  115  117 1    
   229  115  236 1    
   230  116  237 1    
   231  116  238 1    
   232  116  239 1    
   233  117  118 2    
   234  117  119 am   BACKBONE|DICT|INTERRES
   235  119  120 1    
   236  119  240 1    
   237  120  121 1    
   238  120  124 1    
   239  120  241 1    
   240  121  122 am   BACKBONE|DICT|INTERRES
   241  121  123 2    
   242  122  242 1    
   243  122  243 1    
   244  124  125 1    
   245  124  244 1    
   246  124  245 1    
   247  125  126 1    
   248  126  246 1    
   249  126  247 1    
@<TRIPOS>SUBSTRUCTURE
     1 UNK         1 GROUP             0       ****    0 ROOT    
