@<TRIPOS>MOLECULE
3R540
247   249    1
SMALL
USER_CHARGES


@<TRIPOS>ATOM
      1 CA          1.0549  -10.1069  -46.5887 C.3       0 UNK        -0.1800 
      2 C           2.2691  -10.9744  -46.2973 C.2       0 UNK         0.5000 
      3 O           2.4587  -11.3977  -45.1563 O.2       0 UNK        -0.5000 
      4 N           3.1078  -11.2231  -47.3124 N.am      1 UNK        -0.5000 
      5 CA          4.2911  -12.1055  -47.2840 C.3       1 UNK         0.1400 
      6 C6          3.9546  -13.5837  -46.9288 C.3       23 UNK        -0.0398 
      7 S7          2.5386  -14.2815  -47.8417 S.3       23 UNK        -0.2404 
      8 C8          3.3635  -15.1395  -49.2182 C.3       23 UNK        -0.0205 
      9 C9          2.3781  -16.0150  -49.9779 C.ar      23 UNK        -0.0193 
     10 C10         1.3304  -15.4318  -50.6960 C.ar      23 UNK        -0.1150 
     11 C11         0.3748  -16.2258  -51.3367 C.ar      23 UNK        -0.0193 
     12 C12         0.5019  -17.6175  -51.2937 C.ar      23 UNK        -0.1150 
     13 C13         1.5557  -18.2143  -50.5933 C.ar      23 UNK        -0.0193 
     14 C14         2.4878  -17.4076  -49.9337 C.ar      23 UNK        -0.1150 
     15 C15         1.6539  -19.7285  -50.4976 C.3       23 UNK        -0.0205 
     16 S16         0.3903  -20.3632  -49.3603 S.3       23 UNK        -0.2404 
     17 C17         1.0348  -22.0109  -48.9375 C.3       23 UNK        -0.0398 
     18 CA          0.1667  -22.7714  -47.9038 C.3       11 UNK         0.1400 
     19 N           0.0343  -22.0727  -46.6181 N.am      11 UNK        -0.5000 
     20 C          -0.4213  -22.6642  -45.5032 C.2       10 UNK         0.5000 
     21 O          -0.7699  -23.8438  -45.4542 O.2       10 UNK        -0.5000 
     22 CA         -0.5362  -21.8058  -44.2330 C.3       10 UNK         0.1400 
     23 CB          0.8427  -21.5976  -43.5895 C.3       10 UNK        -0.1800 
     24 N          -1.1895  -20.5154  -44.4496 N.am      10 UNK        -0.5000 
     25 C          -2.4503  -20.3568  -44.8781 C.2       9 UNK         0.5000 
     26 O          -3.1917  -21.2888  -45.1880 O.2       9 UNK        -0.5000 
     27 CA         -2.9636  -18.9113  -45.0049 C.3       9 UNK         0.1400 
     28 CB         -3.3202  -18.3254  -43.6304 C.3       9 UNK        -0.1800 
     29 N          -1.9938  -18.0464  -45.6699 N.am      9 UNK        -0.5000 
     30 C          -1.6476  -18.1633  -46.9587 C.2       8 UNK         0.5000 
     31 O          -2.1905  -18.9411  -47.7437 O.2       8 UNK        -0.5000 
     32 CA         -0.4835  -17.2794  -47.4375 C.3       8 UNK         0.1400 
     33 CB         -0.9944  -15.8853  -47.8334 C.3       8 UNK        -0.1800 
     34 N           0.5837  -17.1611  -46.4398 N.am      8 UNK        -0.5000 
     35 C           1.3447  -18.1780  -46.0032 C.2       7 UNK         0.5000 
     36 O           1.2466  -19.3387  -46.3989 O.2       7 UNK        -0.5000 
     37 CA          2.3522  -17.8551  -44.8848 C.3       7 UNK         0.1400 
     38 CB          3.6404  -17.2466  -45.4569 C.3       7 UNK        -0.1800 
     39 N           1.7919  -16.9615  -43.8712 N.am      7 UNK        -0.5000 
     40 C           0.7900  -17.2951  -43.0448 C.2       6 UNK         0.5000 
     41 O           0.2611  -18.4056  -43.0232 O.2       6 UNK        -0.5000 
     42 CA          0.2538  -16.1823  -42.1281 C.3       6 UNK         0.1400 
     43 CB          1.0882  -16.0923  -40.8427 C.3       6 UNK        -0.1800 
     44 N           0.2141  -14.8765  -42.7932 N.am      6 UNK        -0.5000 
     45 C          -0.5744  -14.5980  -43.8441 C.2       5 UNK         0.5000 
     46 O          -1.3275  -15.4322  -44.3492 O.2       5 UNK        -0.5000 
     47 CA         -0.4882  -13.1893  -44.4710 C.3       5 UNK         0.1400 
     48 CB         -1.8647  -12.6694  -44.9345 C.3       5 UNK        -0.1800 
     49 N           0.2026  -12.1962  -43.6423 N.am      5 UNK        -0.5000 
     50 C          -0.1761  -11.6960  -42.4571 C.2       4 UNK         0.5000 
     51 O          -1.2317  -11.9906  -41.8942 O.2       4 UNK        -0.5000 
     52 CA          0.8157  -10.7164  -41.7854 C.3       4 UNK         0.1400 
     53 CB          0.5853  -10.5906  -40.2649 C.3       4 UNK        -0.1800 
     54 N           2.2303  -11.0159  -42.0584 N.am      4 UNK        -0.5000 
     55 C           2.8717  -12.1715  -41.8212 C.2       3 UNK         0.5000 
     56 O           2.3173  -13.1693  -41.3601 O.2       3 UNK        -0.5000 
     57 CA          4.3664  -12.2340  -42.1886 C.3       3 UNK         0.1400 
     58 CB          4.8106  -13.6542  -42.5914 C.3       3 UNK        -0.1800 
     59 N           4.6897  -11.3041  -43.2707 N.am      3 UNK        -0.5000 
     60 C           5.8390  -10.6236  -43.3960 C.2       2 UNK         0.5000 
     61 O           6.7287  -10.6332  -42.5433 O.2       2 UNK        -0.5000 
     62 CA          6.0243   -9.8025  -44.6962 C.3       2 UNK         0.1400 
     63 CB          7.5057   -9.5637  -45.0566 C.3       2 UNK        -0.1800 
     64 N           5.2845  -10.3691  -45.8313 N.am      2 UNK        -0.5000 
     65 C           5.4333  -11.5899  -46.3714 C.2       1 UNK         0.5000 
     66 O           6.3948  -12.3236  -46.1382 O.2       1 UNK        -0.5000 
     67 C          -1.2005  -23.1958  -48.4812 C.2       11 UNK         0.5000 
     68 O          -1.3216  -24.3165  -48.9758 O.2       11 UNK        -0.5000 
     69 N          -2.2130  -22.3236  -48.3599 N.am      12 UNK        -0.5000 
     70 CA         -3.5893  -22.6015  -48.7677 C.3       12 UNK         0.1400 
     71 CB         -4.4199  -21.3119  -48.7107 C.3       12 UNK        -0.1800 
     72 C          -4.2340  -23.7138  -47.9248 C.2       12 UNK         0.5000 
     73 O          -4.8860  -24.5922  -48.4883 O.2       12 UNK        -0.5000 
     74 N          -4.0096  -23.6838  -46.6032 N.am      13 UNK        -0.5000 
     75 CA         -4.4583  -24.7101  -45.6626 C.3       13 UNK         0.1400 
     76 CB         -4.2102  -24.2428  -44.2206 C.3       13 UNK        -0.1800 
     77 C          -3.7959  -26.0747  -45.9190 C.2       13 UNK         0.5000 
     78 O          -4.4965  -27.0865  -45.9516 O.2       13 UNK        -0.5000 
     79 N          -2.4734  -26.0768  -46.1429 N.am      14 UNK        -0.5000 
     80 CA         -1.6844  -27.2669  -46.4737 C.3       14 UNK         0.1400 
     81 CB         -0.1912  -26.9074  -46.4843 C.3       14 UNK        -0.1800 
     82 C          -2.0962  -27.9107  -47.8109 C.2       14 UNK         0.5000 
     83 O          -2.1323  -29.1375  -47.9109 O.2       14 UNK        -0.5000 
     84 N          -2.4332  -27.0725  -48.7994 N.am      15 UNK        -0.5000 
     85 CA         -2.9533  -27.4841  -50.1028 C.3       15 UNK         0.1400 
     86 CB         -2.7068  -26.3510  -51.1100 C.3       15 UNK        -0.1800 
     87 C          -4.4501  -27.8534  -50.0844 C.2       15 UNK         0.5000 
     88 O          -4.9607  -28.2961  -51.1125 O.2       15 UNK        -0.5000 
     89 N          -5.1441  -27.6224  -48.9588 N.am      16 UNK        -0.5000 
     90 CA         -6.5920  -27.7776  -48.7641 C.3       16 UNK         0.1400 
     91 CB         -6.9794  -29.2705  -48.7612 C.3       16 UNK        -0.1800 
     92 C          -7.4208  -26.9393  -49.7647 C.2       16 UNK         0.5000 
     93 O          -8.4593  -27.3923  -50.2487 O.2       16 UNK        -0.5000 
     94 N          -6.9083  -25.7403  -50.0784 N.am      17 UNK        -0.5000 
     95 CA         -7.3984  -24.7620  -51.0538 C.3       17 UNK         0.1400 
     96 CB         -8.7834  -24.2230  -50.6415 C.3       17 UNK        -0.1800 
     97 C          -7.3641  -25.2329  -52.5265 C.2       17 UNK         0.5000 
     98 O          -7.9171  -24.5437  -53.3852 O.2       17 UNK        -0.5000 
     99 N          -6.7009  -26.3629  -52.8209 N.am      18 UNK        -0.5000 
    100 CA        -6.5166  -26.8773  -54.1837 C.3       18 UNK         0.1400 
    101 CB        -6.2438  -28.3881  -54.1262 C.3       18 UNK        -0.1800 
    102 C         -5.3886  -26.1537  -54.9476 C.2       18 UNK         0.5000 
    103 O         -5.3083  -26.2746  -56.1708 O.2       18 UNK        -0.5000 
    104 N         -4.5464  -25.4150  -54.2195 N.am      19 UNK        -0.5000 
    105 CA        -3.4798  -24.5596  -54.7199 C.3       19 UNK         0.1400 
    106 CB        -2.1785  -25.3705  -54.8603 C.3       19 UNK        -0.1800 
    107 C         -3.3211  -23.3787  -53.7493 C.2       19 UNK         0.5000 
    108 O         -3.9319  -23.3816  -52.6750 O.2       19 UNK        -0.5000 
    109 N         -2.5083  -22.3941  -54.1558 N.am      20 UNK        -0.5000 
    110 CA        -2.2935  -21.1051  -53.4900 C.3       20 UNK         0.1400 
    111 CB        -1.6098  -21.2933  -52.1194 C.3       20 UNK        -0.1800 
    112 C         -3.5918  -20.2688  -53.4474 C.2       20 UNK         0.5000 
    113 O         -4.3394  -20.2942  -54.4279 O.2       20 UNK        -0.5000 
    114 N         -3.8247  -19.5391  -52.3435 N.am      21 UNK        -0.5000 
    115 CA        -4.9775  -18.6640  -52.0893 C.3       21 UNK         0.1400 
    116 CB        -6.2613  -19.5019  -51.9094 C.3       21 UNK        -0.1800 
    117 C         -5.1133  -17.5687  -53.1689 C.2       21 UNK         0.5000 
    118 O         -6.0873  -17.5511  -53.9238 O.2       21 UNK        -0.5000 
    119 N         -4.0865  -16.7113  -53.2448 N.am      22 UNK        -0.5000 
    120 CA        -3.8636  -15.7070  -54.3030 C.3       22 UNK         0.1400 
    121 C         -4.9944  -14.6539  -54.5110 C.2       22 UNK         0.5000 
    122 N         -5.8608  -14.4062  -53.5366 N.am      22 UNK        -0.7600 
    123 O         -5.0784  -14.0458  -55.5746 O.2       22 UNK        -0.5000 
    124 C124       -2.5065  -14.9685  -54.1349 C.3       23 UNK        -0.0398 
    125 S125       -1.0799  -16.0407  -53.7294 S.3       23 UNK        -0.2404 
    126 C126       -0.8378  -15.5722  -51.9848 C.3       23 UNK        -0.0205 
    127 H127        1.1077   -9.6570  -47.5802 H         1 UNK         0.0600 
    128 H128        0.1475  -10.7071  -46.5341 H         1 UNK         0.0600 
    129 H129        0.9803   -9.3053  -45.8540 H         1 UNK         0.0600 
    130 H130        2.8992  -10.8279  -48.2188 H         1 UNK         0.3000 
    131 H131        4.6928  -12.0951  -48.2981 H         1 UNK         0.0600 
    132 H132        4.8240  -14.2235  -47.0885 H         1 UNK         0.0800 
    133 H133        3.7182  -13.6700  -45.8672 H         1 UNK         0.0800 
    134 H134        3.8009  -14.4053  -49.8961 H         1 UNK         0.0800 
    135 H135        4.1868  -15.7419  -48.8314 H         1 UNK         0.0800 
    136 H136        1.2338  -14.3551  -50.7075 H         1 UNK         0.1150 
    137 H137       -0.2401  -18.2370  -51.7754 H         1 UNK         0.1150 
    138 H138        3.2853  -17.8657  -49.3658 H         1 UNK         0.1150 
    139 H139        1.5187  -20.1766  -51.4828 H         1 UNK         0.0800 
    140 H140        2.6445  -20.0245  -50.1491 H         1 UNK         0.0800 
    141 H141        2.0431  -21.8888  -48.5398 H         1 UNK         0.0800 
    142 H142        1.1396  -22.5947  -49.8537 H         1 UNK         0.0800 
    143 H143        0.7008  -23.7002  -47.6912 H         1 UNK         0.0600 
    144 H144        0.3140  -21.0951  -46.5939 H         1 UNK         0.3000 
    145 H145       -1.1521  -22.3609  -43.5225 H         1 UNK         0.0600 
    146 H146        0.7569  -21.0897  -42.6289 H         1 UNK         0.0600 
    147 H147        1.3373  -22.5526  -43.4077 H         1 UNK         0.0600 
    148 H148        1.4990  -21.0042  -44.2256 H         1 UNK         0.0600 
    149 H149       -0.6567  -19.6927  -44.1837 H         1 UNK         0.3000 
    150 H150       -3.8724  -18.9310  -45.6102 H         1 UNK         0.0600 
    151 H151       -4.0671  -18.9404  -43.1269 H         1 UNK         0.0600 
    152 H152       -3.7345  -17.3216  -43.7266 H         1 UNK         0.0600 
    153 H153       -2.4501  -18.2644  -42.9767 H         1 UNK         0.0600 
    154 H154       -1.5449  -17.3326  -45.1059 H         1 UNK         0.3000 
    155 H155       -0.0557  -17.7401  -48.3261 H         1 UNK         0.0600 
    156 H156       -1.4403  -15.3590  -46.9904 H         1 UNK         0.0600 
    157 H157       -1.7548  -15.9601  -48.6115 H         1 UNK         0.0600 
    158 H158       -0.1922  -15.2656  -48.2295 H         1 UNK         0.0600 
    159 H159        0.7230  -16.2477  -46.0376 H         1 UNK         0.3000 
    160 H160        2.6152  -18.7950  -44.3953 H         1 UNK         0.0600 
    161 H161        3.4579  -16.2745  -45.9106 H         1 UNK         0.0600 
    162 H162        4.0701  -17.8915  -46.2246 H         1 UNK         0.0600 
    163 H163        4.3943  -17.1172  -44.6803 H         1 UNK         0.0600 
    164 H164        2.1655  -16.0257  -43.8217 H         1 UNK         0.3000 
    165 H165       -0.7689  -16.4454  -41.8497 H         1 UNK         0.0600 
    166 H166        2.1318  -15.8566  -41.0547 H         1 UNK         0.0600 
    167 H167        0.7005  -15.3242  -40.1731 H         1 UNK         0.0600 
    168 H168        1.0699  -17.0380  -40.2997 H         1 UNK         0.0600 
    169 H169        0.8136  -14.1525  -42.4110 H         1 UNK         0.3000 
    170 H170        0.1302  -13.3050  -45.3624 H         1 UNK         0.0600 
    171 H171       -2.5787  -12.6243  -44.1120 H         1 UNK         0.0600 
    172 H172       -2.2921  -13.3200  -45.6982 H         1 UNK         0.0600 
    173 H173       -1.7882  -11.6722  -45.3668 H         1 UNK         0.0600 
    174 H174        1.0973  -11.8850  -44.0154 H         1 UNK         0.3000 
    175 H175        0.6187   -9.7404  -42.2309 H         1 UNK         0.0600 
    176 H176        1.2793   -9.8783  -39.8187 H         1 UNK         0.0600 
    177 H177       -0.4232  -10.2370  -40.0474 H         1 UNK         0.0600 
    178 H178        0.7141  -11.5472  -39.7573 H         1 UNK         0.0600 
    179 H179        2.7654  -10.2614  -42.4640 H         1 UNK         0.3000 
    180 H180        4.9080  -11.9464  -41.2855 H         1 UNK         0.0600 
    181 H181        4.2588  -14.0133  -43.4605 H         1 UNK         0.0600 
    182 H182        4.6483  -14.3649  -41.7802 H         1 UNK         0.0600 
    183 H183        5.8727  -13.6818  -42.8357 H         1 UNK         0.0600 
    184 H184        3.9995  -11.2504  -44.0159 H         1 UNK         0.3000 
    185 H185        5.5754   -8.8280  -44.4998 H         1 UNK         0.0600 
    186 H186        7.5999   -8.9979  -45.9834 H         1 UNK         0.0600 
    187 H187        8.0094   -8.9920  -44.2764 H         1 UNK         0.0600 
    188 H188        8.0523  -10.4993  -45.1769 H         1 UNK         0.0600 
    189 H189        4.4618   -9.8531  -46.1101 H         1 UNK         0.3000 
    190 H190       -2.0310  -21.4179  -47.9460 H         1 UNK         0.3000 
    191 H191       -3.5722  -22.9472  -49.8033 H         1 UNK         0.0600 
    192 H192       -4.0141  -20.5538  -49.3806 H         1 UNK         0.0600 
    193 H193       -5.4508  -21.4981  -49.0140 H         1 UNK         0.0600 
    194 H194       -4.4421  -20.8905  -47.7051 H         1 UNK         0.0600 
    195 H195       -3.5037  -22.8963  -46.2066 H         1 UNK         0.3000 
    196 H196       -5.5350  -24.8345  -45.7961 H         1 UNK         0.0600 
    197 H197       -4.5426  -24.9938  -43.5030 H         1 UNK         0.0600 
    198 H198       -4.7564  -23.3241  -44.0060 H         1 UNK         0.0600 
    199 H199       -3.1529  -24.0534  -44.0335 H         1 UNK         0.0600 
    200 H200       -1.9595  -25.2031  -46.0571 H         1 UNK         0.3000 
    201 H201       -1.8511  -28.0048  -45.6864 H         1 UNK         0.0600 
    202 H202        0.1302  -26.5305  -45.5132 H         1 UNK         0.0600 
    203 H203        0.0325  -26.1440  -47.2301 H         1 UNK         0.0600 
    204 H204        0.4206  -27.7809  -46.7130 H         1 UNK         0.0600 
    205 H205       -2.3128  -26.0744  -48.6580 H         1 UNK         0.3000 
    206 H206       -2.4041  -28.3651  -50.4406 H         1 UNK         0.0600 
    207 H207       -1.6465  -26.1096  -51.1845 H         1 UNK         0.0600 
    208 H208       -3.0452  -26.6379  -52.1053 H         1 UNK         0.0600 
    209 H209       -3.2385  -25.4407  -50.8295 H         1 UNK         0.0600 
    210 H210       -4.6437  -27.2371  -48.1677 H         1 UNK         0.3000 
    211 H211       -6.8116  -27.3751  -47.7743 H         1 UNK         0.0600 
    212 H212       -6.8345  -29.7287  -49.7401 H         1 UNK         0.0600 
    213 H213       -8.0274  -29.4023  -48.4898 H         1 UNK         0.0600 
    214 H214       -6.3852  -29.8291  -48.0380 H         1 UNK         0.0600 
    215 H215       -6.0672  -25.4535  -49.5785 H         1 UNK         0.3000 
    216 H216       -6.6972  -23.9275  -51.0005 H         1 UNK         0.0600 
    217 H217       -8.7781  -23.8719  -49.6096 H         1 UNK         0.0600 
    218 H218       -9.5587  -24.9837  -50.7345 H         1 UNK         0.0600 
    219 H219       -9.0784  -23.3795  -51.2667 H         1 UNK         0.0600 
    220 H220       -6.2717  -26.8991  -52.0751 H         1 UNK         0.3000 
    221 H221       -7.4428  -26.7268  -54.7423 H         1 UNK         0.0600 
    222 H222       -5.2707  -28.6059  -53.6856 H         1 UNK         0.0600 
    223 H223       -7.0033  -28.9079  -53.5419 H         1 UNK         0.0600 
    224 H224       -6.2493  -28.8210  -55.1272 H         1 UNK         0.0600 
    225 H225       -4.7285  -25.3020  -53.2306 H         1 UNK         0.3000 
    226 H226       -3.7670  -24.1572  -55.6936 H         1 UNK         0.0600 
    227 H227       -2.3232  -26.2441  -55.4961 H         1 UNK         0.0600 
    228 H228       -1.3889  -24.7705  -55.3134 H         1 UNK         0.0600 
    229 H229       -1.8101  -25.7166  -53.8949 H         1 UNK         0.0600 
    230 H230       -2.0763  -22.4812  -55.0647 H         1 UNK         0.3000 
    231 H231       -1.6019  -20.5484  -54.1240 H         1 UNK         0.0600 
    232 H232       -1.3054  -20.3343  -51.7040 H         1 UNK         0.0600 
    233 H233       -0.7100  -21.9021  -52.2078 H         1 UNK         0.0600 
    234 H234       -2.2636  -21.7744  -51.3934 H         1 UNK         0.0600 
    235 H235       -3.1429  -19.5865  -51.6002 H         1 UNK         0.3000 
    236 H236       -4.7845  -18.1546  -51.1439 H         1 UNK         0.0600 
    237 H237       -7.1066  -18.8663  -51.6434 H         1 UNK         0.0600 
    238 H238       -6.5302  -20.0391  -52.8194 H         1 UNK         0.0600 
    239 H239       -6.1437  -20.2366  -51.1133 H         1 UNK         0.0600 
    240 H240       -3.3185  -16.8302  -52.6024 H         1 UNK         0.3000 
    241 H241       -3.8095  -16.2731  -55.2346 H         1 UNK         0.0600 
    242 H242       -5.8108  -14.9094  -52.6655 H         1 UNK         0.3800 
    243 H243       -6.5897  -13.7252  -53.6811 H         1 UNK         0.3800 
    244 H244       -2.2612  -14.4388  -55.0572 H         1 UNK         0.0800 
    245 H245       -2.5946  -14.1937  -53.3711 H         1 UNK         0.0800 
    246 H246       -0.7511  -14.4861  -51.9246 H         1 UNK         0.0800 
    247 H247       -1.7245  -15.8412  -51.4097 H         1 UNK         0.0800 
@<TRIPOS>BOND
     1    1    2 1    
     2    1  127 1    
     3    1  128 1    
     4    1  129 1    
     5    2    3 2    
     6    2    4 am   BACKBONE|DICT|INTERRES
     7    4    5 1    
     8    4  130 1    
     9    5    6 1    
    10    5   65 1    
    11    5  131 1    
    12    6    7 1    
    13    6  132 1    
    14    6  133 1    
    15    7    8 1    
    16    8    9 1    
    17    8  134 1    
    18    8  135 1    
    19    9   10 ar   
    20    9   14 ar   
    21   10   11 ar   
    22   10  136 1    
    23   11   12 ar   
    24   11  126 1    
    25   12   13 ar   
    26   12  137 1    
    27   13   14 ar   
    28   13   15 1    
    29   14  138 1    
    30   15   16 1    
    31   15  139 1    
    32   15  140 1    
    33   16   17 1    
    34   17   18 1    
    35   17  141 1    
    36   17  142 1    
    37   18   19 1    
    38   18   67 1    
    39   18  143 1    
    40   19   20 am   BACKBONE|DICT|INTERRES
    41   19  144 1    
    42   20   21 2    
    43   20   22 1    
    44   22   23 1    
    45   22   24 1    
    46   22  145 1    
    47   23  146 1    
    48   23  147 1    
    49   23  148 1    
    50   24   25 am   BACKBONE|DICT|INTERRES
    51   24  149 1    
    52   25   26 2    
    53   25   27 1    
    54   27   28 1    
    55   27   29 1    
    56   27  150 1    
    57   28  151 1    
    58   28  152 1    
    59   28  153 1    
    60   29   30 am   BACKBONE|DICT|INTERRES
    61   29  154 1    
    62   30   31 2    
    63   30   32 1    
    64   32   33 1    
    65   32   34 1    
    66   32  155 1    
    67   33  156 1    
    68   33  157 1    
    69   33  158 1    
    70   34   35 am   BACKBONE|DICT|INTERRES
    71   34  159 1    
    72   35   36 2    
    73   35   37 1    
    74   37   38 1    
    75   37   39 1    
    76   37  160 1    
    77   38  161 1    
    78   38  162 1    
    79   38  163 1    
    80   39   40 am   BACKBONE|DICT|INTERRES
    81   39  164 1    
    82   40   41 2    
    83   40   42 1    
    84   42   43 1    
    85   42   44 1    
    86   42  165 1    
    87   43  166 1    
    88   43  167 1    
    89   43  168 1    
    90   44   45 am   BACKBONE|DICT|INTERRES
    91   44  169 1    
    92   45   46 2    
    93   45   47 1    
    94   47   48 1    
    95   47   49 1    
    96   47  170 1    
    97   48  171 1    
    98   48  172 1    
    99   48  173 1    
   100   49   50 am   BACKBONE|DICT|INTERRES
   101   49  174 1    
   102   50   51 2    
   103   50   52 1    
   104   52   53 1    
   105   52   54 1    
   106   52  175 1    
   107   53  176 1    
   108   53  177 1    
   109   53  178 1    
   110   54   55 am   BACKBONE|DICT|INTERRES
   111   54  179 1    
   112   55   56 2    
   113   55   57 1    
   114   57   58 1    
   115   57   59 1    
   116   57  180 1    
   117   58  181 1    
   118   58  182 1    
   119   58  183 1    
   120   59   60 am   BACKBONE|DICT|INTERRES
   121   59  184 1    
   122   60   61 2    
   123   60   62 1    
   124   62   63 1    
   125   62   64 1    
   126   62  185 1    
   127   63  186 1    
   128   63  187 1    
   129   63  188 1    
   130   64   65 am   BACKBONE|DICT|INTERRES
   131   64  189 1    
   132   65   66 2    
   133   67   68 2    
   134   67   69 am   BACKBONE|DICT|INTERRES
   135   69   70 1    
   136   69  190 1    
   137   70   71 1    
   138   70   72 1    
   139   70  191 1    
   140   71  192 1    
   141   71  193 1    
   142   71  194 1    
   143   72   73 2    
   144   72   74 am   BACKBONE|DICT|INTERRES
   145   74   75 1    
   146   74  195 1    
   147   75   76 1    
   148   75   77 1    
   149   75  196 1    
   150   76  197 1    
   151   76  198 1    
   152   76  199 1    
   153   77   78 2    
   154   77   79 am   BACKBONE|DICT|INTERRES
   155   79   80 1    
   156   79  200 1    
   157   80   81 1    
   158   80   82 1    
   159   80  201 1    
   160   81  202 1    
   161   81  203 1    
   162   81  204 1    
   163   82   83 2    
   164   82   84 am   BACKBONE|DICT|INTERRES
   165   84   85 1    
   166   84  205 1    
   167   85   86 1    
   168   85   87 1    
   169   85  206 1    
   170   86  207 1    
   171   86  208 1    
   172   86  209 1    
   173   87   88 2    
   174   87   89 am   BACKBONE|DICT|INTERRES
   175   89   90 1    
   176   89  210 1    
   177   90   91 1    
   178   90   92 1    
   179   90  211 1    
   180   91  212 1    
   181   91  213 1    
   182   91  214 1    
   183   92   93 2    
   184   92   94 am   BACKBONE|DICT|INTERRES
   185   94   95 1    
   186   94  215 1    
   187   95   96 1    
   188   95   97 1    
   189   95  216 1    
   190   96  217 1    
   191   96  218 1    
   192   96  219 1    
   193   97   98 2    
   194   97   99 am   BACKBONE|DICT|INTERRES
   195   99  100 1    
   196   99  220 1    
   197  100  101 1    
   198  100  102 1    
   199  100  221 1    
   200  101  222 1    
   201  101  223 1    
   202  101  224 1    
   203  102  103 2    
   204  102  104 am   BACKBONE|DICT|INTERRES
   205  104  105 1    
   206  104  225 1    
   207  105  106 1    
   208  105  107 1    
   209  105  226 1    
   210  106  227 1    
   211  106  228 1    
   212  106  229 1    
   213  107  108 2    
   214  107  109 am   BACKBONE|DICT|INTERRES
   215  109  110 1    
   216  109  230 1    
   217  110  111 1    
   218  110  112 1    
   219  110  231 1    
   220  111  232 1    
   221  111  233 1    
   222  111  234 1    
   223  112  113 2    
   224  112  114 am   BACKBONE|DICT|INTERRES
   225  114  115 1    
   226  114  235 1    
   227  115  116 1    
   228  115  117 1    
   229  115  236 1    
   230  116  237 1    
   231  116  238 1    
   232  116  239 1    
   233  117  118 2    
   234  117  119 am   BACKBONE|DICT|INTERRES
   235  119  120 1    
   236  119  240 1    
   237  120  121 1    
   238  120  124 1    
   239  120  241 1    
   240  121  122 am   BACKBONE|DICT|INTERRES
   241  121  123 2    
   242  122  242 1    
   243  122  243 1    
   244  124  125 1    
   245  124  244 1    
   246  124  245 1    
   247  125  126 1    
   248  126  246 1    
   249  126  247 1    
@<TRIPOS>SUBSTRUCTURE
     1 UNK         1 GROUP             0       ****    0 ROOT    
