@<TRIPOS>MOLECULE
3R540
247   249    1
SMALL
USER_CHARGES


@<TRIPOS>ATOM
      1 CA          0.1720  -17.0017  -47.3495 C.3       0 UNK        -0.1800 
      2 C           1.1553  -15.8993  -46.9985 C.2       0 UNK         0.5000 
      3 O           1.1555  -15.4111  -45.8696 O.2       0 UNK        -0.5000 
      4 N           2.0222  -15.5188  -47.9471 N.am      1 UNK        -0.5000 
      5 CA          3.0595  -14.4947  -47.7489 C.3       1 UNK         0.1400 
      6 C6          3.6074  -13.9362  -49.0845 C.3       23 UNK        -0.0398 
      7 S7          4.6530  -15.0937  -50.0363 S.3       23 UNK        -0.2404 
      8 C8          3.6231  -15.4321  -51.4973 C.3       23 UNK        -0.0205 
      9 C9          2.5086  -16.4261  -51.2073 C.ar      23 UNK        -0.0193 
     10 C10         1.1695  -16.0660  -51.3857 C.ar      23 UNK        -0.1150 
     11 C11         0.1480  -17.0026  -51.1948 C.ar      23 UNK        -0.0193 
     12 C12         0.4832  -18.3078  -50.8163 C.ar      23 UNK        -0.1150 
     13 C13         1.8152  -18.6715  -50.5999 C.ar      23 UNK        -0.0193 
     14 C14         2.8225  -17.7272  -50.8056 C.ar      23 UNK        -0.1150 
     15 C15         2.1797  -20.0837  -50.1653 C.3       23 UNK        -0.0205 
     16 S16         2.2912  -20.2307  -48.3535 S.3       23 UNK        -0.2404 
     17 C17         0.5418  -20.4937  -47.9097 C.3       23 UNK        -0.0398 
     18 CA          0.1938  -21.9910  -47.7590 C.3       11 UNK         0.1400 
     19 N           0.9524  -22.6260  -46.6827 N.am      11 UNK        -0.5000 
     20 C           0.8394  -23.8945  -46.2633 C.2       10 UNK         0.5000 
     21 O           0.1276  -24.7399  -46.8060 O.2       10 UNK        -0.5000 
     22 CA          1.6105  -24.2611  -44.9798 C.3       10 UNK         0.1400 
     23 CB          2.9463  -24.9314  -45.3296 C.3       10 UNK        -0.1800 
     24 N           1.8589  -23.0990  -44.1186 N.am      10 UNK        -0.5000 
     25 C           0.9006  -22.3530  -43.5492 C.2       9 UNK         0.5000 
     26 O          -0.2953  -22.6600  -43.5757 O.2       9 UNK        -0.5000 
     27 CA          1.3672  -21.0369  -42.8857 C.3       9 UNK         0.1400 
     28 CB          2.3482  -20.2550  -43.7916 C.3       9 UNK        -0.1800 
     29 N           0.2509  -20.1775  -42.4678 N.am      9 UNK        -0.5000 
     30 C          -0.6787  -19.6116  -43.2529 C.2       8 UNK         0.5000 
     31 O          -0.6789  -19.6968  -44.4848 O.2       8 UNK        -0.5000 
     32 CA         -1.8480  -18.9029  -42.5288 C.3       8 UNK         0.1400 
     33 CB         -1.4457  -18.1845  -41.2210 C.3       8 UNK        -0.1800 
     34 N          -2.6074  -18.0054  -43.4051 N.am      8 UNK        -0.5000 
     35 C          -2.1693  -16.8825  -43.9887 C.2       7 UNK         0.5000 
     36 O          -1.0527  -16.3913  -43.8102 O.2       7 UNK        -0.5000 
     37 CA         -3.1806  -16.1724  -44.8980 C.3       7 UNK         0.1400 
     38 CB         -4.2206  -15.3957  -44.0663 C.3       7 UNK        -0.1800 
     39 N          -2.4808  -15.2649  -45.8010 N.am      7 UNK        -0.5000 
     40 C          -2.9973  -14.7509  -46.9249 C.2       6 UNK         0.5000 
     41 O          -4.1357  -15.0062  -47.3191 O.2       6 UNK        -0.5000 
     42 CA         -2.1099  -13.7769  -47.7238 C.3       6 UNK         0.1400 
     43 CB         -2.9188  -12.8292  -48.6331 C.3       6 UNK        -0.1800 
     44 N          -1.2796  -13.0005  -46.8096 N.am      6 UNK        -0.5000 
     45 C          -0.1247  -12.4008  -47.1010 C.2       5 UNK         0.5000 
     46 O           0.3905  -12.4244  -48.2190 O.2       5 UNK        -0.5000 
     47 CA          0.5896  -11.6470  -45.9597 C.3       5 UNK         0.1400 
     48 CB          0.0673  -10.2023  -45.8517 C.3       5 UNK        -0.1800 
     49 N           0.5764  -12.3101  -44.6463 N.am      5 UNK        -0.5000 
     50 C          -0.4532  -12.5930  -43.8363 C.2       4 UNK         0.5000 
     51 O          -1.6319  -12.3820  -44.1277 O.2       4 UNK        -0.5000 
     52 CA         -0.0941  -13.2165  -42.4727 C.3       4 UNK         0.1400 
     53 CB         -1.3300  -13.6050  -41.6411 C.3       4 UNK        -0.1800 
     54 N           0.7709  -14.3898  -42.5968 N.am      4 UNK        -0.5000 
     55 C           2.1037  -14.3644  -42.7102 C.2       3 UNK         0.5000 
     56 O           2.7436  -13.3262  -42.8870 O.2       3 UNK        -0.5000 
     57 CA          2.8612  -15.6948  -42.5755 C.3       3 UNK         0.1400 
     58 CB          2.0294  -16.8540  -41.9968 C.3       3 UNK        -0.1800 
     59 N           3.4170  -16.0768  -43.8675 N.am      3 UNK        -0.5000 
     60 C           4.6509  -16.5667  -44.0542 C.2       2 UNK         0.5000 
     61 O           5.4428  -16.7814  -43.1353 O.2       2 UNK        -0.5000 
     62 CA          5.0932  -16.8797  -45.5003 C.3       2 UNK         0.1400 
     63 CB          5.1000  -18.3969  -45.7468 C.3       2 UNK        -0.1800 
     64 N           4.2523  -16.2543  -46.5171 N.am      2 UNK        -0.5000 
     65 C           4.1760  -14.9417  -46.7767 C.2       1 UNK         0.5000 
     66 O           4.9088  -14.0984  -46.2589 O.2       1 UNK        -0.5000 
     67 C          -1.3233  -22.1739  -47.5721 C.2       11 UNK         0.5000 
     68 O          -1.9874  -22.6537  -48.4892 O.2       11 UNK        -0.5000 
     69 N          -1.8384  -21.8360  -46.3828 N.am      12 UNK        -0.5000 
     70 CA         -3.2291  -22.0826  -46.0149 C.3       12 UNK         0.1400 
     71 CB         -3.6466  -21.1356  -44.8829 C.3       12 UNK        -0.1800 
     72 C          -3.4642  -23.5471  -45.6135 C.2       12 UNK         0.5000 
     73 O          -4.4038  -24.1650  -46.1142 O.2       12 UNK        -0.5000 
     74 N          -2.6259  -24.0601  -44.7017 N.am      13 UNK        -0.5000 
     75 CA         -2.8625  -25.3172  -43.9901 C.3       13 UNK         0.1400 
     76 CB         -1.9183  -25.4031  -42.7814 C.3       13 UNK        -0.1800 
     77 C          -2.7486  -26.5870  -44.8513 C.2       13 UNK         0.5000 
     78 O          -3.4981  -27.5345  -44.6095 O.2       13 UNK        -0.5000 
     79 N          -1.8172  -26.6011  -45.8127 N.am      14 UNK        -0.5000 
     80 CA         -1.5247  -27.7626  -46.6532 C.3       14 UNK         0.1400 
     81 CB         -0.0424  -28.1441  -46.5020 C.3       14 UNK        -0.1800 
     82 C          -1.8702  -27.4941  -48.1237 C.2       14 UNK         0.5000 
     83 O          -2.4821  -28.3504  -48.7632 O.2       14 UNK        -0.5000 
     84 N          -1.4815  -26.3198  -48.6397 N.am      15 UNK        -0.5000 
     85 CA         -1.6382  -25.9589  -50.0520 C.3       15 UNK         0.1400 
     86 CB         -0.4765  -25.0468  -50.4776 C.3       15 UNK        -0.1800 
     87 C          -3.0082  -25.3380  -50.3946 C.2       15 UNK         0.5000 
     88 O          -3.2209  -24.9853  -51.5544 O.2       15 UNK        -0.5000 
     89 N          -3.9116  -25.2151  -49.4094 N.am      16 UNK        -0.5000 
     90 CA         -5.2952  -24.7360  -49.5372 C.3       16 UNK         0.1400 
     91 CB         -6.1403  -25.7341  -50.3565 C.3       16 UNK        -0.1800 
     92 C          -5.3799  -23.2941  -50.0788 C.2       16 UNK         0.5000 
     93 O          -6.0647  -23.0314  -51.0699 O.2       16 UNK        -0.5000 
     94 N          -4.6296  -22.3952  -49.4290 N.am      17 UNK        -0.5000 
     95 CA         -4.4322  -20.9816  -49.7698 C.3       17 UNK         0.1400 
     96 CB         -5.7562  -20.2006  -49.6489 C.3       17 UNK        -0.1800 
     97 C          -3.7237  -20.8170  -51.1294 C.2       17 UNK         0.5000 
     98 O          -4.0744  -19.9285  -51.9078 O.2       17 UNK        -0.5000 
     99 N          -2.7641  -21.7219  -51.3861 N.am      18 UNK        -0.5000 
    100 CA        -2.0528  -21.9443  -52.6495 C.3       18 UNK         0.1400 
    101 CB        -1.0585  -20.7998  -52.9253 C.3       18 UNK        -0.1800 
    102 C         -3.0221  -22.2137  -53.8182 C.2       18 UNK         0.5000 
    103 O         -2.9644  -21.5359  -54.8425 O.2       18 UNK        -0.5000 
    104 N         -3.9365  -23.1722  -53.6125 N.am      19 UNK        -0.5000 
    105 CA        -5.0700  -23.5121  -54.4806 C.3       19 UNK         0.1400 
    106 CB        -4.5795  -24.1926  -55.7751 C.3       19 UNK        -0.1800 
    107 C         -5.9867  -22.2955  -54.7396 C.2       19 UNK         0.5000 
    108 O         -6.3623  -22.0245  -55.8815 O.2       19 UNK        -0.5000 
    109 N         -6.2916  -21.5698  -53.6550 N.am      20 UNK        -0.5000 
    110 CA        -7.0668  -20.3275  -53.5834 C.3       20 UNK         0.1400 
    111 CB        -8.5204  -20.5570  -54.0462 C.3       20 UNK        -0.1800 
    112 C         -6.4185  -19.1015  -54.2673 C.2       20 UNK         0.5000 
    113 O         -7.0918  -18.0789  -54.4131 O.2       20 UNK        -0.5000 
    114 N         -5.1286  -19.1737  -54.6339 N.am      21 UNK        -0.5000 
    115 CA        -4.3759  -18.0685  -55.2397 C.3       21 UNK         0.1400 
    116 CB        -3.0161  -18.5640  -55.7490 C.3       21 UNK        -0.1800 
    117 C         -4.1883  -16.8525  -54.3121 C.2       21 UNK         0.5000 
    118 O         -4.0090  -15.7435  -54.8180 O.2       21 UNK        -0.5000 
    119 N         -4.2645  -17.0574  -52.9885 N.am      22 UNK        -0.5000 
    120 CA        -4.3407  -15.9652  -52.0020 C.3       22 UNK         0.1400 
    121 C         -5.6794  -15.1619  -52.0380 C.2       22 UNK         0.5000 
    122 N         -6.7267  -15.6137  -52.7203 N.am      22 UNK        -0.7600 
    123 O         -5.7667  -14.0955  -51.4361 O.2       22 UNK        -0.5000 
    124 C124       -4.0576  -16.4459  -50.5538 C.3       23 UNK        -0.0398 
    125 S125       -2.4580  -17.2609  -50.1975 S.3       23 UNK        -0.2404 
    126 C126       -1.3030  -16.6030  -51.4478 C.3       23 UNK        -0.0205 
    127 H127        0.5864  -17.6595  -48.1094 H         1 UNK         0.0600 
    128 H128       -0.0580  -17.5998  -46.4672 H         1 UNK         0.0600 
    129 H129       -0.7563  -16.5837  -47.7317 H         1 UNK         0.0600 
    130 H130        1.9952  -15.9496  -48.8620 H         1 UNK         0.3000 
    131 H131        2.5751  -13.6563  -47.2477 H         1 UNK         0.0600 
    132 H132        2.7764  -13.5934  -49.7026 H         1 UNK         0.0800 
    133 H133        4.2038  -13.0438  -48.8879 H         1 UNK         0.0800 
    134 H134        3.2283  -14.4959  -51.8951 H         1 UNK         0.0800 
    135 H135        4.2596  -15.8475  -52.2798 H         1 UNK         0.0800 
    136 H136        0.9235  -15.0616  -51.7012 H         1 UNK         0.1150 
    137 H137       -0.3006  -19.0379  -50.6834 H         1 UNK         0.1150 
    138 H138        3.8569  -18.0073  -50.6619 H         1 UNK         0.1150 
    139 H139        1.4619  -20.8069  -50.5532 H         1 UNK         0.0800 
    140 H140        3.1437  -20.3592  -50.5955 H         1 UNK         0.0800 
    141 H141       -0.0981  -20.0217  -48.6547 H         1 UNK         0.0800 
    142 H142        0.3515  -19.9655  -46.9745 H         1 UNK         0.0800 
    143 H143        0.4717  -22.4965  -48.6846 H         1 UNK         0.0600 
    144 H144        1.5799  -22.0195  -46.1777 H         1 UNK         0.3000 
    145 H145        1.0038  -24.9767  -44.4231 H         1 UNK         0.0600 
    146 H146        3.4710  -25.2581  -44.4317 H         1 UNK         0.0600 
    147 H147        2.7883  -25.8140  -45.9511 H         1 UNK         0.0600 
    148 H148        3.6048  -24.2568  -45.8784 H         1 UNK         0.0600 
    149 H149        2.8207  -22.8034  -44.0344 H         1 UNK         0.3000 
    150 H150        1.8958  -21.3165  -41.9735 H         1 UNK         0.0600 
    151 H151        3.2784  -20.8024  -43.9446 H         1 UNK         0.0600 
    152 H152        2.6220  -19.2997  -43.3498 H         1 UNK         0.0600 
    153 H153        1.9238  -20.0501  -44.7749 H         1 UNK         0.0600 
    154 H154        0.1351  -20.0876  -41.4691 H         1 UNK         0.3000 
    155 H155       -2.5413  -19.6977  -42.2522 H         1 UNK         0.0600 
    156 H156       -2.3136  -17.7204  -40.7524 H         1 UNK         0.0600 
    157 H157       -0.7120  -17.3997  -41.3931 H         1 UNK         0.0600 
    158 H158       -1.0269  -18.8761  -40.4900 H         1 UNK         0.0600 
    159 H159       -3.5413  -18.3184  -43.6255 H         1 UNK         0.3000 
    160 H160       -3.6868  -16.9365  -45.4920 H         1 UNK         0.0600 
    161 H161       -3.7669  -14.5537  -43.5434 H         1 UNK         0.0600 
    162 H162       -4.6914  -16.0344  -43.3182 H         1 UNK         0.0600 
    163 H163       -5.0177  -15.0012  -44.6963 H         1 UNK         0.0600 
    164 H164       -1.5209  -15.0719  -45.5366 H         1 UNK         0.3000 
    165 H165       -1.4624  -14.3875  -48.3557 H         1 UNK         0.0600 
    166 H166       -3.5937  -12.2005  -48.0514 H         1 UNK         0.0600 
    167 H167       -2.2644  -12.1744  -49.2083 H         1 UNK         0.0600 
    168 H168       -3.5225  -13.3840  -49.3511 H         1 UNK         0.0600 
    169 H169       -1.6287  -12.9000  -45.8573 H         1 UNK         0.3000 
    170 H170        1.6419  -11.5890  -46.2413 H         1 UNK         0.0600 
    171 H171        0.1685   -9.6801  -46.8040 H         1 UNK         0.0600 
    172 H172       -0.9867  -10.1696  -45.5742 H         1 UNK         0.0600 
    173 H173        0.6279   -9.6347  -45.1090 H         1 UNK         0.0600 
    174 H174        1.4902  -12.5794  -44.2958 H         1 UNK         0.3000 
    175 H175        0.4390  -12.4456  -41.9122 H         1 UNK         0.0600 
    176 H176       -1.0412  -13.9550  -40.6500 H         1 UNK         0.0600 
    177 H177       -1.9967  -12.7533  -41.5008 H         1 UNK         0.0600 
    178 H178       -1.9027  -14.3989  -42.1183 H         1 UNK         0.0600 
    179 H179        0.2938  -15.2839  -42.6426 H         1 UNK         0.3000 
    180 H180        3.6690  -15.4894  -41.8700 H         1 UNK         0.0600 
    181 H181        1.2918  -17.2168  -42.7130 H         1 UNK         0.0600 
    182 H182        1.5086  -16.5541  -41.0869 H         1 UNK         0.0600 
    183 H183        2.6726  -17.6903  -41.7254 H         1 UNK         0.0600 
    184 H184        2.8213  -15.8951  -44.6688 H         1 UNK         0.3000 
    185 H185        6.1116  -16.5047  -45.6204 H         1 UNK         0.0600 
    186 H186        5.7190  -18.9130  -45.0117 H         1 UNK         0.0600 
    187 H187        4.0960  -18.8179  -45.6855 H         1 UNK         0.0600 
    188 H188        5.5013  -18.6346  -46.7323 H         1 UNK         0.0600 
    189 H189        3.6109  -16.8629  -47.0039 H         1 UNK         0.3000 
    190 H190       -1.2420  -21.4299  -45.6695 H         1 UNK         0.3000 
    191 H191       -3.8696  -21.8585  -46.8680 H         1 UNK         0.0600 
    192 H192       -3.5062  -20.0952  -45.1748 H         1 UNK         0.0600 
    193 H193       -4.7002  -21.2662  -44.6332 H         1 UNK         0.0600 
    194 H194       -3.0697  -21.3174  -43.9764 H         1 UNK         0.0600 
    195 H195       -1.8576  -23.4885  -44.3596 H         1 UNK         0.3000 
    196 H196       -3.8841  -25.2836  -43.6053 H         1 UNK         0.0600 
    197 H197       -2.1120  -26.3031  -42.1963 H         1 UNK         0.0600 
    198 H198       -2.0492  -24.5491  -42.1165 H         1 UNK         0.0600 
    199 H199       -0.8731  -25.4306  -43.0876 H         1 UNK         0.0600 
    200 H200       -1.2527  -25.7735  -45.9767 H         1 UNK         0.3000 
    201 H201       -2.1146  -28.6260  -46.3386 H         1 UNK         0.0600 
    202 H202        0.1991  -28.3754  -45.4645 H         1 UNK         0.0600 
    203 H203        0.6228  -27.3448  -46.8288 H         1 UNK         0.0600 
    204 H204        0.1939  -29.0281  -47.0955 H         1 UNK         0.0600 
    205 H205       -0.9656  -25.6678  -48.0546 H         1 UNK         0.3000 
    206 H206       -1.5581  -26.8674  -50.6526 H         1 UNK         0.0600 
    207 H207       -0.4749  -24.8974  -51.5576 H         1 UNK         0.0600 
    208 H208       -0.5383  -24.0661  -50.0146 H         1 UNK         0.0600 
    209 H209        0.4868  -25.4826  -50.2120 H         1 UNK         0.0600 
    210 H210       -3.6270  -25.4935  -48.4809 H         1 UNK         0.3000 
    211 H211       -5.7086  -24.7092  -48.5281 H         1 UNK         0.0600 
    212 H212       -5.8096  -25.7934  -51.3940 H         1 UNK         0.0600 
    213 H213       -7.1902  -25.4393  -50.3659 H         1 UNK         0.0600 
    214 H214       -6.0883  -26.7360  -49.9306 H         1 UNK         0.0600 
    215 H215       -3.9931  -22.7504  -48.7244 H         1 UNK         0.3000 
    216 H216       -3.7459  -20.5703  -49.0286 H         1 UNK         0.0600 
    217 H217       -6.1707  -20.2901  -48.6450 H         1 UNK         0.0600 
    218 H218       -6.5093  -20.5551  -50.3504 H         1 UNK         0.0600 
    219 H219       -5.6082  -19.1410  -49.8413 H         1 UNK         0.0600 
    220 H220       -2.5708  -22.3932  -50.6534 H         1 UNK         0.3000 
    221 H221       -1.4714  -22.8585  -52.5275 H         1 UNK         0.0600 
    222 H222       -1.5432  -19.8236  -52.9162 H         1 UNK         0.0600 
    223 H223       -0.2700  -20.7917  -52.1761 H         1 UNK         0.0600 
    224 H224       -0.5721  -20.9193  -53.8940 H         1 UNK         0.0600 
    225 H225       -3.8661  -23.7138  -52.7532 H         1 UNK         0.3000 
    226 H226       -5.6702  -24.2382  -53.9302 H         1 UNK         0.0600 
    227 H227       -3.9533  -25.0564  -55.5519 H         1 UNK         0.0600 
    228 H228       -5.4205  -24.5471  -56.3720 H         1 UNK         0.0600 
    229 H229       -4.0005  -23.5106  -56.3983 H         1 UNK         0.0600 
    230 H230       -5.9540  -21.9144  -52.7610 H         1 UNK         0.3000 
    231 H231       -7.1060  -20.0727  -52.5250 H         1 UNK         0.0600 
    232 H232       -8.9677  -21.4083  -53.5330 H         1 UNK         0.0600 
    233 H233       -8.5810  -20.7404  -55.1191 H         1 UNK         0.0600 
    234 H234       -9.1430  -19.6880  -53.8301 H         1 UNK         0.0600 
    235 H235       -4.6129  -20.0254  -54.4478 H         1 UNK         0.3000 
    236 H236       -4.9473  -17.7249  -56.1044 H         1 UNK         0.0600 
    237 H237       -2.4740  -17.7653  -56.2568 H         1 UNK         0.0600 
    238 H238       -2.3870  -18.9154  -54.9319 H         1 UNK         0.0600 
    239 H239       -3.1343  -19.3786  -56.4634 H         1 UNK         0.0600 
    240 H240       -4.3568  -18.0060  -52.6382 H         1 UNK         0.3000 
    241 H241       -3.5720  -15.2373  -52.2639 H         1 UNK         0.0600 
    242 H242       -6.6868  -16.4775  -53.2500 H         1 UNK         0.3800 
    243 H243       -7.5752  -15.0704  -52.7290 H         1 UNK         0.3800 
    244 H244       -4.1150  -15.5962  -49.8747 H         1 UNK         0.0800 
    245 H245       -4.8497  -17.1186  -50.2314 H         1 UNK         0.0800 
    246 H246       -1.5879  -16.9640  -52.4360 H         1 UNK         0.0800 
    247 H247       -1.3899  -15.5158  -51.4630 H         1 UNK         0.0800 
@<TRIPOS>BOND
     1    1    2 1    
     2    1  127 1    
     3    1  128 1    
     4    1  129 1    
     5    2    3 2    
     6    2    4 am   BACKBONE|DICT|INTERRES
     7    4    5 1    
     8    4  130 1    
     9    5    6 1    
    10    5   65 1    
    11    5  131 1    
    12    6    7 1    
    13    6  132 1    
    14    6  133 1    
    15    7    8 1    
    16    8    9 1    
    17    8  134 1    
    18    8  135 1    
    19    9   10 ar   
    20    9   14 ar   
    21   10   11 ar   
    22   10  136 1    
    23   11   12 ar   
    24   11  126 1    
    25   12   13 ar   
    26   12  137 1    
    27   13   14 ar   
    28   13   15 1    
    29   14  138 1    
    30   15   16 1    
    31   15  139 1    
    32   15  140 1    
    33   16   17 1    
    34   17   18 1    
    35   17  141 1    
    36   17  142 1    
    37   18   19 1    
    38   18   67 1    
    39   18  143 1    
    40   19   20 am   BACKBONE|DICT|INTERRES
    41   19  144 1    
    42   20   21 2    
    43   20   22 1    
    44   22   23 1    
    45   22   24 1    
    46   22  145 1    
    47   23  146 1    
    48   23  147 1    
    49   23  148 1    
    50   24   25 am   BACKBONE|DICT|INTERRES
    51   24  149 1    
    52   25   26 2    
    53   25   27 1    
    54   27   28 1    
    55   27   29 1    
    56   27  150 1    
    57   28  151 1    
    58   28  152 1    
    59   28  153 1    
    60   29   30 am   BACKBONE|DICT|INTERRES
    61   29  154 1    
    62   30   31 2    
    63   30   32 1    
    64   32   33 1    
    65   32   34 1    
    66   32  155 1    
    67   33  156 1    
    68   33  157 1    
    69   33  158 1    
    70   34   35 am   BACKBONE|DICT|INTERRES
    71   34  159 1    
    72   35   36 2    
    73   35   37 1    
    74   37   38 1    
    75   37   39 1    
    76   37  160 1    
    77   38  161 1    
    78   38  162 1    
    79   38  163 1    
    80   39   40 am   BACKBONE|DICT|INTERRES
    81   39  164 1    
    82   40   41 2    
    83   40   42 1    
    84   42   43 1    
    85   42   44 1    
    86   42  165 1    
    87   43  166 1    
    88   43  167 1    
    89   43  168 1    
    90   44   45 am   BACKBONE|DICT|INTERRES
    91   44  169 1    
    92   45   46 2    
    93   45   47 1    
    94   47   48 1    
    95   47   49 1    
    96   47  170 1    
    97   48  171 1    
    98   48  172 1    
    99   48  173 1    
   100   49   50 am   BACKBONE|DICT|INTERRES
   101   49  174 1    
   102   50   51 2    
   103   50   52 1    
   104   52   53 1    
   105   52   54 1    
   106   52  175 1    
   107   53  176 1    
   108   53  177 1    
   109   53  178 1    
   110   54   55 am   BACKBONE|DICT|INTERRES
   111   54  179 1    
   112   55   56 2    
   113   55   57 1    
   114   57   58 1    
   115   57   59 1    
   116   57  180 1    
   117   58  181 1    
   118   58  182 1    
   119   58  183 1    
   120   59   60 am   BACKBONE|DICT|INTERRES
   121   59  184 1    
   122   60   61 2    
   123   60   62 1    
   124   62   63 1    
   125   62   64 1    
   126   62  185 1    
   127   63  186 1    
   128   63  187 1    
   129   63  188 1    
   130   64   65 am   BACKBONE|DICT|INTERRES
   131   64  189 1    
   132   65   66 2    
   133   67   68 2    
   134   67   69 am   BACKBONE|DICT|INTERRES
   135   69   70 1    
   136   69  190 1    
   137   70   71 1    
   138   70   72 1    
   139   70  191 1    
   140   71  192 1    
   141   71  193 1    
   142   71  194 1    
   143   72   73 2    
   144   72   74 am   BACKBONE|DICT|INTERRES
   145   74   75 1    
   146   74  195 1    
   147   75   76 1    
   148   75   77 1    
   149   75  196 1    
   150   76  197 1    
   151   76  198 1    
   152   76  199 1    
   153   77   78 2    
   154   77   79 am   BACKBONE|DICT|INTERRES
   155   79   80 1    
   156   79  200 1    
   157   80   81 1    
   158   80   82 1    
   159   80  201 1    
   160   81  202 1    
   161   81  203 1    
   162   81  204 1    
   163   82   83 2    
   164   82   84 am   BACKBONE|DICT|INTERRES
   165   84   85 1    
   166   84  205 1    
   167   85   86 1    
   168   85   87 1    
   169   85  206 1    
   170   86  207 1    
   171   86  208 1    
   172   86  209 1    
   173   87   88 2    
   174   87   89 am   BACKBONE|DICT|INTERRES
   175   89   90 1    
   176   89  210 1    
   177   90   91 1    
   178   90   92 1    
   179   90  211 1    
   180   91  212 1    
   181   91  213 1    
   182   91  214 1    
   183   92   93 2    
   184   92   94 am   BACKBONE|DICT|INTERRES
   185   94   95 1    
   186   94  215 1    
   187   95   96 1    
   188   95   97 1    
   189   95  216 1    
   190   96  217 1    
   191   96  218 1    
   192   96  219 1    
   193   97   98 2    
   194   97   99 am   BACKBONE|DICT|INTERRES
   195   99  100 1    
   196   99  220 1    
   197  100  101 1    
   198  100  102 1    
   199  100  221 1    
   200  101  222 1    
   201  101  223 1    
   202  101  224 1    
   203  102  103 2    
   204  102  104 am   BACKBONE|DICT|INTERRES
   205  104  105 1    
   206  104  225 1    
   207  105  106 1    
   208  105  107 1    
   209  105  226 1    
   210  106  227 1    
   211  106  228 1    
   212  106  229 1    
   213  107  108 2    
   214  107  109 am   BACKBONE|DICT|INTERRES
   215  109  110 1    
   216  109  230 1    
   217  110  111 1    
   218  110  112 1    
   219  110  231 1    
   220  111  232 1    
   221  111  233 1    
   222  111  234 1    
   223  112  113 2    
   224  112  114 am   BACKBONE|DICT|INTERRES
   225  114  115 1    
   226  114  235 1    
   227  115  116 1    
   228  115  117 1    
   229  115  236 1    
   230  116  237 1    
   231  116  238 1    
   232  116  239 1    
   233  117  118 2    
   234  117  119 am   BACKBONE|DICT|INTERRES
   235  119  120 1    
   236  119  240 1    
   237  120  121 1    
   238  120  124 1    
   239  120  241 1    
   240  121  122 am   BACKBONE|DICT|INTERRES
   241  121  123 2    
   242  122  242 1    
   243  122  243 1    
   244  124  125 1    
   245  124  244 1    
   246  124  245 1    
   247  125  126 1    
   248  126  246 1    
   249  126  247 1    
@<TRIPOS>SUBSTRUCTURE
     1 UNK         1 GROUP             0       ****    0 ROOT    
