@<TRIPOS>MOLECULE
3R540
247   249    1
SMALL
USER_CHARGES


@<TRIPOS>ATOM
      1 CA          3.7475  -11.3910  -48.4131 C.3       0 UNK        -0.1800 
      2 C           3.7516  -12.8945  -48.1782 C.2       0 UNK         0.5000 
      3 O           3.3746  -13.3319  -47.0898 O.2       0 UNK        -0.5000 
      4 N           4.1709  -13.6616  -49.1971 N.am      1 UNK        -0.5000 
      5 CA          4.2981  -15.1264  -49.2639 C.3       1 UNK         0.1400 
      6 C6          3.0233  -15.8567  -49.7859 C.3       23 UNK        -0.0398 
      7 S7          1.4987  -15.6327  -48.8051 S.3       23 UNK        -0.2404 
      8 C8          0.1957  -15.6391  -50.0738 C.3       23 UNK        -0.0205 
      9 C9          0.0143  -17.0095  -50.7117 C.ar      23 UNK        -0.0193 
     10 C10         0.5832  -17.2825  -51.9590 C.ar      23 UNK        -0.1150 
     11 C11         0.3819  -18.5205  -52.5753 C.ar      23 UNK        -0.0193 
     12 C12        -0.3865  -19.4924  -51.9307 C.ar      23 UNK        -0.1150 
     13 C13        -0.9632  -19.2341  -50.6849 C.ar      23 UNK        -0.0193 
     14 C14        -0.7575  -17.9903  -50.0786 C.ar      23 UNK        -0.1150 
     15 C15        -1.8779  -20.2706  -50.0488 C.3       23 UNK        -0.0205 
     16 S16        -1.0238  -21.8154  -49.6205 S.3       23 UNK        -0.2404 
     17 C17        -0.2326  -21.3630  -48.0470 C.3       23 UNK        -0.0398 
     18 CA          0.1817  -22.5987  -47.2193 C.3       11 UNK         0.1400 
     19 N           1.2309  -22.2821  -46.2485 N.am      11 UNK        -0.5000 
     20 C           1.9624  -23.1914  -45.5891 C.2       10 UNK         0.5000 
     21 O           1.8117  -24.4072  -45.7104 O.2       10 UNK        -0.5000 
     22 CA          3.0044  -22.6404  -44.6004 C.3       10 UNK         0.1400 
     23 CB          4.2838  -22.2213  -45.3399 C.3       10 UNK        -0.1800 
     24 N           2.4814  -21.5015  -43.8442 N.am      10 UNK        -0.5000 
     25 C           1.5517  -21.6053  -42.8836 C.2       9 UNK         0.5000 
     26 O           1.1008  -22.6782  -42.4832 O.2       9 UNK        -0.5000 
     27 CA          1.0093  -20.2868  -42.3033 C.3       9 UNK         0.1400 
     28 CB          1.9048  -19.7842  -41.1614 C.3       9 UNK        -0.1800 
     29 N           0.8859  -19.2355  -43.3140 N.am      9 UNK        -0.5000 
     30 C           0.0137  -19.2503  -44.3301 C.2       8 UNK         0.5000 
     31 O          -0.7679  -20.1763  -44.5474 O.2       8 UNK        -0.5000 
     32 CA          0.1119  -18.0579  -45.2925 C.3       8 UNK         0.1400 
     33 CB          0.8103  -18.4286  -46.6108 C.3       8 UNK        -0.1800 
     34 N          -1.1337  -17.3227  -45.4881 N.am      8 UNK        -0.5000 
     35 C          -2.2711  -17.6862  -46.0971 C.2       7 UNK         0.5000 
     36 O          -2.4325  -18.7412  -46.7096 O.2       7 UNK        -0.5000 
     37 CA         -3.4094  -16.6410  -46.0385 C.3       7 UNK         0.1400 
     38 CB         -4.8169  -17.2387  -46.2347 C.3       7 UNK        -0.1800 
     39 N          -3.3551  -15.7935  -44.8388 N.am      7 UNK        -0.5000 
     40 C          -3.4632  -16.1822  -43.5561 C.2       6 UNK         0.5000 
     41 O          -3.7350  -17.3333  -43.2144 O.2       6 UNK        -0.5000 
     42 CA         -3.1861  -15.1238  -42.4664 C.3       6 UNK         0.1400 
     43 CB         -2.2103  -15.6669  -41.4066 C.3       6 UNK        -0.1800 
     44 N          -2.6088  -13.9049  -43.0327 N.am      6 UNK        -0.5000 
     45 C          -3.2490  -12.7419  -43.2086 C.2       5 UNK         0.5000 
     46 O          -4.4052  -12.5339  -42.8399 O.2       5 UNK        -0.5000 
     47 CA         -2.4766  -11.6249  -43.9443 C.3       5 UNK         0.1400 
     48 CB         -1.8459  -10.6557  -42.9330 C.3       5 UNK        -0.1800 
     49 N          -1.4283  -12.1191  -44.8432 N.am      5 UNK        -0.5000 
     50 C          -1.6333  -12.8956  -45.9166 C.2       4 UNK         0.5000 
     51 O          -2.7490  -13.2482  -46.2975 O.2       4 UNK        -0.5000 
     52 CA         -0.3869  -13.4182  -46.6567 C.3       4 UNK         0.1400 
     53 CB         -0.0274  -12.4504  -47.7953 C.3       4 UNK        -0.1800 
     54 N           0.7975  -13.6392  -45.8141 N.am      4 UNK        -0.5000 
     55 C           0.8490  -14.3426  -44.6737 C.2       3 UNK         0.5000 
     56 O          -0.1271  -14.9099  -44.1780 O.2       3 UNK        -0.5000 
     57 CA          2.2204  -14.4029  -43.9823 C.3       3 UNK         0.1400 
     58 CB          2.1480  -14.8608  -42.5086 C.3       3 UNK        -0.1800 
     59 N           3.1897  -15.1480  -44.7945 N.am      3 UNK        -0.5000 
     60 C           3.5164  -16.4498  -44.7665 C.2       2 UNK         0.5000 
     61 O           3.0555  -17.2760  -43.9757 O.2       2 UNK        -0.5000 
     62 CA          4.5249  -16.9017  -45.8380 C.3       2 UNK         0.1400 
     63 CB          4.6637  -18.4321  -45.9439 C.3       2 UNK        -0.1800 
     64 N           4.1360  -16.3545  -47.1356 N.am      2 UNK        -0.5000 
     65 C           4.9484  -15.7418  -48.0016 C.2       1 UNK         0.5000 
     66 O           6.1645  -15.6262  -47.8358 O.2       1 UNK        -0.5000 
     67 C          -1.0288  -23.2961  -46.5667 C.2       11 UNK         0.5000 
     68 O          -1.6435  -24.1480  -47.2069 O.2       11 UNK        -0.5000 
     69 N          -1.3248  -22.9758  -45.2987 N.am      12 UNK        -0.5000 
     70 CA         -2.3396  -23.6466  -44.4813 C.3       12 UNK         0.1400 
     71 CB         -2.4482  -22.9470  -43.1191 C.3       12 UNK        -0.1800 
     72 C          -2.0929  -25.1566  -44.3076 C.2       12 UNK         0.5000 
     73 O          -3.0563  -25.9220  -44.2646 O.2       12 UNK        -0.5000 
     74 N          -0.8171  -25.5585  -44.2502 N.am      13 UNK        -0.5000 
     75 CA         -0.4033  -26.9578  -44.2332 C.3       13 UNK         0.1400 
     76 CB          0.9319  -27.0841  -43.4822 C.3       13 UNK        -0.1800 
     77 C          -0.2872  -27.5293  -45.6573 C.2       13 UNK         0.5000 
     78 O          -0.7693  -28.6345  -45.9073 O.2       13 UNK        -0.5000 
     79 N           0.3709  -26.7828  -46.5552 N.am      14 UNK        -0.5000 
     80 CA          0.7599  -27.2537  -47.8849 C.3       14 UNK         0.1400 
     81 CB          1.8687  -26.3461  -48.4390 C.3       14 UNK        -0.1800 
     82 C          -0.3937  -27.3652  -48.8984 C.2       14 UNK         0.5000 
     83 O          -0.3759  -28.2877  -49.7150 O.2       14 UNK        -0.5000 
     84 N          -1.3504  -26.4283  -48.8646 N.am      15 UNK        -0.5000 
     85 CA         -2.3980  -26.2943  -49.8816 C.3       15 UNK         0.1400 
     86 CB         -1.8578  -25.4935  -51.0833 C.3       15 UNK        -0.1800 
     87 C          -3.6977  -25.7018  -49.3086 C.2       15 UNK         0.5000 
     88 O          -4.4331  -25.0275  -50.0313 O.2       15 UNK        -0.5000 
     89 N          -3.9597  -25.9569  -48.0176 N.am      16 UNK        -0.5000 
     90 CA         -5.1657  -25.5795  -47.2666 C.3       16 UNK         0.1400 
     91 CB         -6.3680  -26.4188  -47.7471 C.3       16 UNK        -0.1800 
     92 C          -5.4744  -24.0634  -47.2548 C.2       16 UNK         0.5000 
     93 O          -6.6376  -23.6791  -47.1232 O.2       16 UNK        -0.5000 
     94 N          -4.4280  -23.2342  -47.3867 N.am      17 UNK        -0.5000 
     95 CA         -4.4536  -21.7674  -47.4209 C.3       17 UNK         0.1400 
     96 CB         -4.8937  -21.1883  -46.0599 C.3       17 UNK        -0.1800 
     97 C          -5.2635  -21.1902  -48.6029 C.2       17 UNK         0.5000 
     98 O          -5.8741  -20.1274  -48.4717 O.2       17 UNK        -0.5000 
     99 N          -5.2499  -21.8829  -49.7516 N.am      18 UNK        -0.5000 
    100 CA        -5.9491  -21.5086  -50.9865 C.3       18 UNK         0.1400 
    101 CB        -6.0813  -22.7593  -51.8731 C.3       18 UNK        -0.1800 
    102 C         -5.2815  -20.3275  -51.7298 C.2       18 UNK         0.5000 
    103 O         -4.9429  -20.4428  -52.9087 O.2       18 UNK        -0.5000 
    104 N         -5.0917  -19.2039  -51.0244 N.am      19 UNK        -0.5000 
    105 CA        -4.3815  -18.0031  -51.4797 C.3       19 UNK         0.1400 
    106 CB        -4.2563  -17.0203  -50.3059 C.3       19 UNK        -0.1800 
    107 C         -5.0090  -17.3188  -52.7077 C.2       19 UNK         0.5000 
    108 O         -4.3000  -16.6408  -53.4523 O.2       19 UNK        -0.5000 
    109 N         -6.3079  -17.5553  -52.9364 N.am      20 UNK        -0.5000 
    110 CA        -7.0601  -17.1207  -54.1152 C.3       20 UNK         0.1400 
    111 CB        -8.5371  -17.4981  -53.9250 C.3       20 UNK        -0.1800 
    112 C         -6.5263  -17.6867  -55.4491 C.2       20 UNK         0.5000 
    113 O         -6.7822  -17.0896  -56.4953 O.2       20 UNK        -0.5000 
    114 N         -5.7862  -18.8056  -55.3988 N.am      21 UNK        -0.5000 
    115 CA        -5.0989  -19.3884  -56.5523 C.3       21 UNK         0.1400 
    116 CB        -4.6884  -20.8311  -56.2200 C.3       21 UNK        -0.1800 
    117 C         -3.8693  -18.5697  -56.9956 C.2       21 UNK         0.5000 
    118 O         -3.5195  -18.6083  -58.1764 O.2       21 UNK        -0.5000 
    119 N         -3.2418  -17.8532  -56.0542 N.am      22 UNK        -0.5000 
    120 CA        -2.0726  -16.9915  -56.2896 C.3       22 UNK         0.1400 
    121 C         -2.4560  -15.4898  -56.3724 C.2       22 UNK         0.5000 
    122 N         -3.4230  -15.0138  -55.5976 N.am      22 UNK        -0.7600 
    123 O         -1.8735  -14.7468  -57.1574 O.2       22 UNK        -0.5000 
    124 C124       -0.9765  -17.2067  -55.2173 C.3       23 UNK        -0.0398 
    125 S125       -0.3151  -18.9077  -55.2339 S.3       23 UNK        -0.2404 
    126 C126        0.9717  -18.8037  -53.9486 C.3       23 UNK        -0.0205 
    127 H127        4.0991  -11.1337  -49.4125 H         1 UNK         0.0600 
    128 H128        4.3938  -10.8978  -47.6872 H         1 UNK         0.0600 
    129 H129        2.7386  -10.9961  -48.2958 H         1 UNK         0.0600 
    130 H130        4.4739  -13.1887  -50.0365 H         1 UNK         0.3000 
    131 H131        5.0477  -15.2845  -50.0411 H         1 UNK         0.0600 
    132 H132        2.8240  -15.5094  -50.8000 H         1 UNK         0.0800 
    133 H133        3.2120  -16.9274  -49.8817 H         1 UNK         0.0800 
    134 H134       -0.7427  -15.3315  -49.6104 H         1 UNK         0.0800 
    135 H135        0.4189  -14.8849  -50.8300 H         1 UNK         0.0800 
    136 H136        1.1679  -16.5235  -52.4591 H         1 UNK         0.1150 
    137 H137       -0.5590  -20.4444  -52.4133 H         1 UNK         0.1150 
    138 H138       -1.2190  -17.7729  -49.1260 H         1 UNK         0.1150 
    139 H139       -2.3911  -19.8639  -49.1769 H         1 UNK         0.0800 
    140 H140       -2.6504  -20.5243  -50.7712 H         1 UNK         0.0800 
    141 H141        0.6471  -20.7738  -48.3068 H         1 UNK         0.0800 
    142 H142       -0.8912  -20.7143  -47.4686 H         1 UNK         0.0800 
    143 H143        0.6206  -23.3195  -47.9108 H         1 UNK         0.0600 
    144 H144        1.3872  -21.3070  -46.0512 H         1 UNK         0.3000 
    145 H145        3.2599  -23.4383  -43.8997 H         1 UNK         0.0600 
    146 H146        5.0416  -21.8602  -44.6444 H         1 UNK         0.0600 
    147 H147        4.7147  -23.0660  -45.8791 H         1 UNK         0.0600 
    148 H148        4.0930  -21.4322  -46.0678 H         1 UNK         0.0600 
    149 H149        2.8185  -20.5833  -44.0931 H         1 UNK         0.3000 
    150 H150        0.0149  -20.4865  -41.8982 H         1 UNK         0.0600 
    151 H151        2.0089  -20.5416  -40.3835 H         1 UNK         0.0600 
    152 H152        1.4834  -18.8940  -40.6939 H         1 UNK         0.0600 
    153 H153        2.9061  -19.5340  -41.5148 H         1 UNK         0.0600 
    154 H154        1.5534  -18.4716  -43.2583 H         1 UNK         0.3000 
    155 H155        0.7450  -17.3257  -44.8017 H         1 UNK         0.0600 
    156 H156        1.4703  -17.6251  -46.9210 H         1 UNK         0.0600 
    157 H157        0.1109  -18.6103  -47.4217 H         1 UNK         0.0600 
    158 H158        1.4354  -19.3141  -46.5053 H         1 UNK         0.0600 
    159 H159       -1.1391  -16.4248  -45.0162 H         1 UNK         0.3000 
    160 H160       -3.2278  -15.9748  -46.8830 H         1 UNK         0.0600 
    161 H161       -5.0928  -17.9052  -45.4185 H         1 UNK         0.0600 
    162 H162       -4.8783  -17.8093  -47.1619 H         1 UNK         0.0600 
    163 H163       -5.5701  -16.4531  -46.2909 H         1 UNK         0.0600 
    164 H164       -3.1599  -14.8156  -45.0219 H         1 UNK         0.3000 
    165 H165       -4.1373  -14.9062  -41.9770 H         1 UNK         0.0600 
    166 H166       -1.2580  -15.9611  -41.8500 H         1 UNK         0.0600 
    167 H167       -2.0055  -14.9193  -40.6402 H         1 UNK         0.0600 
    168 H168       -2.6220  -16.5416  -40.9018 H         1 UNK         0.0600 
    169 H169       -1.6635  -14.0043  -43.3915 H         1 UNK         0.3000 
    170 H170       -3.1989  -11.0710  -44.5474 H         1 UNK         0.0600 
    171 H171       -2.6014  -10.2439  -42.2623 H         1 UNK         0.0600 
    172 H172       -1.0946  -11.1511  -42.3165 H         1 UNK         0.0600 
    173 H173       -1.3680   -9.8150  -43.4363 H         1 UNK         0.0600 
    174 H174       -0.4772  -11.8830  -44.6017 H         1 UNK         0.3000 
    175 H175       -0.6550  -14.3823  -47.0923 H         1 UNK         0.0600 
    176 H176        0.2941  -11.4817  -47.4111 H         1 UNK         0.0600 
    177 H177        0.7735  -12.8434  -48.4188 H         1 UNK         0.0600 
    178 H178       -0.8837  -12.2780  -48.4487 H         1 UNK         0.0600 
    179 H179        1.6745  -13.2915  -46.1922 H         1 UNK         0.3000 
    180 H180        2.5931  -13.3776  -43.9640 H         1 UNK         0.0600 
    181 H181        1.6725  -15.8359  -42.3998 H         1 UNK         0.0600 
    182 H182        1.5609  -14.1567  -41.9182 H         1 UNK         0.0600 
    183 H183        3.1396  -14.9147  -42.0596 H         1 UNK         0.0600 
    184 H184        3.5848  -14.5993  -45.5537 H         1 UNK         0.3000 
    185 H185        5.4906  -16.4947  -45.5318 H         1 UNK         0.0600 
    186 H186        5.4226  -18.7062  -46.6767 H         1 UNK         0.0600 
    187 H187        4.9639  -18.8680  -44.9903 H         1 UNK         0.0600 
    188 H188        3.7283  -18.9014  -46.2437 H         1 UNK         0.0600 
    189 H189        3.1435  -16.3387  -47.3363 H         1 UNK         0.3000 
    190 H190       -0.8436  -22.1923  -44.8697 H         1 UNK         0.3000 
    191 H191       -3.2981  -23.5461  -44.9864 H         1 UNK         0.0600 
    192 H192       -2.6742  -21.8868  -43.2355 H         1 UNK         0.0600 
    193 H193       -3.2458  -23.3858  -42.5183 H         1 UNK         0.0600 
    194 H194       -1.5241  -23.0316  -42.5480 H         1 UNK         0.0600 
    195 H195       -0.0841  -24.8654  -44.3172 H         1 UNK         0.3000 
    196 H196       -1.1443  -27.5502  -43.6918 H         1 UNK         0.0600 
    197 H197        1.2590  -28.1238  -43.4414 H         1 UNK         0.0600 
    198 H198        0.8389  -26.7321  -42.4546 H         1 UNK         0.0600 
    199 H199        1.7254  -26.5092  -43.9607 H         1 UNK         0.0600 
    200 H200        0.7690  -25.8965  -46.2569 H         1 UNK         0.3000 
    201 H201        1.1845  -28.2534  -47.7690 H         1 UNK         0.0600 
    202 H202        2.7232  -26.3071  -47.7631 H         1 UNK         0.0600 
    203 H203        1.5157  -25.3270  -48.5923 H         1 UNK         0.0600 
    204 H204        2.2307  -26.7141  -49.3998 H         1 UNK         0.0600 
    205 H205       -1.3135  -25.6871  -48.1670 H         1 UNK         0.3000 
    206 H206       -2.6756  -27.2880  -50.2388 H         1 UNK         0.0600 
    207 H207       -0.9767  -25.9686  -51.5145 H         1 UNK         0.0600 
    208 H208       -2.6013  -25.4183  -51.8777 H         1 UNK         0.0600 
    209 H209       -1.5824  -24.4803  -50.7926 H         1 UNK         0.0600 
    210 H210       -3.2743  -26.4895  -47.5006 H         1 UNK         0.3000 
    211 H211       -4.9722  -25.8504  -46.2282 H         1 UNK         0.0600 
    212 H212       -6.6589  -26.1587  -48.7655 H         1 UNK         0.0600 
    213 H213       -7.2380  -26.2641  -47.1080 H         1 UNK         0.0600 
    214 H214       -6.1392  -27.4843  -47.7253 H         1 UNK         0.0600 
    215 H215       -3.5105  -23.6583  -47.4926 H         1 UNK         0.3000 
    216 H216       -3.4234  -21.4509  -47.5838 H         1 UNK         0.0600 
    217 H217       -4.2521  -21.5278  -45.2500 H         1 UNK         0.0600 
    218 H218       -5.9224  -21.4515  -45.8140 H         1 UNK         0.0600 
    219 H219       -4.8289  -20.1022  -46.0652 H         1 UNK         0.0600 
    220 H220       -4.7497  -22.7636  -49.7766 H         1 UNK         0.3000 
    221 H221       -6.9582  -21.1859  -50.7227 H         1 UNK         0.0600 
    222 H222       -5.1050  -23.1439  -52.1713 H         1 UNK         0.0600 
    223 H223       -6.6085  -23.5582  -51.3510 H         1 UNK         0.0600 
    224 H224       -6.6427  -22.5412  -52.7825 H         1 UNK         0.0600 
    225 H225       -5.4038  -19.2129  -50.0565 H         1 UNK         0.3000 
    226 H226       -3.3779  -18.3084  -51.7783 H         1 UNK         0.0600 
    227 H227       -3.6864  -16.1362  -50.5952 H         1 UNK         0.0600 
    228 H228       -5.2334  -16.6852  -49.9561 H         1 UNK         0.0600 
    229 H229       -3.7379  -17.4774  -49.4629 H         1 UNK         0.0600 
    230 H230       -6.8041  -18.1302  -52.2719 H         1 UNK         0.3000 
    231 H231       -6.9868  -16.0327  -54.1720 H         1 UNK         0.0600 
    232 H232       -9.1389  -17.1626  -54.7708 H         1 UNK         0.0600 
    233 H233       -8.9516  -17.0341  -53.0298 H         1 UNK         0.0600 
    234 H234       -8.6676  -18.5774  -53.8368 H         1 UNK         0.0600 
    235 H235       -5.6175  -19.2505  -54.5027 H         1 UNK         0.3000 
    236 H236       -5.7988  -19.4197  -57.3900 H         1 UNK         0.0600 
    237 H237       -5.5485  -21.4287  -55.9175 H         1 UNK         0.0600 
    238 H238       -4.2409  -21.3182  -57.0871 H         1 UNK         0.0600 
    239 H239       -3.9559  -20.8642  -55.4125 H         1 UNK         0.0600 
    240 H240       -3.6244  -17.8333  -55.1184 H         1 UNK         0.3000 
    241 H241       -1.6262  -17.2448  -57.2533 H         1 UNK         0.0600 
    242 H242       -3.6735  -14.0403  -55.6605 H         1 UNK         0.3800 
    243 H243       -3.8490  -15.5976  -54.8814 H         1 UNK         0.3800 
    244 H244       -1.3729  -16.9892  -54.2237 H         1 UNK         0.0800 
    245 H245       -0.1424  -16.5208  -55.3769 H         1 UNK         0.0800 
    246 H246        1.5158  -19.7486  -53.9155 H         1 UNK         0.0800 
    247 H247        1.6998  -18.0401  -54.2266 H         1 UNK         0.0800 
@<TRIPOS>BOND
     1    1    2 1    
     2    1  127 1    
     3    1  128 1    
     4    1  129 1    
     5    2    3 2    
     6    2    4 am   BACKBONE|DICT|INTERRES
     7    4    5 1    
     8    4  130 1    
     9    5    6 1    
    10    5   65 1    
    11    5  131 1    
    12    6    7 1    
    13    6  132 1    
    14    6  133 1    
    15    7    8 1    
    16    8    9 1    
    17    8  134 1    
    18    8  135 1    
    19    9   10 ar   
    20    9   14 ar   
    21   10   11 ar   
    22   10  136 1    
    23   11   12 ar   
    24   11  126 1    
    25   12   13 ar   
    26   12  137 1    
    27   13   14 ar   
    28   13   15 1    
    29   14  138 1    
    30   15   16 1    
    31   15  139 1    
    32   15  140 1    
    33   16   17 1    
    34   17   18 1    
    35   17  141 1    
    36   17  142 1    
    37   18   19 1    
    38   18   67 1    
    39   18  143 1    
    40   19   20 am   BACKBONE|DICT|INTERRES
    41   19  144 1    
    42   20   21 2    
    43   20   22 1    
    44   22   23 1    
    45   22   24 1    
    46   22  145 1    
    47   23  146 1    
    48   23  147 1    
    49   23  148 1    
    50   24   25 am   BACKBONE|DICT|INTERRES
    51   24  149 1    
    52   25   26 2    
    53   25   27 1    
    54   27   28 1    
    55   27   29 1    
    56   27  150 1    
    57   28  151 1    
    58   28  152 1    
    59   28  153 1    
    60   29   30 am   BACKBONE|DICT|INTERRES
    61   29  154 1    
    62   30   31 2    
    63   30   32 1    
    64   32   33 1    
    65   32   34 1    
    66   32  155 1    
    67   33  156 1    
    68   33  157 1    
    69   33  158 1    
    70   34   35 am   BACKBONE|DICT|INTERRES
    71   34  159 1    
    72   35   36 2    
    73   35   37 1    
    74   37   38 1    
    75   37   39 1    
    76   37  160 1    
    77   38  161 1    
    78   38  162 1    
    79   38  163 1    
    80   39   40 am   BACKBONE|DICT|INTERRES
    81   39  164 1    
    82   40   41 2    
    83   40   42 1    
    84   42   43 1    
    85   42   44 1    
    86   42  165 1    
    87   43  166 1    
    88   43  167 1    
    89   43  168 1    
    90   44   45 am   BACKBONE|DICT|INTERRES
    91   44  169 1    
    92   45   46 2    
    93   45   47 1    
    94   47   48 1    
    95   47   49 1    
    96   47  170 1    
    97   48  171 1    
    98   48  172 1    
    99   48  173 1    
   100   49   50 am   BACKBONE|DICT|INTERRES
   101   49  174 1    
   102   50   51 2    
   103   50   52 1    
   104   52   53 1    
   105   52   54 1    
   106   52  175 1    
   107   53  176 1    
   108   53  177 1    
   109   53  178 1    
   110   54   55 am   BACKBONE|DICT|INTERRES
   111   54  179 1    
   112   55   56 2    
   113   55   57 1    
   114   57   58 1    
   115   57   59 1    
   116   57  180 1    
   117   58  181 1    
   118   58  182 1    
   119   58  183 1    
   120   59   60 am   BACKBONE|DICT|INTERRES
   121   59  184 1    
   122   60   61 2    
   123   60   62 1    
   124   62   63 1    
   125   62   64 1    
   126   62  185 1    
   127   63  186 1    
   128   63  187 1    
   129   63  188 1    
   130   64   65 am   BACKBONE|DICT|INTERRES
   131   64  189 1    
   132   65   66 2    
   133   67   68 2    
   134   67   69 am   BACKBONE|DICT|INTERRES
   135   69   70 1    
   136   69  190 1    
   137   70   71 1    
   138   70   72 1    
   139   70  191 1    
   140   71  192 1    
   141   71  193 1    
   142   71  194 1    
   143   72   73 2    
   144   72   74 am   BACKBONE|DICT|INTERRES
   145   74   75 1    
   146   74  195 1    
   147   75   76 1    
   148   75   77 1    
   149   75  196 1    
   150   76  197 1    
   151   76  198 1    
   152   76  199 1    
   153   77   78 2    
   154   77   79 am   BACKBONE|DICT|INTERRES
   155   79   80 1    
   156   79  200 1    
   157   80   81 1    
   158   80   82 1    
   159   80  201 1    
   160   81  202 1    
   161   81  203 1    
   162   81  204 1    
   163   82   83 2    
   164   82   84 am   BACKBONE|DICT|INTERRES
   165   84   85 1    
   166   84  205 1    
   167   85   86 1    
   168   85   87 1    
   169   85  206 1    
   170   86  207 1    
   171   86  208 1    
   172   86  209 1    
   173   87   88 2    
   174   87   89 am   BACKBONE|DICT|INTERRES
   175   89   90 1    
   176   89  210 1    
   177   90   91 1    
   178   90   92 1    
   179   90  211 1    
   180   91  212 1    
   181   91  213 1    
   182   91  214 1    
   183   92   93 2    
   184   92   94 am   BACKBONE|DICT|INTERRES
   185   94   95 1    
   186   94  215 1    
   187   95   96 1    
   188   95   97 1    
   189   95  216 1    
   190   96  217 1    
   191   96  218 1    
   192   96  219 1    
   193   97   98 2    
   194   97   99 am   BACKBONE|DICT|INTERRES
   195   99  100 1    
   196   99  220 1    
   197  100  101 1    
   198  100  102 1    
   199  100  221 1    
   200  101  222 1    
   201  101  223 1    
   202  101  224 1    
   203  102  103 2    
   204  102  104 am   BACKBONE|DICT|INTERRES
   205  104  105 1    
   206  104  225 1    
   207  105  106 1    
   208  105  107 1    
   209  105  226 1    
   210  106  227 1    
   211  106  228 1    
   212  106  229 1    
   213  107  108 2    
   214  107  109 am   BACKBONE|DICT|INTERRES
   215  109  110 1    
   216  109  230 1    
   217  110  111 1    
   218  110  112 1    
   219  110  231 1    
   220  111  232 1    
   221  111  233 1    
   222  111  234 1    
   223  112  113 2    
   224  112  114 am   BACKBONE|DICT|INTERRES
   225  114  115 1    
   226  114  235 1    
   227  115  116 1    
   228  115  117 1    
   229  115  236 1    
   230  116  237 1    
   231  116  238 1    
   232  116  239 1    
   233  117  118 2    
   234  117  119 am   BACKBONE|DICT|INTERRES
   235  119  120 1    
   236  119  240 1    
   237  120  121 1    
   238  120  124 1    
   239  120  241 1    
   240  121  122 am   BACKBONE|DICT|INTERRES
   241  121  123 2    
   242  122  242 1    
   243  122  243 1    
   244  124  125 1    
   245  124  244 1    
   246  124  245 1    
   247  125  126 1    
   248  126  246 1    
   249  126  247 1    
@<TRIPOS>SUBSTRUCTURE
     1 UNK         1 GROUP             0       ****    0 ROOT    
