@<TRIPOS>MOLECULE
3R540
247   249    1
SMALL
USER_CHARGES


@<TRIPOS>ATOM
      1 CA          4.8182  -15.8127  -47.6733 C.3       0 UNK        -0.1800 
      2 C           3.4482  -15.3485  -47.2045 C.2       0 UNK         0.5000 
      3 O           3.1055  -15.5216  -46.0355 O.2       0 UNK        -0.5000 
      4 N           2.6708  -14.7332  -48.1046 N.am      1 UNK        -0.5000 
      5 CA          1.3345  -14.1739  -47.8517 C.3       1 UNK         0.1400 
      6 C6          0.4817  -14.0924  -49.1449 C.3       23 UNK        -0.0398 
      7 S7          0.1847  -15.7372  -49.8769 S.3       23 UNK        -0.2404 
      8 C8          1.4105  -15.7491  -51.2234 C.3       23 UNK        -0.0205 
      9 C9          1.8287  -17.1687  -51.5676 C.ar      23 UNK        -0.0193 
     10 C10         1.4428  -17.7564  -52.7751 C.ar      23 UNK        -0.1150 
     11 C11         1.8389  -19.0611  -53.0832 C.ar      23 UNK        -0.0193 
     12 C12         2.6131  -19.7777  -52.1656 C.ar      23 UNK        -0.1150 
     13 C13         3.0146  -19.2033  -50.9554 C.ar      23 UNK        -0.0193 
     14 C14         2.6246  -17.8885  -50.6727 C.ar      23 UNK        -0.1150 
     15 C15         3.8885  -20.0380  -50.0161 C.3       23 UNK        -0.0205 
     16 S16         4.2046  -19.3487  -48.3521 S.3       23 UNK        -0.2404 
     17 C17         2.5639  -19.4537  -47.5607 C.3       23 UNK        -0.0398 
     18 CA          2.2369  -20.8911  -47.0669 C.3       11 UNK         0.1400 
     19 N           1.9657  -20.9479  -45.6276 N.am      11 UNK        -0.5000 
     20 C           1.9627  -22.0771  -44.9041 C.2       10 UNK         0.5000 
     21 O           2.2670  -23.1812  -45.3558 O.2       10 UNK        -0.5000 
     22 CA          1.5139  -21.9648  -43.4351 C.3       10 UNK         0.1400 
     23 CB          2.6947  -21.5889  -42.5277 C.3       10 UNK        -0.1800 
     24 N           0.4179  -21.0123  -43.2478 N.am      10 UNK        -0.5000 
     25 C          -0.8100  -21.1686  -43.7636 C.2       9 UNK         0.5000 
     26 O          -1.1577  -22.1582  -44.4082 O.2       9 UNK        -0.5000 
     27 CA         -1.8072  -20.0139  -43.5636 C.3       9 UNK         0.1400 
     28 CB         -2.4773  -20.1142  -42.1857 C.3       9 UNK        -0.1800 
     29 N          -1.1968  -18.6932  -43.7246 N.am      9 UNK        -0.5000 
     30 C          -0.6408  -18.2364  -44.8566 C.2       8 UNK         0.5000 
     31 O          -0.6023  -18.8772  -45.9062 O.2       8 UNK        -0.5000 
     32 CA          0.0484  -16.8614  -44.7893 C.3       8 UNK         0.1400 
     33 CB         -0.9729  -15.7161  -44.8391 C.3       8 UNK        -0.1800 
     34 N           0.8896  -16.7207  -43.6023 N.am      8 UNK        -0.5000 
     35 C           1.9620  -17.4837  -43.3458 C.2       7 UNK         0.5000 
     36 O           2.3715  -18.3729  -44.0932 O.2       7 UNK        -0.5000 
     37 CA          2.6481  -17.2576  -41.9898 C.3       7 UNK         0.1400 
     38 CB          3.5679  -16.0278  -42.0349 C.3       7 UNK        -0.1800 
     39 N           1.6679  -17.1110  -40.9126 N.am      7 UNK        -0.5000 
     40 C           0.9080  -18.1144  -40.4489 C.2       6 UNK         0.5000 
     41 O           0.9806  -19.2720  -40.8603 O.2       6 UNK        -0.5000 
     42 CA         -0.1338  -17.7607  -39.3713 C.3       6 UNK         0.1400 
     43 CB          0.5095  -17.7596  -37.9766 C.3       6 UNK        -0.1800 
     44 N          -0.7833  -16.4708  -39.6065 N.am      6 UNK        -0.5000 
     45 C          -1.5733  -16.1978  -40.6544 C.2       5 UNK         0.5000 
     46 O          -1.8640  -17.0180  -41.5225 O.2       5 UNK        -0.5000 
     47 CA         -2.0906  -14.7539  -40.7812 C.3       5 UNK         0.1400 
     48 CB         -3.4357  -14.5983  -40.0567 C.3       5 UNK        -0.1800 
     49 N          -1.1538  -13.7420  -40.2866 N.am      5 UNK        -0.5000 
     50 C           0.0844  -13.5488  -40.7578 C.2       4 UNK         0.5000 
     51 O           0.6052  -14.2480  -41.6306 O.2       4 UNK        -0.5000 
     52 CA          0.8639  -12.3638  -40.1623 C.3       4 UNK         0.1400 
     53 CB          2.2987  -12.7709  -39.7875 C.3       4 UNK        -0.1800 
     54 N           0.9134  -11.2755  -41.1319 N.am      4 UNK        -0.5000 
     55 C          -0.1281  -10.5105  -41.4910 C.2       3 UNK         0.5000 
     56 O          -1.2124  -10.5137  -40.9068 O.2       3 UNK        -0.5000 
     57 CA          0.0695   -9.6072  -42.7272 C.3       3 UNK         0.1400 
     58 CB          0.4293   -8.1764  -42.2988 C.3       3 UNK        -0.1800 
     59 N           1.1018  -10.1091  -43.6407 N.am      3 UNK        -0.5000 
     60 C           1.0051  -11.2457  -44.3447 C.2       2 UNK         0.5000 
     61 O          -0.0149  -11.9382  -44.3858 O.2       2 UNK        -0.5000 
     62 CA          2.2917  -11.6952  -45.0627 C.3       2 UNK         0.1400 
     63 CB          3.3659  -12.1011  -44.0377 C.3       2 UNK        -0.1800 
     64 N           2.0683  -12.8343  -45.9463 N.am      2 UNK        -0.5000 
     65 C           1.4456  -12.8117  -47.1287 C.2       1 UNK         0.5000 
     66 O           1.0168  -11.7825  -47.6546 O.2       1 UNK        -0.5000 
     67 C           1.0867  -21.5173  -47.8839 C.2       11 UNK         0.5000 
     68 O           1.3486  -22.2783  -48.8158 O.2       11 UNK        -0.5000 
     69 N          -0.1612  -21.1908  -47.5144 N.am      12 UNK        -0.5000 
     70 CA         -1.3833  -21.6978  -48.1391 C.3       12 UNK         0.1400 
     71 CB         -2.6012  -20.9725  -47.5460 C.3       12 UNK        -0.1800 
     72 C          -1.5401  -23.2226  -48.0048 C.2       12 UNK         0.5000 
     73 O          -1.8930  -23.8793  -48.9872 O.2       12 UNK        -0.5000 
     74 N          -1.2526  -23.7396  -46.8012 N.am      13 UNK        -0.5000 
     75 CA         -1.2153  -25.1522  -46.4172 C.3       13 UNK         0.1400 
     76 CB         -0.0210  -25.8447  -47.1106 C.3       13 UNK        -0.1800 
     77 C          -2.5562  -25.8881  -46.6407 C.2       13 UNK         0.5000 
     78 O          -3.6108  -25.2535  -46.7264 O.2       13 UNK        -0.5000 
     79 N          -2.4977  -27.2237  -46.7404 N.am      14 UNK        -0.5000 
     80 CA         -3.6406  -28.1038  -47.0105 C.3       14 UNK         0.1400 
     81 CB         -3.2009  -29.5633  -46.8189 C.3       14 UNK        -0.1800 
     82 C          -4.2575  -27.9045  -48.4109 C.2       14 UNK         0.5000 
     83 O          -5.4205  -28.2518  -48.6173 O.2       14 UNK        -0.5000 
     84 N          -3.4783  -27.3282  -49.3371 N.am      15 UNK        -0.5000 
     85 CA         -3.9149  -26.9176  -50.6713 C.3       15 UNK         0.1400 
     86 CB         -2.6716  -26.6862  -51.5448 C.3       15 UNK        -0.1800 
     87 C          -4.7980  -25.6536  -50.6622 C.2       15 UNK         0.5000 
     88 O          -5.4162  -25.3552  -51.6847 O.2       15 UNK        -0.5000 
     89 N          -4.8176  -24.9175  -49.5388 N.am      16 UNK        -0.5000 
     90 CA         -5.5437  -23.6647  -49.3128 C.3       16 UNK         0.1400 
     91 CB         -7.0630  -23.9259  -49.2542 C.3       16 UNK        -0.1800 
     92 C          -5.1592  -22.5724  -50.3309 C.2       16 UNK         0.5000 
     93 O          -6.0354  -21.9039  -50.8803 O.2       16 UNK        -0.5000 
     94 N          -3.8486  -22.4495  -50.5947 N.am      17 UNK        -0.5000 
     95 CA         -3.2341  -21.5615  -51.5888 C.3       17 UNK         0.1400 
     96 CB         -3.4230  -20.0815  -51.1904 C.3       17 UNK        -0.1800 
     97 C          -3.7367  -21.8789  -53.0118 C.2       17 UNK         0.5000 
     98 O          -4.1808  -20.9822  -53.7301 O.2       17 UNK        -0.5000 
     99 N          -3.7071  -23.1756  -53.3565 N.am      18 UNK        -0.5000 
    100 CA        -4.2133  -23.7745  -54.5969 C.3       18 UNK         0.1400 
    101 CB        -3.3287  -23.3621  -55.7914 C.3       18 UNK        -0.1800 
    102 C         -5.7118  -23.4765  -54.8199 C.2       18 UNK         0.5000 
    103 O         -6.1074  -23.0804  -55.9165 O.2       18 UNK        -0.5000 
    104 N         -6.5035  -23.6442  -53.7497 N.am      19 UNK        -0.5000 
    105 CA        -7.9203  -23.2845  -53.6265 C.3       19 UNK         0.1400 
    106 CB        -8.7955  -24.2041  -54.5032 C.3       19 UNK        -0.1800 
    107 C         -8.1674  -21.7801  -53.8791 C.2       19 UNK         0.5000 
    108 O         -9.0608  -21.4160  -54.6465 O.2       19 UNK        -0.5000 
    109 N         -7.3499  -20.9430  -53.2232 N.am      20 UNK        -0.5000 
    110 CA        -7.3012  -19.4803  -53.3043 C.3       20 UNK         0.1400 
    111 CB        -8.5497  -18.8637  -52.6404 C.3       20 UNK        -0.1800 
    112 C         -7.0550  -18.9624  -54.7383 C.2       20 UNK         0.5000 
    113 O         -7.7480  -18.0518  -55.1980 O.2       20 UNK        -0.5000 
    114 N         -6.0736  -19.5597  -55.4237 N.am      21 UNK        -0.5000 
    115 CA        -5.7250  -19.2710  -56.8150 C.3       21 UNK         0.1400 
    116 CB        -6.6820  -20.0139  -57.7688 C.3       21 UNK        -0.1800 
    117 C         -4.2409  -19.5826  -57.0767 C.2       21 UNK         0.5000 
    118 O         -3.8992  -20.1572  -58.1119 O.2       21 UNK        -0.5000 
    119 N         -3.3813  -19.2065  -56.1211 N.am      22 UNK        -0.5000 
    120 CA        -1.9282  -19.4497  -56.1471 C.3       22 UNK         0.1400 
    121 C         -1.1377  -18.6173  -57.2016 C.2       22 UNK         0.5000 
    122 N         -1.6932  -17.5436  -57.7507 N.am      22 UNK        -0.7600 
    123 O         -0.0060  -18.9548  -57.5359 O.2       22 UNK        -0.5000 
    124 C124       -1.3123  -19.3038  -54.7270 C.3       23 UNK        -0.0398 
    125 S125       -0.0979  -20.6092  -54.3396 S.3       23 UNK        -0.2404 
    126 C126        1.4713  -19.6908  -54.4193 C.3       23 UNK        -0.0205 
    127 H127        5.5679  -15.0546  -47.4474 H         1 UNK         0.0600 
    128 H128        4.8309  -16.0044  -48.7465 H         1 UNK         0.0600 
    129 H129        5.1009  -16.7321  -47.1612 H         1 UNK         0.0600 
    130 H130        3.0325  -14.5805  -49.0338 H         1 UNK         0.3000 
    131 H131        0.8095  -14.8416  -47.1660 H         1 UNK         0.0600 
    132 H132       -0.4954  -13.6588  -48.9245 H         1 UNK         0.0800 
    133 H133        0.9449  -13.4332  -49.8811 H         1 UNK         0.0800 
    134 H134        0.9917  -15.2410  -52.0934 H         1 UNK         0.0800 
    135 H135        2.2982  -15.1856  -50.9355 H         1 UNK         0.0800 
    136 H136        0.8468  -17.1934  -53.4787 H         1 UNK         0.1150 
    137 H137        2.9185  -20.7873  -52.4034 H         1 UNK         0.1150 
    138 H138        2.9259  -17.4103  -49.7531 H         1 UNK         0.1150 
    139 H139        3.4553  -21.0325  -49.9076 H         1 UNK         0.0800 
    140 H140        4.8548  -20.1824  -50.5010 H         1 UNK         0.0800 
    141 H141        1.8066  -19.0569  -48.2395 H         1 UNK         0.0800 
    142 H142        2.5767  -18.7515  -46.7263 H         1 UNK         0.0800 
    143 H143        3.1094  -21.5266  -47.2352 H         1 UNK         0.0600 
    144 H144        1.7573  -20.0709  -45.1624 H         1 UNK         0.3000 
    145 H145        1.1539  -22.9485  -43.1264 H         1 UNK         0.0600 
    146 H146        2.4026  -21.5982  -41.4776 H         1 UNK         0.0600 
    147 H147        3.5161  -22.2972  -42.6423 H         1 UNK         0.0600 
    148 H148        3.0826  -20.5968  -42.7583 H         1 UNK         0.0600 
    149 H149        0.6171  -20.1935  -42.6833 H         1 UNK         0.3000 
    150 H150       -2.5848  -20.1112  -44.3231 H         1 UNK         0.0600 
    151 H151       -3.2585  -19.3626  -42.0722 H         1 UNK         0.0600 
    152 H152       -2.9437  -21.0904  -42.0470 H         1 UNK         0.0600 
    153 H153       -1.7583  -19.9748  -41.3778 H         1 UNK         0.0600 
    154 H154       -1.2296  -18.0820  -42.9119 H         1 UNK         0.3000 
    155 H155        0.6959  -16.7775  -45.6641 H         1 UNK         0.0600 
    156 H156       -1.6583  -15.7486  -43.9922 H         1 UNK         0.0600 
    157 H157       -1.5714  -15.7681  -45.7494 H         1 UNK         0.0600 
    158 H158       -0.4768  -14.7451  -44.8294 H         1 UNK         0.0600 
    159 H159        0.6340  -16.0027  -42.9344 H         1 UNK         0.3000 
    160 H160        3.2648  -18.1330  -41.7748 H         1 UNK         0.0600 
    161 H161        3.0165  -15.1168  -42.2651 H         1 UNK         0.0600 
    162 H162        4.3332  -16.1453  -42.8033 H         1 UNK         0.0600 
    163 H163        4.0793  -15.8803  -41.0837 H         1 UNK         0.0600 
    164 H164        1.4948  -16.1724  -40.5817 H         1 UNK         0.3000 
    165 H165       -0.9051  -18.5336  -39.3901 H         1 UNK         0.0600 
    166 H166       -0.2357  -17.5923  -37.1987 H         1 UNK         0.0600 
    167 H167        0.9869  -18.7178  -37.7669 H         1 UNK         0.0600 
    168 H168        1.2722  -16.9854  -37.8841 H         1 UNK         0.0600 
    169 H169       -0.5963  -15.7348  -38.9418 H         1 UNK         0.3000 
    170 H170       -2.2513  -14.5579  -41.8432 H         1 UNK         0.0600 
    171 H171       -4.1622  -15.3257  -40.4216 H         1 UNK         0.0600 
    172 H172       -3.3336  -14.7470  -38.9810 H         1 UNK         0.0600 
    173 H173       -3.8600  -13.6076  -40.2209 H         1 UNK         0.0600 
    174 H174       -1.5139  -13.0992  -39.5956 H         1 UNK         0.3000 
    175 H175        0.3602  -12.0142  -39.2586 H         1 UNK         0.0600 
    176 H176        2.8734  -13.0873  -40.6590 H         1 UNK         0.0600 
    177 H177        2.8321  -11.9435  -39.3193 H         1 UNK         0.0600 
    178 H178        2.2965  -13.5991  -39.0778 H         1 UNK         0.0600 
    179 H179        1.7533  -11.2134  -41.6859 H         1 UNK         0.3000 
    180 H180       -0.8789   -9.5762  -43.2678 H         1 UNK         0.0600 
    181 H181        1.3791   -8.1425  -41.7638 H         1 UNK         0.0600 
    182 H182       -0.3343   -7.7632  -41.6383 H         1 UNK         0.0600 
    183 H183        0.5042   -7.5132  -43.1608 H         1 UNK         0.0600 
    184 H184        1.9660   -9.5870  -43.6684 H         1 UNK         0.3000 
    185 H185        2.6644  -10.8600  -45.6592 H         1 UNK         0.0600 
    186 H186        3.6481  -11.2634  -43.3994 H         1 UNK         0.0600 
    187 H187        3.0156  -12.9061  -43.3900 H         1 UNK         0.0600 
    188 H188        4.2741  -12.4447  -44.5335 H         1 UNK         0.0600 
    189 H189        2.3994  -13.7361  -45.6171 H         1 UNK         0.3000 
    190 H190       -0.2865  -20.5039  -46.7745 H         1 UNK         0.3000 
    191 H191       -1.3260  -21.4608  -49.2026 H         1 UNK         0.0600 
    192 H192       -2.5286  -19.8946  -47.6915 H         1 UNK         0.0600 
    193 H193       -3.5267  -21.3018  -48.0169 H         1 UNK         0.0600 
    194 H194       -2.6987  -21.1592  -46.4772 H         1 UNK         0.0600 
    195 H195       -1.0628  -23.0890  -46.0424 H         1 UNK         0.3000 
    196 H196       -1.0339  -25.1642  -45.3417 H         1 UNK         0.0600 
    197 H197        0.1740  -26.8314  -46.6897 H         1 UNK         0.0600 
    198 H198        0.8927  -25.2632  -46.9833 H         1 UNK         0.0600 
    199 H199       -0.1880  -25.9642  -48.1818 H         1 UNK         0.0600 
    200 H200       -1.5986  -27.6751  -46.6523 H         1 UNK         0.3000 
    201 H201       -4.4184  -27.8803  -46.2773 H         1 UNK         0.0600 
    202 H202       -2.8353  -29.7363  -45.8066 H         1 UNK         0.0600 
    203 H203       -2.4083  -29.8397  -47.5155 H         1 UNK         0.0600 
    204 H204       -4.0346  -30.2476  -46.9824 H         1 UNK         0.0600 
    205 H205       -2.5363  -27.0769  -49.0761 H         1 UNK         0.3000 
    206 H206       -4.5016  -27.7263  -51.1117 H         1 UNK         0.0600 
    207 H207       -2.0595  -27.5862  -51.6056 H         1 UNK         0.0600 
    208 H208       -2.9520  -26.4181  -52.5643 H         1 UNK         0.0600 
    209 H209       -2.0479  -25.8818  -51.1518 H         1 UNK         0.0600 
    210 H210       -4.2490  -25.2242  -48.7573 H         1 UNK         0.3000 
    211 H211       -5.2305  -23.2984  -48.3341 H         1 UNK         0.0600 
    212 H212       -7.4546  -24.2643  -50.2139 H         1 UNK         0.0600 
    213 H213       -7.6054  -23.0203  -48.9804 H         1 UNK         0.0600 
    214 H214       -7.3022  -24.6847  -48.5092 H         1 UNK         0.0600 
    215 H215       -3.2103  -23.0728  -50.1055 H         1 UNK         0.3000 
    216 H216       -2.1639  -21.7733  -51.5836 H         1 UNK         0.0600 
    217 H217       -2.8572  -19.4212  -51.8455 H         1 UNK         0.0600 
    218 H218       -3.0728  -19.8951  -50.1767 H         1 UNK         0.0600 
    219 H219       -4.4673  -19.7738  -51.2423 H         1 UNK         0.0600 
    220 H220       -3.3752  -23.8324  -52.6660 H         1 UNK         0.3000 
    221 H221       -4.1293  -24.8557  -54.4781 H         1 UNK         0.0600 
    222 H222       -3.4074  -22.2959  -56.0007 H         1 UNK         0.0600 
    223 H223       -2.2793  -23.5891  -55.6038 H         1 UNK         0.0600 
    224 H224       -3.6210  -23.8945  -56.6970 H         1 UNK         0.0600 
    225 H225       -6.0790  -24.0306  -52.9102 H         1 UNK         0.3000 
    226 H226       -8.1910  -23.4673  -52.5857 H         1 UNK         0.0600 
    227 H227       -8.6097  -25.2544  -54.2788 H         1 UNK         0.0600 
    228 H228       -9.8553  -24.0172  -54.3265 H         1 UNK         0.0600 
    229 H229       -8.6096  -24.0500  -55.5665 H         1 UNK         0.0600 
    230 H230       -6.6815  -21.3539  -52.5756 H         1 UNK         0.3000 
    231 H231       -6.4332  -19.1744  -52.7190 H         1 UNK         0.0600 
    232 H232       -9.4607  -19.1029  -53.1898 H         1 UNK         0.0600 
    233 H233       -8.4710  -17.7771  -52.5927 H         1 UNK         0.0600 
    234 H234       -8.6696  -19.2245  -51.6188 H         1 UNK         0.0600 
    235 H235       -5.5122  -20.2700  -54.9572 H         1 UNK         0.3000 
    236 H236       -5.8384  -18.1994  -56.9908 H         1 UNK         0.0600 
    237 H237       -7.7209  -19.7423  -57.5817 H         1 UNK         0.0600 
    238 H238       -6.4679  -19.7700  -58.8099 H         1 UNK         0.0600 
    239 H239       -6.5954  -21.0948  -57.6583 H         1 UNK         0.0600 
    240 H240       -3.7488  -18.7626  -55.2924 H         1 UNK         0.3000 
    241 H241       -1.8144  -20.4901  -56.4576 H         1 UNK         0.0600 
    242 H242       -1.1783  -17.0152  -58.4375 H         1 UNK         0.3800 
    243 H243       -2.6234  -17.2565  -57.4921 H         1 UNK         0.3800 
    244 H244       -0.8829  -18.3135  -54.5725 H         1 UNK         0.0800 
    245 H245       -2.0886  -19.3891  -53.9701 H         1 UNK         0.0800 
    246 H246        1.4258  -18.9296  -55.1992 H         1 UNK         0.0800 
    247 H247        2.2588  -20.3809  -54.7256 H         1 UNK         0.0800 
@<TRIPOS>BOND
     1    1    2 1    
     2    1  127 1    
     3    1  128 1    
     4    1  129 1    
     5    2    3 2    
     6    2    4 am   BACKBONE|DICT|INTERRES
     7    4    5 1    
     8    4  130 1    
     9    5    6 1    
    10    5   65 1    
    11    5  131 1    
    12    6    7 1    
    13    6  132 1    
    14    6  133 1    
    15    7    8 1    
    16    8    9 1    
    17    8  134 1    
    18    8  135 1    
    19    9   10 ar   
    20    9   14 ar   
    21   10   11 ar   
    22   10  136 1    
    23   11   12 ar   
    24   11  126 1    
    25   12   13 ar   
    26   12  137 1    
    27   13   14 ar   
    28   13   15 1    
    29   14  138 1    
    30   15   16 1    
    31   15  139 1    
    32   15  140 1    
    33   16   17 1    
    34   17   18 1    
    35   17  141 1    
    36   17  142 1    
    37   18   19 1    
    38   18   67 1    
    39   18  143 1    
    40   19   20 am   BACKBONE|DICT|INTERRES
    41   19  144 1    
    42   20   21 2    
    43   20   22 1    
    44   22   23 1    
    45   22   24 1    
    46   22  145 1    
    47   23  146 1    
    48   23  147 1    
    49   23  148 1    
    50   24   25 am   BACKBONE|DICT|INTERRES
    51   24  149 1    
    52   25   26 2    
    53   25   27 1    
    54   27   28 1    
    55   27   29 1    
    56   27  150 1    
    57   28  151 1    
    58   28  152 1    
    59   28  153 1    
    60   29   30 am   BACKBONE|DICT|INTERRES
    61   29  154 1    
    62   30   31 2    
    63   30   32 1    
    64   32   33 1    
    65   32   34 1    
    66   32  155 1    
    67   33  156 1    
    68   33  157 1    
    69   33  158 1    
    70   34   35 am   BACKBONE|DICT|INTERRES
    71   34  159 1    
    72   35   36 2    
    73   35   37 1    
    74   37   38 1    
    75   37   39 1    
    76   37  160 1    
    77   38  161 1    
    78   38  162 1    
    79   38  163 1    
    80   39   40 am   BACKBONE|DICT|INTERRES
    81   39  164 1    
    82   40   41 2    
    83   40   42 1    
    84   42   43 1    
    85   42   44 1    
    86   42  165 1    
    87   43  166 1    
    88   43  167 1    
    89   43  168 1    
    90   44   45 am   BACKBONE|DICT|INTERRES
    91   44  169 1    
    92   45   46 2    
    93   45   47 1    
    94   47   48 1    
    95   47   49 1    
    96   47  170 1    
    97   48  171 1    
    98   48  172 1    
    99   48  173 1    
   100   49   50 am   BACKBONE|DICT|INTERRES
   101   49  174 1    
   102   50   51 2    
   103   50   52 1    
   104   52   53 1    
   105   52   54 1    
   106   52  175 1    
   107   53  176 1    
   108   53  177 1    
   109   53  178 1    
   110   54   55 am   BACKBONE|DICT|INTERRES
   111   54  179 1    
   112   55   56 2    
   113   55   57 1    
   114   57   58 1    
   115   57   59 1    
   116   57  180 1    
   117   58  181 1    
   118   58  182 1    
   119   58  183 1    
   120   59   60 am   BACKBONE|DICT|INTERRES
   121   59  184 1    
   122   60   61 2    
   123   60   62 1    
   124   62   63 1    
   125   62   64 1    
   126   62  185 1    
   127   63  186 1    
   128   63  187 1    
   129   63  188 1    
   130   64   65 am   BACKBONE|DICT|INTERRES
   131   64  189 1    
   132   65   66 2    
   133   67   68 2    
   134   67   69 am   BACKBONE|DICT|INTERRES
   135   69   70 1    
   136   69  190 1    
   137   70   71 1    
   138   70   72 1    
   139   70  191 1    
   140   71  192 1    
   141   71  193 1    
   142   71  194 1    
   143   72   73 2    
   144   72   74 am   BACKBONE|DICT|INTERRES
   145   74   75 1    
   146   74  195 1    
   147   75   76 1    
   148   75   77 1    
   149   75  196 1    
   150   76  197 1    
   151   76  198 1    
   152   76  199 1    
   153   77   78 2    
   154   77   79 am   BACKBONE|DICT|INTERRES
   155   79   80 1    
   156   79  200 1    
   157   80   81 1    
   158   80   82 1    
   159   80  201 1    
   160   81  202 1    
   161   81  203 1    
   162   81  204 1    
   163   82   83 2    
   164   82   84 am   BACKBONE|DICT|INTERRES
   165   84   85 1    
   166   84  205 1    
   167   85   86 1    
   168   85   87 1    
   169   85  206 1    
   170   86  207 1    
   171   86  208 1    
   172   86  209 1    
   173   87   88 2    
   174   87   89 am   BACKBONE|DICT|INTERRES
   175   89   90 1    
   176   89  210 1    
   177   90   91 1    
   178   90   92 1    
   179   90  211 1    
   180   91  212 1    
   181   91  213 1    
   182   91  214 1    
   183   92   93 2    
   184   92   94 am   BACKBONE|DICT|INTERRES
   185   94   95 1    
   186   94  215 1    
   187   95   96 1    
   188   95   97 1    
   189   95  216 1    
   190   96  217 1    
   191   96  218 1    
   192   96  219 1    
   193   97   98 2    
   194   97   99 am   BACKBONE|DICT|INTERRES
   195   99  100 1    
   196   99  220 1    
   197  100  101 1    
   198  100  102 1    
   199  100  221 1    
   200  101  222 1    
   201  101  223 1    
   202  101  224 1    
   203  102  103 2    
   204  102  104 am   BACKBONE|DICT|INTERRES
   205  104  105 1    
   206  104  225 1    
   207  105  106 1    
   208  105  107 1    
   209  105  226 1    
   210  106  227 1    
   211  106  228 1    
   212  106  229 1    
   213  107  108 2    
   214  107  109 am   BACKBONE|DICT|INTERRES
   215  109  110 1    
   216  109  230 1    
   217  110  111 1    
   218  110  112 1    
   219  110  231 1    
   220  111  232 1    
   221  111  233 1    
   222  111  234 1    
   223  112  113 2    
   224  112  114 am   BACKBONE|DICT|INTERRES
   225  114  115 1    
   226  114  235 1    
   227  115  116 1    
   228  115  117 1    
   229  115  236 1    
   230  116  237 1    
   231  116  238 1    
   232  116  239 1    
   233  117  118 2    
   234  117  119 am   BACKBONE|DICT|INTERRES
   235  119  120 1    
   236  119  240 1    
   237  120  121 1    
   238  120  124 1    
   239  120  241 1    
   240  121  122 am   BACKBONE|DICT|INTERRES
   241  121  123 2    
   242  122  242 1    
   243  122  243 1    
   244  124  125 1    
   245  124  244 1    
   246  124  245 1    
   247  125  126 1    
   248  126  246 1    
   249  126  247 1    
@<TRIPOS>SUBSTRUCTURE
     1 UNK         1 GROUP             0       ****    0 ROOT    
