@<TRIPOS>MOLECULE
3R540
247   249    1
SMALL
USER_CHARGES


@<TRIPOS>ATOM
      1 CA          0.1331  -17.4281  -49.0803 C.3       0 UNK        -0.1800 
      2 C          -0.3932  -16.8064  -47.7958 C.2       0 UNK         0.5000 
      3 O           0.3027  -16.8053  -46.7840 O.2       0 UNK        -0.5000 
      4 N          -1.6180  -16.2690  -47.8275 N.am      1 UNK        -0.5000 
      5 CA         -2.3331  -15.6695  -46.6929 C.3       1 UNK         0.1400 
      6 C6         -3.8718  -15.8482  -46.8242 C.3       23 UNK        -0.0398 
      7 S7         -4.6112  -15.1651  -48.3506 S.3       23 UNK        -0.2404 
      8 C8         -4.5911  -16.5949  -49.4783 C.3       23 UNK        -0.0205 
      9 C9         -5.7355  -17.5729  -49.2457 C.ar      23 UNK        -0.0193 
     10 C10        -6.9523  -17.3928  -49.9093 C.ar      23 UNK        -0.1150 
     11 C11        -7.9696  -18.3451  -49.7998 C.ar      23 UNK        -0.0193 
     12 C12        -7.7741  -19.4726  -48.9979 C.ar      23 UNK        -0.1150 
     13 C13        -6.5618  -19.6686  -48.3337 C.ar      23 UNK        -0.0193 
     14 C14        -5.5494  -18.7110  -48.4542 C.ar      23 UNK        -0.1150 
     15 C15        -6.3291  -20.9438  -47.5384 C.3       23 UNK        -0.0205 
     16 S16        -5.7049  -22.2586  -48.6332 S.3       23 UNK        -0.2404 
     17 C17        -4.4811  -23.1267  -47.5964 C.3       23 UNK        -0.0398 
     18 CA         -3.0979  -22.4259  -47.6193 C.3       11 UNK         0.1400 
     19 N          -3.0293  -21.3310  -46.6498 N.am      11 UNK        -0.5000 
     20 C          -2.0274  -20.4512  -46.5436 C.2       10 UNK         0.5000 
     21 O          -1.0532  -20.4389  -47.2975 O.2       10 UNK        -0.5000 
     22 CA         -2.1052  -19.4561  -45.3709 C.3       10 UNK         0.1400 
     23 CB         -3.5427  -19.1953  -44.8684 C.3       10 UNK        -0.1800 
     24 N          -1.2530  -19.8418  -44.2460 N.am      10 UNK        -0.5000 
     25 C          -1.2680  -20.9866  -43.5486 C.2       9 UNK         0.5000 
     26 O          -1.9638  -21.9601  -43.8402 O.2       9 UNK        -0.5000 
     27 CA         -0.3840  -21.0371  -42.2877 C.3       9 UNK         0.1400 
     28 CB          1.0813  -21.3492  -42.6250 C.3       9 UNK        -0.1800 
     29 N          -0.4436  -19.7909  -41.5240 N.am      9 UNK        -0.5000 
     30 C          -1.4788  -19.4127  -40.7619 C.2       8 UNK         0.5000 
     31 O          -2.4716  -20.1121  -40.5582 O.2       8 UNK        -0.5000 
     32 CA         -1.3945  -18.0136  -40.1255 C.3       8 UNK         0.1400 
     33 CB         -0.6687  -18.0706  -38.7725 C.3       8 UNK        -0.1800 
     34 N          -0.7227  -17.0533  -41.0021 N.am      8 UNK        -0.5000 
     35 C          -1.3159  -16.4505  -42.0428 C.2       7 UNK         0.5000 
     36 O          -2.5037  -16.5975  -42.3304 O.2       7 UNK        -0.5000 
     37 CA         -0.4465  -15.5268  -42.9178 C.3       7 UNK         0.1400 
     38 CB         -0.5910  -14.0721  -42.4471 C.3       7 UNK        -0.1800 
     39 N           0.9712  -15.8923  -42.9692 N.am      7 UNK        -0.5000 
     40 C           1.4378  -17.0614  -43.4339 C.2       6 UNK         0.5000 
     41 O           0.7148  -17.9661  -43.8439 O.2       6 UNK        -0.5000 
     42 CA          2.9522  -17.3133  -43.3373 C.3       6 UNK         0.1400 
     43 CB          3.6988  -16.7048  -44.5311 C.3       6 UNK        -0.1800 
     44 N           3.5410  -16.8217  -42.0936 N.am      6 UNK        -0.5000 
     45 C           3.1856  -17.1848  -40.8556 C.2       5 UNK         0.5000 
     46 O           2.3008  -18.0083  -40.6188 O.2       5 UNK        -0.5000 
     47 CA          3.9026  -16.4852  -39.6824 C.3       5 UNK         0.1400 
     48 CB          5.2461  -17.1670  -39.3615 C.3       5 UNK        -0.1800 
     49 N           4.0535  -15.0310  -39.8503 N.am      5 UNK        -0.5000 
     50 C           4.7919  -14.3572  -40.7436 C.2       4 UNK         0.5000 
     51 O           5.5508  -14.8852  -41.5601 O.2       4 UNK        -0.5000 
     52 CA          4.6209  -12.8275  -40.7476 C.3       4 UNK         0.1400 
     53 CB          5.8426  -12.1449  -40.1139 C.3       4 UNK        -0.1800 
     54 N           4.4148  -12.2917  -42.0958 N.am      4 UNK        -0.5000 
     55 C           3.4178  -12.6322  -42.9247 C.2       3 UNK         0.5000 
     56 O           2.5521  -13.4634  -42.6413 O.2       3 UNK        -0.5000 
     57 CA          3.3885  -11.8837  -44.2734 C.3       3 UNK         0.1400 
     58 CB          4.5353  -12.3346  -45.2021 C.3       3 UNK        -0.1800 
     59 N           2.0821  -11.9371  -44.9467 N.am      3 UNK        -0.5000 
     60 C           1.5084  -12.9693  -45.5819 C.2       2 UNK         0.5000 
     61 O           2.0410  -14.0637  -45.7714 O.2       2 UNK        -0.5000 
     62 CA          0.0942  -12.7148  -46.1259 C.3       2 UNK         0.1400 
     63 CB          0.1381  -11.8856  -47.4222 C.3       2 UNK        -0.1800 
     64 N          -0.5594  -13.9930  -46.3848 N.am      2 UNK        -0.5000 
     65 C          -1.8776  -14.2171  -46.4013 C.2       1 UNK         0.5000 
     66 O          -2.7094  -13.3334  -46.1900 O.2       1 UNK        -0.5000 
     67 C          -1.9449  -23.4355  -47.4395 C.2       11 UNK         0.5000 
     68 O          -1.4978  -24.0026  -48.4354 O.2       11 UNK        -0.5000 
     69 N          -1.4436  -23.6055  -46.2067 N.am      12 UNK        -0.5000 
     70 CA         -0.2804  -24.4421  -45.9094 C.3       12 UNK         0.1400 
     71 CB         -0.3115  -24.8616  -44.4319 C.3       12 UNK        -0.1800 
     72 C           1.0582  -23.7628  -46.2624 C.2       12 UNK         0.5000 
     73 O           2.0339  -24.4727  -46.5043 O.2       12 UNK        -0.5000 
     74 N           1.0919  -22.4206  -46.3117 N.am      13 UNK        -0.5000 
     75 CA          2.2630  -21.6522  -46.7484 C.3       13 UNK         0.1400 
     76 CB          2.1819  -20.2032  -46.2395 C.3       13 UNK        -0.1800 
     77 C           2.4060  -21.6821  -48.2783 C.2       13 UNK         0.5000 
     78 O           3.5105  -21.8733  -48.7874 O.2       13 UNK        -0.5000 
     79 N           1.2749  -21.5254  -48.9787 N.am      14 UNK        -0.5000 
     80 CA          1.1810  -21.6299  -50.4360 C.3       14 UNK         0.1400 
     81 CB         -0.1420  -20.9963  -50.8767 C.3       14 UNK        -0.1800 
     82 C           1.2572  -23.0806  -50.9530 C.2       14 UNK         0.5000 
     83 O           1.5630  -23.2824  -52.1277 O.2       14 UNK        -0.5000 
     84 N           0.9465  -24.0485  -50.0781 N.am      15 UNK        -0.5000 
     85 CA          0.8086  -25.4848  -50.3384 C.3       15 UNK         0.1400 
     86 CB          2.1538  -26.1072  -50.7674 C.3       15 UNK        -0.1800 
     87 C          -0.3530  -25.7885  -51.3093 C.2       15 UNK         0.5000 
     88 O          -0.1954  -26.5899  -52.2321 O.2       15 UNK        -0.5000 
     89 N          -1.4982  -25.1285  -51.0664 N.am      16 UNK        -0.5000 
     90 CA         -2.7614  -25.2084  -51.8121 C.3       16 UNK         0.1400 
     91 CB         -3.4566  -26.5572  -51.5384 C.3       16 UNK        -0.1800 
     92 C          -2.5818  -24.9131  -53.3171 C.2       16 UNK         0.5000 
     93 O          -2.9388  -25.7336  -54.1646 O.2       16 UNK        -0.5000 
     94 N          -1.9822  -23.7502  -53.6065 N.am      17 UNK        -0.5000 
     95 CA         -1.5362  -23.3289  -54.9373 C.3       17 UNK         0.1400 
     96 CB         -0.7747  -22.0001  -54.8012 C.3       17 UNK        -0.1800 
     97 C          -2.6443  -23.1873  -55.9998 C.2       17 UNK         0.5000 
     98 O          -2.3495  -23.3416  -57.1856 O.2       17 UNK        -0.5000 
     99 N          -3.8717  -22.8604  -55.5657 N.am      18 UNK        -0.5000 
    100 CA        -5.0300  -22.4903  -56.3922 C.3       18 UNK         0.1400 
    101 CB        -5.5172  -23.6829  -57.2413 C.3       18 UNK        -0.1800 
    102 C         -4.7562  -21.2139  -57.2204 C.2       18 UNK         0.5000 
    103 O         -5.1281  -21.1326  -58.3926 O.2       18 UNK        -0.5000 
    104 N         -4.0833  -20.2493  -56.5820 N.am      19 UNK        -0.5000 
    105 CA        -3.6187  -18.9882  -57.1512 C.3       19 UNK         0.1400 
    106 CB        -2.4790  -19.2228  -58.1654 C.3       19 UNK        -0.1800 
    107 C         -3.1941  -18.0630  -56.0026 C.2       19 UNK         0.5000 
    108 O         -3.9299  -17.1350  -55.6671 O.2       19 UNK        -0.5000 
    109 N         -2.0341  -18.3569  -55.3927 N.am      20 UNK        -0.5000 
    110 CA        -1.4873  -17.6387  -54.2312 C.3       20 UNK         0.1400 
    111 CB        -0.0351  -18.0857  -54.0005 C.3       20 UNK        -0.1800 
    112 C         -2.3185  -17.8434  -52.9491 C.2       20 UNK         0.5000 
    113 O         -2.3468  -16.9701  -52.0819 O.2       20 UNK        -0.5000 
    114 N         -2.9962  -18.9904  -52.8811 N.am      21 UNK        -0.5000 
    115 CA        -4.0388  -19.3318  -51.9309 C.3       21 UNK         0.1400 
    116 CB        -3.4324  -20.1398  -50.7810 C.3       21 UNK        -0.1800 
    117 C         -5.0806  -20.1590  -52.6888 C.2       21 UNK         0.5000 
    118 O         -4.7410  -20.7441  -53.7219 O.2       21 UNK        -0.5000 
    119 N         -6.3132  -20.2010  -52.1736 N.am      22 UNK        -0.5000 
    120 CA        -7.4459  -20.8964  -52.8103 C.3       22 UNK         0.1400 
    121 C         -7.3466  -22.4504  -52.8087 C.2       22 UNK         0.5000 
    122 N         -6.5284  -23.0644  -51.9629 N.am      22 UNK        -0.7600 
    123 O         -8.0186  -23.1075  -53.5982 O.2       22 UNK        -0.5000 
    124 C124       -8.8158  -20.4409  -52.2422 C.3       23 UNK        -0.0398 
    125 S125       -9.0735  -18.6323  -52.3315 S.3       23 UNK        -0.2404 
    126 C126       -9.2653  -18.1727  -50.5768 C.3       23 UNK        -0.0205 
    127 H127        0.5153  -18.4283  -48.8759 H         1 UNK         0.0600 
    128 H128        0.9472  -16.8265  -49.4840 H         1 UNK         0.0600 
    129 H129       -0.6453  -17.5096  -49.8394 H         1 UNK         0.0600 
    130 H130       -2.1090  -16.2251  -48.7086 H         1 UNK         0.3000 
    131 H131       -2.0526  -16.2281  -45.7992 H         1 UNK         0.0600 
    132 H132       -4.3797  -15.3985  -45.9694 H         1 UNK         0.0800 
    133 H133       -4.1165  -16.9063  -46.7685 H         1 UNK         0.0800 
    134 H134       -4.6474  -16.2142  -50.4994 H         1 UNK         0.0800 
    135 H135       -3.6374  -17.1184  -49.4168 H         1 UNK         0.0800 
    136 H136       -7.0956  -16.5281  -50.5426 H         1 UNK         0.1150 
    137 H137       -8.5528  -20.2178  -48.9149 H         1 UNK         0.1150 
    138 H138       -4.5961  -18.8808  -47.9764 H         1 UNK         0.1150 
    139 H139       -5.6359  -20.7491  -46.7223 H         1 UNK         0.0800 
    140 H140       -7.2585  -21.2758  -47.0735 H         1 UNK         0.0800 
    141 H141       -4.8594  -23.2400  -46.5792 H         1 UNK         0.0800 
    142 H142       -4.4135  -24.1384  -48.0018 H         1 UNK         0.0800 
    143 H143       -2.9458  -21.9899  -48.6082 H         1 UNK         0.0600 
    144 H144       -3.7483  -21.3119  -45.9423 H         1 UNK         0.3000 
    145 H145       -1.7050  -18.5166  -45.7468 H         1 UNK         0.0600 
    146 H146       -3.5599  -18.3568  -44.1724 H         1 UNK         0.0600 
    147 H147       -4.2171  -18.9447  -45.6852 H         1 UNK         0.0600 
    148 H148       -3.9634  -20.0561  -44.3479 H         1 UNK         0.0600 
    149 H149       -0.5671  -19.1347  -43.9780 H         1 UNK         0.3000 
    150 H150       -0.7613  -21.8494  -41.6627 H         1 UNK         0.0600 
    151 H151        1.1685  -22.1605  -43.3474 H         1 UNK         0.0600 
    152 H152        1.6278  -21.6500  -41.7311 H         1 UNK         0.0600 
    153 H153        1.5898  -20.4797  -43.0371 H         1 UNK         0.0600 
    154 H154        0.3285  -19.1482  -41.6396 H         1 UNK         0.3000 
    155 H155       -2.4144  -17.6685  -39.9416 H         1 UNK         0.0600 
    156 H156       -0.6239  -17.0862  -38.3064 H         1 UNK         0.0600 
    157 H157        0.3513  -18.4417  -38.8730 H         1 UNK         0.0600 
    158 H158       -1.1896  -18.7341  -38.0811 H         1 UNK         0.0600 
    159 H159        0.2682  -16.9152  -40.8551 H         1 UNK         0.3000 
    160 H160       -0.8297  -15.5952  -43.9350 H         1 UNK         0.0600 
    161 H161       -0.1579  -13.9266  -41.4568 H         1 UNK         0.0600 
    162 H162       -1.6399  -13.7771  -42.3962 H         1 UNK         0.0600 
    163 H163       -0.0987  -13.3830  -43.1306 H         1 UNK         0.0600 
    164 H164        1.6351  -15.1718  -42.6970 H         1 UNK         0.3000 
    165 H165        3.1012  -18.3945  -43.3641 H         1 UNK         0.0600 
    166 H166        3.7169  -15.6167  -44.4741 H         1 UNK         0.0600 
    167 H167        4.7306  -17.0535  -44.5695 H         1 UNK         0.0600 
    168 H168        3.2236  -16.9787  -45.4745 H         1 UNK         0.0600 
    169 H169        4.2778  -16.1267  -42.1765 H         1 UNK         0.3000 
    170 H170        3.2599  -16.6127  -38.8098 H         1 UNK         0.0600 
    171 H171        5.0971  -18.2208  -39.1233 H         1 UNK         0.0600 
    172 H172        5.9415  -17.1208  -40.1998 H         1 UNK         0.0600 
    173 H173        5.7272  -16.7039  -38.5001 H         1 UNK         0.0600 
    174 H174        3.4522  -14.4846  -39.2492 H         1 UNK         0.3000 
    175 H175        3.7394  -12.5696  -40.1569 H         1 UNK         0.0600 
    176 H176        5.7056  -11.0651  -40.0529 H         1 UNK         0.0600 
    177 H177        6.0102  -12.5081  -39.0991 H         1 UNK         0.0600 
    178 H178        6.7517  -12.3373  -40.6854 H         1 UNK         0.0600 
    179 H179        5.0988  -11.6202  -42.4120 H         1 UNK         0.3000 
    180 H180        3.5475  -10.8282  -44.0473 H         1 UNK         0.0600 
    181 H181        4.4848  -11.8299  -46.1669 H         1 UNK         0.0600 
    182 H182        5.5067  -12.1002  -44.7658 H         1 UNK         0.0600 
    183 H183        4.5184  -13.4093  -45.3832 H         1 UNK         0.0600 
    184 H184        1.5345  -11.0937  -44.8494 H         1 UNK         0.3000 
    185 H185       -0.4693  -12.1720  -45.3641 H         1 UNK         0.0600 
    186 H186       -0.8653  -11.6790  -47.7948 H         1 UNK         0.0600 
    187 H187        0.6262  -10.9241  -47.2597 H         1 UNK         0.0600 
    188 H188        0.6867  -12.4046  -48.2092 H         1 UNK         0.0600 
    189 H189        0.0777  -14.7795  -46.4931 H         1 UNK         0.3000 
    190 H190       -1.8347  -23.0796  -45.4293 H         1 UNK         0.3000 
    191 H191       -0.3478  -25.3525  -46.5093 H         1 UNK         0.0600 
    192 H192        0.5211  -25.5263  -44.1977 H         1 UNK         0.0600 
    193 H193       -1.2306  -25.3976  -44.1950 H         1 UNK         0.0600 
    194 H194       -0.2434  -24.0057  -43.7624 H         1 UNK         0.0600 
    195 H195        0.2385  -21.8996  -46.1651 H         1 UNK         0.3000 
    196 H196        3.1597  -22.1042  -46.3188 H         1 UNK         0.0600 
    197 H197        3.0500  -19.6283  -46.5641 H         1 UNK         0.0600 
    198 H198        2.1655  -20.1656  -45.1537 H         1 UNK         0.0600 
    199 H199        1.2976  -19.6809  -46.6030 H         1 UNK         0.0600 
    200 H200        0.4204  -21.3097  -48.4759 H         1 UNK         0.3000 
    201 H201        2.0028  -21.0692  -50.8862 H         1 UNK         0.0600 
    202 H202       -0.1851  -19.9402  -50.6153 H         1 UNK         0.0600 
    203 H203       -0.9783  -21.5003  -50.3945 H         1 UNK         0.0600 
    204 H204       -0.2821  -21.0673  -51.9552 H         1 UNK         0.0600 
    205 H205        0.6494  -23.7543  -49.1581 H         1 UNK         0.3000 
    206 H206        0.5310  -25.9378  -49.3855 H         1 UNK         0.0600 
    207 H207        2.9414  -25.8724  -50.0513 H         1 UNK         0.0600 
    208 H208        2.0791  -27.1938  -50.8228 H         1 UNK         0.0600 
    209 H209        2.4741  -25.7531  -51.7475 H         1 UNK         0.0600 
    210 H210       -1.5150  -24.5435  -50.2343 H         1 UNK         0.3000 
    211 H211       -3.4060  -24.4214  -51.4172 H         1 UNK         0.0600 
    212 H212       -2.8707  -27.3980  -51.9113 H         1 UNK         0.0600 
    213 H213       -4.4338  -26.5983  -52.0208 H         1 UNK         0.0600 
    214 H214       -3.6155  -26.7073  -50.4705 H         1 UNK         0.0600 
    215 H215       -1.6996  -23.1621  -52.8379 H         1 UNK         0.3000 
    216 H216       -0.8380  -24.0858  -55.3006 H         1 UNK         0.0600 
    217 H217       -1.3991  -21.2250  -54.3569 H         1 UNK         0.0600 
    218 H218       -0.4382  -21.6368  -55.7733 H         1 UNK         0.0600 
    219 H219        0.1129  -22.1168  -54.1798 H         1 UNK         0.0600 
    220 H220       -3.9964  -22.7098  -54.5730 H         1 UNK         0.3000 
    221 H221       -5.8339  -22.2377  -55.6997 H         1 UNK         0.0600 
    222 H222       -4.7987  -23.9558  -58.0143 H         1 UNK         0.0600 
    223 H223       -5.6922  -24.5612  -56.6198 H         1 UNK         0.0600 
    224 H224       -6.4576  -23.4458  -57.7400 H         1 UNK         0.0600 
    225 H225       -3.9371  -20.3766  -55.5874 H         1 UNK         0.3000 
    226 H226       -4.4532  -18.5103  -57.6686 H         1 UNK         0.0600 
    227 H227       -2.8460  -19.7242  -59.0608 H         1 UNK         0.0600 
    228 H228       -2.0385  -18.2780  -58.4864 H         1 UNK         0.0600 
    229 H229       -1.6808  -19.8386  -57.7498 H         1 UNK         0.0600 
    230 H230       -1.4770  -19.1163  -55.7549 H         1 UNK         0.3000 
    231 H231       -1.4879  -16.5707  -54.4586 H         1 UNK         0.0600 
    232 H232        0.4084  -17.5504  -53.1598 H         1 UNK         0.0600 
    233 H233        0.5838  -17.8846  -54.8750 H         1 UNK         0.0600 
    234 H234        0.0306  -19.1515  -53.7794 H         1 UNK         0.0600 
    235 H235       -2.9484  -19.6246  -53.6646 H         1 UNK         0.3000 
    236 H236       -4.5152  -18.4245  -51.5637 H         1 UNK         0.0600 
    237 H237       -2.6362  -19.5893  -50.2801 H         1 UNK         0.0600 
    238 H238       -4.1845  -20.3689  -50.0337 H         1 UNK         0.0600 
    239 H239       -3.0365  -21.0903  -51.1367 H         1 UNK         0.0600 
    240 H240       -6.5217  -19.7011  -51.3205 H         1 UNK         0.3000 
    241 H241       -7.4316  -20.6073  -53.8633 H         1 UNK         0.0600 
    242 H242       -6.0136  -22.5393  -51.2742 H         1 UNK         0.3800 
    243 H243       -6.4868  -24.0703  -51.9662 H         1 UNK         0.3800 
    244 H244       -9.6268  -20.9070  -52.8047 H         1 UNK         0.0800 
    245 H245       -8.9352  -20.7857  -51.2151 H         1 UNK         0.0800 
    246 H246      -10.0677  -18.7622  -50.1301 H         1 UNK         0.0800 
    247 H247       -9.5851  -17.1313  -50.5182 H         1 UNK         0.0800 
@<TRIPOS>BOND
     1    1    2 1    
     2    1  127 1    
     3    1  128 1    
     4    1  129 1    
     5    2    3 2    
     6    2    4 am   BACKBONE|DICT|INTERRES
     7    4    5 1    
     8    4  130 1    
     9    5    6 1    
    10    5   65 1    
    11    5  131 1    
    12    6    7 1    
    13    6  132 1    
    14    6  133 1    
    15    7    8 1    
    16    8    9 1    
    17    8  134 1    
    18    8  135 1    
    19    9   10 ar   
    20    9   14 ar   
    21   10   11 ar   
    22   10  136 1    
    23   11   12 ar   
    24   11  126 1    
    25   12   13 ar   
    26   12  137 1    
    27   13   14 ar   
    28   13   15 1    
    29   14  138 1    
    30   15   16 1    
    31   15  139 1    
    32   15  140 1    
    33   16   17 1    
    34   17   18 1    
    35   17  141 1    
    36   17  142 1    
    37   18   19 1    
    38   18   67 1    
    39   18  143 1    
    40   19   20 am   BACKBONE|DICT|INTERRES
    41   19  144 1    
    42   20   21 2    
    43   20   22 1    
    44   22   23 1    
    45   22   24 1    
    46   22  145 1    
    47   23  146 1    
    48   23  147 1    
    49   23  148 1    
    50   24   25 am   BACKBONE|DICT|INTERRES
    51   24  149 1    
    52   25   26 2    
    53   25   27 1    
    54   27   28 1    
    55   27   29 1    
    56   27  150 1    
    57   28  151 1    
    58   28  152 1    
    59   28  153 1    
    60   29   30 am   BACKBONE|DICT|INTERRES
    61   29  154 1    
    62   30   31 2    
    63   30   32 1    
    64   32   33 1    
    65   32   34 1    
    66   32  155 1    
    67   33  156 1    
    68   33  157 1    
    69   33  158 1    
    70   34   35 am   BACKBONE|DICT|INTERRES
    71   34  159 1    
    72   35   36 2    
    73   35   37 1    
    74   37   38 1    
    75   37   39 1    
    76   37  160 1    
    77   38  161 1    
    78   38  162 1    
    79   38  163 1    
    80   39   40 am   BACKBONE|DICT|INTERRES
    81   39  164 1    
    82   40   41 2    
    83   40   42 1    
    84   42   43 1    
    85   42   44 1    
    86   42  165 1    
    87   43  166 1    
    88   43  167 1    
    89   43  168 1    
    90   44   45 am   BACKBONE|DICT|INTERRES
    91   44  169 1    
    92   45   46 2    
    93   45   47 1    
    94   47   48 1    
    95   47   49 1    
    96   47  170 1    
    97   48  171 1    
    98   48  172 1    
    99   48  173 1    
   100   49   50 am   BACKBONE|DICT|INTERRES
   101   49  174 1    
   102   50   51 2    
   103   50   52 1    
   104   52   53 1    
   105   52   54 1    
   106   52  175 1    
   107   53  176 1    
   108   53  177 1    
   109   53  178 1    
   110   54   55 am   BACKBONE|DICT|INTERRES
   111   54  179 1    
   112   55   56 2    
   113   55   57 1    
   114   57   58 1    
   115   57   59 1    
   116   57  180 1    
   117   58  181 1    
   118   58  182 1    
   119   58  183 1    
   120   59   60 am   BACKBONE|DICT|INTERRES
   121   59  184 1    
   122   60   61 2    
   123   60   62 1    
   124   62   63 1    
   125   62   64 1    
   126   62  185 1    
   127   63  186 1    
   128   63  187 1    
   129   63  188 1    
   130   64   65 am   BACKBONE|DICT|INTERRES
   131   64  189 1    
   132   65   66 2    
   133   67   68 2    
   134   67   69 am   BACKBONE|DICT|INTERRES
   135   69   70 1    
   136   69  190 1    
   137   70   71 1    
   138   70   72 1    
   139   70  191 1    
   140   71  192 1    
   141   71  193 1    
   142   71  194 1    
   143   72   73 2    
   144   72   74 am   BACKBONE|DICT|INTERRES
   145   74   75 1    
   146   74  195 1    
   147   75   76 1    
   148   75   77 1    
   149   75  196 1    
   150   76  197 1    
   151   76  198 1    
   152   76  199 1    
   153   77   78 2    
   154   77   79 am   BACKBONE|DICT|INTERRES
   155   79   80 1    
   156   79  200 1    
   157   80   81 1    
   158   80   82 1    
   159   80  201 1    
   160   81  202 1    
   161   81  203 1    
   162   81  204 1    
   163   82   83 2    
   164   82   84 am   BACKBONE|DICT|INTERRES
   165   84   85 1    
   166   84  205 1    
   167   85   86 1    
   168   85   87 1    
   169   85  206 1    
   170   86  207 1    
   171   86  208 1    
   172   86  209 1    
   173   87   88 2    
   174   87   89 am   BACKBONE|DICT|INTERRES
   175   89   90 1    
   176   89  210 1    
   177   90   91 1    
   178   90   92 1    
   179   90  211 1    
   180   91  212 1    
   181   91  213 1    
   182   91  214 1    
   183   92   93 2    
   184   92   94 am   BACKBONE|DICT|INTERRES
   185   94   95 1    
   186   94  215 1    
   187   95   96 1    
   188   95   97 1    
   189   95  216 1    
   190   96  217 1    
   191   96  218 1    
   192   96  219 1    
   193   97   98 2    
   194   97   99 am   BACKBONE|DICT|INTERRES
   195   99  100 1    
   196   99  220 1    
   197  100  101 1    
   198  100  102 1    
   199  100  221 1    
   200  101  222 1    
   201  101  223 1    
   202  101  224 1    
   203  102  103 2    
   204  102  104 am   BACKBONE|DICT|INTERRES
   205  104  105 1    
   206  104  225 1    
   207  105  106 1    
   208  105  107 1    
   209  105  226 1    
   210  106  227 1    
   211  106  228 1    
   212  106  229 1    
   213  107  108 2    
   214  107  109 am   BACKBONE|DICT|INTERRES
   215  109  110 1    
   216  109  230 1    
   217  110  111 1    
   218  110  112 1    
   219  110  231 1    
   220  111  232 1    
   221  111  233 1    
   222  111  234 1    
   223  112  113 2    
   224  112  114 am   BACKBONE|DICT|INTERRES
   225  114  115 1    
   226  114  235 1    
   227  115  116 1    
   228  115  117 1    
   229  115  236 1    
   230  116  237 1    
   231  116  238 1    
   232  116  239 1    
   233  117  118 2    
   234  117  119 am   BACKBONE|DICT|INTERRES
   235  119  120 1    
   236  119  240 1    
   237  120  121 1    
   238  120  124 1    
   239  120  241 1    
   240  121  122 am   BACKBONE|DICT|INTERRES
   241  121  123 2    
   242  122  242 1    
   243  122  243 1    
   244  124  125 1    
   245  124  244 1    
   246  124  245 1    
   247  125  126 1    
   248  126  246 1    
   249  126  247 1    
@<TRIPOS>SUBSTRUCTURE
     1 UNK         1 GROUP             0       ****    0 ROOT    
