@<TRIPOS>MOLECULE
3R540
247   249    1
SMALL
USER_CHARGES


@<TRIPOS>ATOM
      1 CA          5.6048  -12.6337  -47.2827 C.3       0 UNK        -0.1800 
      2 C           4.2166  -12.7585  -46.6721 C.2       0 UNK         0.5000 
      3 O           4.1032  -12.9667  -45.4628 O.2       0 UNK        -0.5000 
      4 N           3.1745  -12.6324  -47.5074 N.am      1 UNK        -0.5000 
      5 CA          1.7462  -12.7613  -47.1878 C.3       1 UNK         0.1400 
      6 C6          0.8495  -12.4854  -48.4226 C.3       23 UNK        -0.0398 
      7 S7          1.1246  -13.6799  -49.7725 S.3       23 UNK        -0.2404 
      8 C8         -0.2845  -14.8039  -49.5113 C.3       23 UNK        -0.0205 
      9 C9         -0.1613  -16.0801  -50.3306 C.ar      23 UNK        -0.0193 
     10 C10        -1.1481  -16.4280  -51.2584 C.ar      23 UNK        -0.1150 
     11 C11        -1.0350  -17.6029  -52.0090 C.ar      23 UNK        -0.0193 
     12 C12         0.0801  -18.4273  -51.8328 C.ar      23 UNK        -0.1150 
     13 C13         1.0657  -18.0968  -50.8983 C.ar      23 UNK        -0.0193 
     14 C14         0.9349  -16.9271  -50.1457 C.ar      23 UNK        -0.1150 
     15 C15         2.2774  -18.9956  -50.7040 C.3       23 UNK        -0.0205 
     16 S16         1.8393  -20.6023  -49.9729 S.3       23 UNK        -0.2404 
     17 C17         1.1594  -20.1080  -48.3512 C.3       23 UNK        -0.0398 
     18 CA          0.3905  -21.2652  -47.6748 C.3       11 UNK         0.1400 
     19 N           0.2460  -21.0766  -46.2315 N.am      11 UNK        -0.5000 
     20 C          -0.1219  -22.0506  -45.3865 C.2       10 UNK         0.5000 
     21 O          -0.3623  -23.2067  -45.7381 O.2       10 UNK        -0.5000 
     22 CA         -0.2879  -21.6597  -43.9077 C.3       10 UNK         0.1400 
     23 CB          1.0788  -21.5115  -43.2227 C.3       10 UNK        -0.1800 
     24 N          -1.0585  -20.4292  -43.7337 N.am      10 UNK        -0.5000 
     25 C          -2.3353  -20.2707  -44.1103 C.2       9 UNK         0.5000 
     26 O          -3.0135  -21.1537  -44.6337 O.2       9 UNK        -0.5000 
     27 CA         -2.9429  -18.8735  -43.9101 C.3       9 UNK         0.1400 
     28 CB         -3.3509  -18.6544  -42.4451 C.3       9 UNK        -0.1800 
     29 N          -2.0309  -17.8113  -44.3300 N.am      9 UNK        -0.5000 
     30 C          -1.6347  -17.6060  -45.5937 C.2       8 UNK         0.5000 
     31 O          -1.9959  -18.2877  -46.5510 O.2       8 UNK        -0.5000 
     32 CA         -0.6212  -16.4727  -45.8121 C.3       8 UNK         0.1400 
     33 CB         -1.3155  -15.1026  -45.7509 C.3       8 UNK        -0.1800 
     34 N           0.4720  -16.5193  -44.8428 N.am      8 UNK        -0.5000 
     35 C           1.3679  -17.5142  -44.7716 C.2       7 UNK         0.5000 
     36 O           1.3907  -18.4750  -45.5402 O.2       7 UNK        -0.5000 
     37 CA          2.3806  -17.4466  -43.6185 C.3       7 UNK         0.1400 
     38 CB          3.6236  -16.6560  -44.0405 C.3       7 UNK        -0.1800 
     39 N           1.8291  -16.8730  -42.3887 N.am      7 UNK        -0.5000 
     40 C           0.8464  -17.4349  -41.6680 C.2       6 UNK         0.5000 
     41 O           0.2371  -18.4412  -42.0352 O.2       6 UNK        -0.5000 
     42 CA          0.4520  -16.7560  -40.3378 C.3       6 UNK         0.1400 
     43 CB          0.0662  -17.7845  -39.2547 C.3       6 UNK        -0.1800 
     44 N           1.4408  -15.8012  -39.8193 N.am      6 UNK        -0.5000 
     45 C           2.7025  -16.0489  -39.4371 C.2       5 UNK         0.5000 
     46 O           3.2430  -17.1555  -39.4812 O.2       5 UNK        -0.5000 
     47 CA          3.5016  -14.8289  -38.9413 C.3       5 UNK         0.1400 
     48 CB          4.1295  -15.1000  -37.5642 C.3       5 UNK        -0.1800 
     49 N           4.5526  -14.4101  -39.8715 N.am      5 UNK        -0.5000 
     50 C           4.3777  -14.0581  -41.1519 C.2       4 UNK         0.5000 
     51 O           3.3011  -14.1393  -41.7526 O.2       4 UNK        -0.5000 
     52 CA          5.6143  -13.4951  -41.8755 C.3       4 UNK         0.1400 
     53 CB          6.2827  -14.5467  -42.7716 C.3       4 UNK        -0.1800 
     54 N           5.2017  -12.3651  -42.6977 N.am      4 UNK        -0.5000 
     55 C           5.1192  -11.1006  -42.2631 C.2       3 UNK         0.5000 
     56 O           5.5845  -10.7058  -41.1933 O.2       3 UNK        -0.5000 
     57 CA          4.3256  -10.1327  -43.1548 C.3       3 UNK         0.1400 
     58 CB          5.1737   -9.6482  -44.3402 C.3       3 UNK        -0.1800 
     59 N           3.1206  -10.7956  -43.6492 N.am      3 UNK        -0.5000 
     60 C           1.9812  -10.9199  -42.9554 C.2       2 UNK         0.5000 
     61 O           1.7775  -10.3456  -41.8846 O.2       2 UNK        -0.5000 
     62 CA          0.9016  -11.8732  -43.5151 C.3       2 UNK         0.1400 
     63 CB         -0.4992  -11.2279  -43.5315 C.3       2 UNK        -0.1800 
     64 N           1.2273  -12.4703  -44.8171 N.am      2 UNK        -0.5000 
     65 C           1.3261  -11.8606  -46.0075 C.2       1 UNK         0.5000 
     66 O           1.1403  -10.6570  -46.1923 O.2       1 UNK        -0.5000 
     67 C          -0.9643  -21.5483  -48.3552 C.2       11 UNK         0.5000 
     68 O          -1.0333  -22.4607  -49.1757 O.2       11 UNK        -0.5000 
     69 N          -2.0259  -20.8216  -47.9727 N.am      12 UNK        -0.5000 
     70 CA         -3.3846  -21.0470  -48.4716 C.3       12 UNK         0.1400 
     71 CB         -4.3238  -19.9386  -47.9768 C.3       12 UNK        -0.1800 
     72 C          -3.9354  -22.4342  -48.0973 C.2       12 UNK         0.5000 
     73 O          -4.5550  -23.0806  -48.9401 O.2       12 UNK        -0.5000 
     74 N          -3.6756  -22.8874  -46.8625 N.am      13 UNK        -0.5000 
     75 CA         -4.0206  -24.2286  -46.3896 C.3       13 UNK         0.1400 
     76 CB         -3.7281  -24.3472  -44.8865 C.3       13 UNK        -0.1800 
     77 C          -3.2993  -25.3336  -47.1821 C.2       13 UNK         0.5000 
     78 O          -3.9444  -26.2991  -47.5938 O.2       13 UNK        -0.5000 
     79 N          -1.9909  -25.1488  -47.4148 N.am      14 UNK        -0.5000 
     80 CA         -1.1583  -26.0338  -48.2317 C.3       14 UNK         0.1400 
     81 CB          0.3155  -25.6197  -48.1032 C.3       14 UNK        -0.1800 
     82 C          -1.5957  -26.0672  -49.7086 C.2       14 UNK         0.5000 
     83 O          -1.6617  -27.1460  -50.3003 O.2       14 UNK        -0.5000 
     84 N          -1.9354  -24.8976  -50.2653 N.am      15 UNK        -0.5000 
     85 CA         -2.4824  -24.7069  -51.6079 C.3       15 UNK         0.1400 
     86 CB         -2.2299  -23.2543  -52.0529 C.3       15 UNK        -0.1800 
     87 C          -3.9727  -25.0998  -51.6839 C.2       15 UNK         0.5000 
     88 O          -4.8172  -24.2714  -52.0205 O.2       15 UNK        -0.5000 
     89 N          -4.2667  -26.3685  -51.3674 N.am      16 UNK        -0.5000 
     90 CA         -5.5533  -27.0546  -51.5320 C.3       16 UNK         0.1400 
     91 CB         -5.7733  -27.3673  -53.0271 C.3       16 UNK        -0.1800 
     92 C          -6.7617  -26.3378  -50.8848 C.2       16 UNK         0.5000 
     93 O          -7.8646  -26.3889  -51.4318 O.2       16 UNK        -0.5000 
     94 N          -6.5277  -25.6928  -49.7313 N.am      17 UNK        -0.5000 
     95 CA         -7.4771  -24.8757  -48.9682 C.3       17 UNK         0.1400 
     96 CB         -8.6130  -25.7429  -48.3858 C.3       17 UNK        -0.1800 
     97 C          -7.9844  -23.6637  -49.7794 C.2       17 UNK         0.5000 
     98 O          -9.1789  -23.5526  -50.0628 O.2       17 UNK        -0.5000 
     99 N          -7.0403  -22.7793  -50.1249 N.am      18 UNK        -0.5000 
    100 CA        -7.1982  -21.5332  -50.8782 C.3       18 UNK         0.1400 
    101 CB        -8.0747  -20.5248  -50.1060 C.3       18 UNK        -0.1800 
    102 C         -7.6636  -21.7664  -52.3293 C.2       18 UNK         0.5000 
    103 O         -8.5730  -21.0888  -52.8126 O.2       18 UNK        -0.5000 
    104 N         -7.0061  -22.7130  -53.0019 N.am      19 UNK        -0.5000 
    105 CA        -7.1396  -23.0037  -54.4242 C.3       19 UNK         0.1400 
    106 CB        -8.0756  -24.2124  -54.6157 C.3       19 UNK        -0.1800 
    107 C         -5.7242  -23.2024  -54.9948 C.2       19 UNK         0.5000 
    108 O         -4.7829  -22.5972  -54.4783 O.2       19 UNK        -0.5000 
    109 N         -5.5797  -24.0245  -56.0454 N.am      20 UNK        -0.5000 
    110 CA        -4.3144  -24.3933  -56.6948 C.3       20 UNK         0.1400 
    111 CB        -3.5338  -25.3797  -55.7954 C.3       20 UNK        -0.1800 
    112 C         -3.4991  -23.1500  -57.1180 C.2       20 UNK         0.5000 
    113 O         -3.9395  -22.4178  -58.0061 O.2       20 UNK        -0.5000 
    114 N         -2.3695  -22.8979  -56.4408 N.am      21 UNK        -0.5000 
    115 CA        -1.5173  -21.7156  -56.5996 C.3       21 UNK         0.1400 
    116 CB        -0.2794  -21.8755  -55.7030 C.3       21 UNK        -0.1800 
    117 C         -2.2255  -20.3790  -56.2926 C.2       21 UNK         0.5000 
    118 O         -1.8395  -19.3520  -56.8524 O.2       21 UNK        -0.5000 
    119 N         -3.2482  -20.4161  -55.4307 N.am      22 UNK        -0.5000 
    120 CA        -4.1346  -19.2883  -55.1130 C.3       22 UNK         0.1400 
    121 C         -5.3798  -19.1986  -56.0459 C.2       22 UNK         0.5000 
    122 N         -5.5502  -20.0655  -57.0387 N.am      22 UNK        -0.7600 
    123 O         -6.2073  -18.3072  -55.8783 O.2       22 UNK        -0.5000 
    124 C124       -4.5538  -19.2886  -53.6160 C.3       23 UNK        -0.0398 
    125 S125       -3.1793  -19.3117  -52.4083 S.3       23 UNK        -0.2404 
    126 C126       -2.1062  -17.9739  -53.0223 C.3       23 UNK        -0.0205 
    127 H127        5.5652  -12.5720  -48.3703 H         1 UNK         0.0600 
    128 H128        6.2093  -13.5001  -47.0145 H         1 UNK         0.0600 
    129 H129        6.1042  -11.7407  -46.9091 H         1 UNK         0.0600 
    130 H130        3.3652  -12.4541  -48.4831 H         1 UNK         0.3000 
    131 H131        1.5879  -13.8000  -46.8903 H         1 UNK         0.0600 
    132 H132       -0.2070  -12.5026  -48.1475 H         1 UNK         0.0800 
    133 H133        1.0386  -11.4843  -48.8145 H         1 UNK         0.0800 
    134 H134       -1.2092  -14.2761  -49.7499 H         1 UNK         0.0800 
    135 H135       -0.3417  -15.0690  -48.4584 H         1 UNK         0.0800 
    136 H136       -2.0055  -15.7845  -51.3974 H         1 UNK         0.1150 
    137 H137        0.1734  -19.3348  -52.4132 H         1 UNK         0.1150 
    138 H138        1.6932  -16.6656  -49.4208 H         1 UNK         0.1150 
    139 H139        2.7524  -19.1660  -51.6710 H         1 UNK         0.0800 
    140 H140        3.0267  -18.5111  -50.0760 H         1 UNK         0.0800 
    141 H141        0.5235  -19.2265  -48.4457 H         1 UNK         0.0800 
    142 H142        2.0061  -19.8093  -47.7324 H         1 UNK         0.0800 
    143 H143        0.9969  -22.1659  -47.7967 H         1 UNK         0.0600 
    144 H144        0.4518  -20.1492  -45.8711 H         1 UNK         0.3000 
    145 H145       -0.8324  -22.4649  -43.4103 H         1 UNK         0.0600 
    146 H146        0.9656  -21.2991  -42.1594 H         1 UNK         0.0600 
    147 H147        1.6622  -22.4287  -43.3122 H         1 UNK         0.0600 
    148 H148        1.6644  -20.7044  -43.6633 H         1 UNK         0.0600 
    149 H149       -0.5849  -19.6558  -43.2741 H         1 UNK         0.3000 
    150 H150       -3.8418  -18.8093  -44.5269 H         1 UNK         0.0600 
    151 H151       -4.0498  -19.4250  -42.1170 H         1 UNK         0.0600 
    152 H152       -3.8446  -17.6916  -42.3132 H         1 UNK         0.0600 
    153 H153       -2.4914  -18.6854  -41.7748 H         1 UNK         0.0600 
    154 H154       -1.6399  -17.2365  -43.5996 H         1 UNK         0.3000 
    155 H155       -0.1918  -16.6069  -46.8063 H         1 UNK         0.0600 
    156 H156       -1.7140  -14.8924  -44.7576 H         1 UNK         0.0600 
    157 H157       -2.1483  -15.0564  -46.4540 H         1 UNK         0.0600 
    158 H158       -0.6318  -14.2979  -46.0123 H         1 UNK         0.0600 
    159 H159        0.5041  -15.7963  -44.1407 H         1 UNK         0.3000 
    160 H160        2.6917  -18.4694  -43.3970 H         1 UNK         0.0600 
    161 H161        4.3933  -16.7189  -43.2720 H         1 UNK         0.0600 
    162 H162        3.3956  -15.6028  -44.2107 H         1 UNK         0.0600 
    163 H163        4.0516  -17.0542  -44.9614 H         1 UNK         0.0600 
    164 H164        2.2752  -16.0340  -42.0351 H         1 UNK         0.3000 
    165 H165       -0.4403  -16.1700  -40.5620 H         1 UNK         0.0600 
    166 H166       -0.2304  -17.2909  -38.3293 H         1 UNK         0.0600 
    167 H167       -0.7765  -18.3976  -39.5766 H         1 UNK         0.0600 
    168 H168        0.8909  -18.4601  -39.0260 H         1 UNK         0.0600 
    169 H169        1.1225  -14.8427  -39.7794 H         1 UNK         0.3000 
    170 H170        2.8152  -13.9870  -38.8296 H         1 UNK         0.0600 
    171 H171        3.3716  -15.4115  -36.8441 H         1 UNK         0.0600 
    172 H172        4.8809  -15.8894  -37.6116 H         1 UNK         0.0600 
    173 H173        4.6072  -14.2054  -37.1643 H         1 UNK         0.0600 
    174 H174        5.4788  -14.3367  -39.4767 H         1 UNK         0.3000 
    175 H175        6.3440  -13.1689  -41.1312 H         1 UNK         0.0600 
    176 H176        5.6730  -14.7778  -43.6443 H         1 UNK         0.0600 
    177 H177        7.2462  -14.1890  -43.1347 H         1 UNK         0.0600 
    178 H178        6.4630  -15.4755  -42.2291 H         1 UNK         0.0600 
    179 H179        4.7544  -12.6046  -43.5768 H         1 UNK         0.3000 
    180 H180        4.0444   -9.2622  -42.5582 H         1 UNK         0.0600 
    181 H181        5.5254  -10.4781  -44.9522 H         1 UNK         0.0600 
    182 H182        6.0522   -9.1040  -43.9914 H         1 UNK         0.0600 
    183 H183        4.6059   -8.9745  -44.9822 H         1 UNK         0.0600 
    184 H184        3.2226  -11.3503  -44.4903 H         1 UNK         0.3000 
    185 H185        0.8643  -12.7089  -42.8145 H         1 UNK         0.0600 
    186 H186       -0.8063  -10.9360  -42.5266 H         1 UNK         0.0600 
    187 H187       -0.5276  -10.3315  -44.1512 H         1 UNK         0.0600 
    188 H188       -1.2493  -11.9228  -43.9093 H         1 UNK         0.0600 
    189 H189        1.5085  -13.4390  -44.7725 H         1 UNK         0.3000 
    190 H190       -1.9070  -20.0585  -47.3120 H         1 UNK         0.3000 
    191 H191       -3.3488  -20.9916  -49.5617 H         1 UNK         0.0600 
    192 H192       -4.3632  -19.9009  -46.8878 H         1 UNK         0.0600 
    193 H193       -5.3399  -20.0969  -48.3391 H         1 UNK         0.0600 
    194 H194       -4.0006  -18.9615  -48.3363 H         1 UNK         0.0600 
    195 H195       -3.2095  -22.2759  -46.1977 H         1 UNK         0.3000 
    196 H196       -5.0939  -24.3651  -46.5322 H         1 UNK         0.0600 
    197 H197       -3.9798  -25.3417  -44.5163 H         1 UNK         0.0600 
    198 H198       -4.3159  -23.6293  -44.3143 H         1 UNK         0.0600 
    199 H199       -2.6759  -24.1694  -44.6633 H         1 UNK         0.0600 
    200 H200       -1.5341  -24.3355  -47.0152 H         1 UNK         0.3000 
    201 H201       -1.2607  -27.0454  -47.8337 H         1 UNK         0.0600 
    202 H202        0.6464  -25.6582  -47.0652 H         1 UNK         0.0600 
    203 H203        0.4842  -24.6068  -48.4693 H         1 UNK         0.0600 
    204 H204        0.9599  -26.2875  -48.6762 H         1 UNK         0.0600 
    205 H205       -1.8082  -24.0479  -49.7195 H         1 UNK         0.3000 
    206 H206       -1.9426  -25.3585  -52.2977 H         1 UNK         0.0600 
    207 H207       -2.5562  -23.0952  -53.0805 H         1 UNK         0.0600 
    208 H208       -2.7686  -22.5432  -51.4257 H         1 UNK         0.0600 
    209 H209       -1.1702  -23.0030  -52.0073 H         1 UNK         0.0600 
    210 H210       -3.4966  -26.9441  -51.0406 H         1 UNK         0.3000 
    211 H211       -5.4599  -28.0063  -51.0075 H         1 UNK         0.0600 
    212 H212       -5.8459  -26.4557  -53.6199 H         1 UNK         0.0600 
    213 H213       -6.6870  -27.9411  -53.1861 H         1 UNK         0.0600 
    214 H214       -4.9501  -27.9577  -53.4290 H         1 UNK         0.0600 
    215 H215       -5.5764  -25.6888  -49.3861 H         1 UNK         0.3000 
    216 H216       -6.9200  -24.4690  -48.1236 H         1 UNK         0.0600 
    217 H217       -9.2601  -25.1493  -47.7392 H         1 UNK         0.0600 
    218 H218       -8.2148  -26.5602  -47.7846 H         1 UNK         0.0600 
    219 H219       -9.2414  -26.1751  -49.1649 H         1 UNK         0.0600 
    220 H220       -6.0820  -22.9920  -49.8466 H         1 UNK         0.3000 
    221 H221       -6.1977  -21.1033  -50.9503 H         1 UNK         0.0600 
    222 H222       -9.1126  -20.8526  -50.0434 H         1 UNK         0.0600 
    223 H223       -7.7082  -20.3784  -49.0902 H         1 UNK         0.0600 
    224 H224       -8.0696  -19.5507  -50.5962 H         1 UNK         0.0600 
    225 H225       -6.2272  -23.1934  -52.5494 H         1 UNK         0.3000 
    226 H226       -7.5635  -22.1418  -54.9432 H         1 UNK         0.0600 
    227 H227       -8.2622  -24.4144  -55.6706 H         1 UNK         0.0600 
    228 H228       -7.6641  -25.1156  -54.1659 H         1 UNK         0.0600 
    229 H229       -9.0448  -24.0294  -54.1513 H         1 UNK         0.0600 
    230 H230       -6.4085  -24.4492  -56.4355 H         1 UNK         0.3000 
    231 H231       -4.5727  -24.9174  -57.6161 H         1 UNK         0.0600 
    232 H232       -4.1170  -26.2830  -55.6166 H         1 UNK         0.0600 
    233 H233       -3.2935  -24.9513  -54.8219 H         1 UNK         0.0600 
    234 H234       -2.6005  -25.6916  -56.2660 H         1 UNK         0.0600 
    235 H235       -2.1119  -23.5357  -55.7029 H         1 UNK         0.3000 
    236 H236       -1.1888  -21.6814  -57.6402 H         1 UNK         0.0600 
    237 H237        0.3980  -21.0281  -55.8169 H         1 UNK         0.0600 
    238 H238       -0.5529  -21.9363  -54.6485 H         1 UNK         0.0600 
    239 H239        0.2814  -22.7748  -55.9584 H         1 UNK         0.0600 
    240 H240       -3.5388  -21.3094  -55.0395 H         1 UNK         0.3000 
    241 H241       -3.5940  -18.3600  -55.2994 H         1 UNK         0.0600 
    242 H242       -4.8717  -20.7940  -57.2294 H         1 UNK         0.3800 
    243 H243       -6.3562  -19.9723  -57.6360 H         1 UNK         0.3800 
    244 H244       -5.1627  -18.4107  -53.3941 H         1 UNK         0.0800 
    245 H245       -5.1873  -20.1515  -53.4073 H         1 UNK         0.0800 
    246 H246       -1.6259  -18.2881  -53.9499 H         1 UNK         0.0800 
    247 H247       -2.7159  -17.1021  -53.2646 H         1 UNK         0.0800 
@<TRIPOS>BOND
     1    1    2 1    
     2    1  127 1    
     3    1  128 1    
     4    1  129 1    
     5    2    3 2    
     6    2    4 am   BACKBONE|DICT|INTERRES
     7    4    5 1    
     8    4  130 1    
     9    5    6 1    
    10    5   65 1    
    11    5  131 1    
    12    6    7 1    
    13    6  132 1    
    14    6  133 1    
    15    7    8 1    
    16    8    9 1    
    17    8  134 1    
    18    8  135 1    
    19    9   10 ar   
    20    9   14 ar   
    21   10   11 ar   
    22   10  136 1    
    23   11   12 ar   
    24   11  126 1    
    25   12   13 ar   
    26   12  137 1    
    27   13   14 ar   
    28   13   15 1    
    29   14  138 1    
    30   15   16 1    
    31   15  139 1    
    32   15  140 1    
    33   16   17 1    
    34   17   18 1    
    35   17  141 1    
    36   17  142 1    
    37   18   19 1    
    38   18   67 1    
    39   18  143 1    
    40   19   20 am   BACKBONE|DICT|INTERRES
    41   19  144 1    
    42   20   21 2    
    43   20   22 1    
    44   22   23 1    
    45   22   24 1    
    46   22  145 1    
    47   23  146 1    
    48   23  147 1    
    49   23  148 1    
    50   24   25 am   BACKBONE|DICT|INTERRES
    51   24  149 1    
    52   25   26 2    
    53   25   27 1    
    54   27   28 1    
    55   27   29 1    
    56   27  150 1    
    57   28  151 1    
    58   28  152 1    
    59   28  153 1    
    60   29   30 am   BACKBONE|DICT|INTERRES
    61   29  154 1    
    62   30   31 2    
    63   30   32 1    
    64   32   33 1    
    65   32   34 1    
    66   32  155 1    
    67   33  156 1    
    68   33  157 1    
    69   33  158 1    
    70   34   35 am   BACKBONE|DICT|INTERRES
    71   34  159 1    
    72   35   36 2    
    73   35   37 1    
    74   37   38 1    
    75   37   39 1    
    76   37  160 1    
    77   38  161 1    
    78   38  162 1    
    79   38  163 1    
    80   39   40 am   BACKBONE|DICT|INTERRES
    81   39  164 1    
    82   40   41 2    
    83   40   42 1    
    84   42   43 1    
    85   42   44 1    
    86   42  165 1    
    87   43  166 1    
    88   43  167 1    
    89   43  168 1    
    90   44   45 am   BACKBONE|DICT|INTERRES
    91   44  169 1    
    92   45   46 2    
    93   45   47 1    
    94   47   48 1    
    95   47   49 1    
    96   47  170 1    
    97   48  171 1    
    98   48  172 1    
    99   48  173 1    
   100   49   50 am   BACKBONE|DICT|INTERRES
   101   49  174 1    
   102   50   51 2    
   103   50   52 1    
   104   52   53 1    
   105   52   54 1    
   106   52  175 1    
   107   53  176 1    
   108   53  177 1    
   109   53  178 1    
   110   54   55 am   BACKBONE|DICT|INTERRES
   111   54  179 1    
   112   55   56 2    
   113   55   57 1    
   114   57   58 1    
   115   57   59 1    
   116   57  180 1    
   117   58  181 1    
   118   58  182 1    
   119   58  183 1    
   120   59   60 am   BACKBONE|DICT|INTERRES
   121   59  184 1    
   122   60   61 2    
   123   60   62 1    
   124   62   63 1    
   125   62   64 1    
   126   62  185 1    
   127   63  186 1    
   128   63  187 1    
   129   63  188 1    
   130   64   65 am   BACKBONE|DICT|INTERRES
   131   64  189 1    
   132   65   66 2    
   133   67   68 2    
   134   67   69 am   BACKBONE|DICT|INTERRES
   135   69   70 1    
   136   69  190 1    
   137   70   71 1    
   138   70   72 1    
   139   70  191 1    
   140   71  192 1    
   141   71  193 1    
   142   71  194 1    
   143   72   73 2    
   144   72   74 am   BACKBONE|DICT|INTERRES
   145   74   75 1    
   146   74  195 1    
   147   75   76 1    
   148   75   77 1    
   149   75  196 1    
   150   76  197 1    
   151   76  198 1    
   152   76  199 1    
   153   77   78 2    
   154   77   79 am   BACKBONE|DICT|INTERRES
   155   79   80 1    
   156   79  200 1    
   157   80   81 1    
   158   80   82 1    
   159   80  201 1    
   160   81  202 1    
   161   81  203 1    
   162   81  204 1    
   163   82   83 2    
   164   82   84 am   BACKBONE|DICT|INTERRES
   165   84   85 1    
   166   84  205 1    
   167   85   86 1    
   168   85   87 1    
   169   85  206 1    
   170   86  207 1    
   171   86  208 1    
   172   86  209 1    
   173   87   88 2    
   174   87   89 am   BACKBONE|DICT|INTERRES
   175   89   90 1    
   176   89  210 1    
   177   90   91 1    
   178   90   92 1    
   179   90  211 1    
   180   91  212 1    
   181   91  213 1    
   182   91  214 1    
   183   92   93 2    
   184   92   94 am   BACKBONE|DICT|INTERRES
   185   94   95 1    
   186   94  215 1    
   187   95   96 1    
   188   95   97 1    
   189   95  216 1    
   190   96  217 1    
   191   96  218 1    
   192   96  219 1    
   193   97   98 2    
   194   97   99 am   BACKBONE|DICT|INTERRES
   195   99  100 1    
   196   99  220 1    
   197  100  101 1    
   198  100  102 1    
   199  100  221 1    
   200  101  222 1    
   201  101  223 1    
   202  101  224 1    
   203  102  103 2    
   204  102  104 am   BACKBONE|DICT|INTERRES
   205  104  105 1    
   206  104  225 1    
   207  105  106 1    
   208  105  107 1    
   209  105  226 1    
   210  106  227 1    
   211  106  228 1    
   212  106  229 1    
   213  107  108 2    
   214  107  109 am   BACKBONE|DICT|INTERRES
   215  109  110 1    
   216  109  230 1    
   217  110  111 1    
   218  110  112 1    
   219  110  231 1    
   220  111  232 1    
   221  111  233 1    
   222  111  234 1    
   223  112  113 2    
   224  112  114 am   BACKBONE|DICT|INTERRES
   225  114  115 1    
   226  114  235 1    
   227  115  116 1    
   228  115  117 1    
   229  115  236 1    
   230  116  237 1    
   231  116  238 1    
   232  116  239 1    
   233  117  118 2    
   234  117  119 am   BACKBONE|DICT|INTERRES
   235  119  120 1    
   236  119  240 1    
   237  120  121 1    
   238  120  124 1    
   239  120  241 1    
   240  121  122 am   BACKBONE|DICT|INTERRES
   241  121  123 2    
   242  122  242 1    
   243  122  243 1    
   244  124  125 1    
   245  124  244 1    
   246  124  245 1    
   247  125  126 1    
   248  126  246 1    
   249  126  247 1    
@<TRIPOS>SUBSTRUCTURE
     1 UNK         1 GROUP             0       ****    0 ROOT    
