@<TRIPOS>MOLECULE
3R540
247   249    1
SMALL
USER_CHARGES


@<TRIPOS>ATOM
      1 CA          4.0302  -14.9945  -44.5238 C.3       0 UNK        -0.1800 
      2 C           4.8611  -15.0245  -45.8042 C.2       0 UNK         0.5000 
      3 O           5.9639  -15.5668  -45.7971 O.2       0 UNK        -0.5000 
      4 N           4.3852  -14.4605  -46.9231 N.am      1 UNK        -0.5000 
      5 CA          3.1053  -13.7530  -47.0727 C.3       1 UNK         0.1400 
      6 C6          2.5752  -13.8245  -48.5255 C.3       23 UNK        -0.0398 
      7 S7          1.9635  -15.4931  -48.9210 S.3       23 UNK        -0.2404 
      8 C8          3.1100  -16.0438  -50.2173 C.3       23 UNK        -0.0205 
      9 C9          2.7144  -17.4363  -50.6758 C.ar      23 UNK        -0.0193 
     10 C10         1.7347  -17.5999  -51.6584 C.ar      23 UNK        -0.1150 
     11 C11         1.2919  -18.8769  -52.0134 C.ar      23 UNK        -0.0193 
     12 C12         1.8437  -19.9952  -51.3812 C.ar      23 UNK        -0.1150 
     13 C13         2.8398  -19.8469  -50.4102 C.ar      23 UNK        -0.0193 
     14 C14         3.2823  -18.5622  -50.0752 C.ar      23 UNK        -0.1150 
     15 C15         3.4263  -21.0860  -49.7400 C.3       23 UNK        -0.0205 
     16 S16         3.6974  -20.9323  -47.9384 S.3       23 UNK        -0.2404 
     17 C17         2.1001  -20.3139  -47.3035 C.3       23 UNK        -0.0398 
     18 CA          1.0712  -21.4382  -47.0219 C.3       11 UNK         0.1400 
     19 N           0.2806  -21.1766  -45.8131 N.am      11 UNK        -0.5000 
     20 C          -0.5652  -22.0501  -45.2474 C.2       10 UNK         0.5000 
     21 O          -0.7534  -23.1886  -45.6709 O.2       10 UNK        -0.5000 
     22 CA         -1.3828  -21.5570  -44.0405 C.3       10 UNK         0.1400 
     23 CB         -0.5352  -21.5548  -42.7600 C.3       10 UNK        -0.1800 
     24 N          -1.9616  -20.2325  -44.2646 N.am      10 UNK        -0.5000 
     25 C          -2.8720  -19.9622  -45.2114 C.2       9 UNK         0.5000 
     26 O          -3.3591  -20.8159  -45.9532 O.2       9 UNK        -0.5000 
     27 CA         -3.2765  -18.4876  -45.3894 C.3       9 UNK         0.1400 
     28 CB         -4.3556  -18.0921  -44.3711 C.3       9 UNK        -0.1800 
     29 N          -2.1445  -17.5667  -45.2837 N.am      9 UNK        -0.5000 
     30 C          -1.0846  -17.5541  -46.1060 C.2       8 UNK         0.5000 
     31 O          -0.9464  -18.3146  -47.0633 O.2       8 UNK        -0.5000 
     32 CA          0.0394  -16.5632  -45.7540 C.3       8 UNK         0.1400 
     33 CB         -0.3909  -15.1203  -46.0719 C.3       8 UNK        -0.1800 
     34 N           0.4365  -16.6672  -44.3485 N.am      8 UNK        -0.5000 
     35 C           0.9059  -17.7802  -43.7641 C.2       7 UNK         0.5000 
     36 O           1.1232  -18.8304  -44.3657 O.2       7 UNK        -0.5000 
     37 CA          1.1125  -17.7344  -42.2414 C.3       7 UNK         0.1400 
     38 CB          2.4966  -17.1746  -41.8862 C.3       7 UNK        -0.1800 
     39 N           0.0704  -16.9536  -41.5760 N.am      7 UNK        -0.5000 
     40 C          -1.2051  -17.3502  -41.4582 C.2       6 UNK         0.5000 
     41 O          -1.6223  -18.4385  -41.8547 O.2       6 UNK        -0.5000 
     42 CA         -2.1843  -16.3378  -40.8363 C.3       6 UNK         0.1400 
     43 CB         -2.0944  -16.3642  -39.3032 C.3       6 UNK        -0.1800 
     44 N          -1.9502  -14.9741  -41.3154 N.am      6 UNK        -0.5000 
     45 C          -2.1513  -14.5760  -42.5797 C.2       5 UNK         0.5000 
     46 O          -2.6150  -15.3067  -43.4548 O.2       5 UNK        -0.5000 
     47 CA         -1.7256  -13.1377  -42.9375 C.3       5 UNK         0.1400 
     48 CB         -2.8957  -12.1644  -42.7353 C.3       5 UNK        -0.1800 
     49 N          -0.5632  -12.6574  -42.1837 N.am      5 UNK        -0.5000 
     50 C           0.6561  -13.2100  -42.2099 C.2       4 UNK         0.5000 
     51 O           0.9393  -14.1991  -42.8876 O.2       4 UNK        -0.5000 
     52 CA          1.7249  -12.5418  -41.3263 C.3       4 UNK         0.1400 
     53 CB          2.8575  -13.5081  -40.9409 C.3       4 UNK        -0.1800 
     54 N           2.3064  -11.3792  -41.9888 N.am      4 UNK        -0.5000 
     55 C           1.7443  -10.1711  -42.0893 C.2       3 UNK         0.5000 
     56 O           0.6289   -9.9050  -41.6384 O.2       3 UNK        -0.5000 
     57 CA          2.5605   -9.0644  -42.7895 C.3       3 UNK         0.1400 
     58 CB          3.6052   -8.4646  -41.8290 C.3       3 UNK        -0.1800 
     59 N           3.1761   -9.4373  -44.0725 N.am      3 UNK        -0.5000 
     60 C           4.1354  -10.3376  -44.3283 C.2       2 UNK         0.5000 
     61 O           4.6430  -11.0768  -43.4818 O.2       2 UNK        -0.5000 
     62 CA          4.6081  -10.4312  -45.7908 C.3       2 UNK         0.1400 
     63 CB          6.1017  -10.0890  -45.9090 C.3       2 UNK        -0.1800 
     64 N           4.3780  -11.7680  -46.3338 N.am      2 UNK        -0.5000 
     65 C           3.1692  -12.2903  -46.5822 C.2       1 UNK         0.5000 
     66 O           2.1196  -11.6641  -46.4315 O.2       1 UNK        -0.5000 
     67 C           0.1733  -21.6929  -48.2514 C.2       11 UNK         0.5000 
     68 O           0.4249  -22.6278  -49.0116 O.2       11 UNK        -0.5000 
     69 N          -0.8832  -20.8811  -48.3938 N.am      12 UNK        -0.5000 
     70 CA         -1.8948  -20.9951  -49.4416 C.3       12 UNK         0.1400 
     71 CB         -2.8484  -19.7965  -49.3425 C.3       12 UNK        -0.1800 
     72 C          -2.6698  -22.3257  -49.3903 C.2       12 UNK         0.5000 
     73 O          -2.9378  -22.9060  -50.4401 O.2       12 UNK        -0.5000 
     74 N          -2.9902  -22.8011  -48.1786 N.am      13 UNK        -0.5000 
     75 CA         -3.6054  -24.1086  -47.9444 C.3       13 UNK         0.1400 
     76 CB         -4.1851  -24.1494  -46.5228 C.3       13 UNK        -0.1800 
     77 C          -2.6186  -25.2722  -48.1681 C.2       13 UNK         0.5000 
     78 O          -2.9927  -26.2860  -48.7609 O.2       13 UNK        -0.5000 
     79 N          -1.3635  -25.0980  -47.7249 N.am      14 UNK        -0.5000 
     80 CA         -0.2656  -26.0666  -47.8471 C.3       14 UNK         0.1400 
     81 CB          0.9388  -25.5894  -47.0213 C.3       14 UNK        -0.1800 
     82 C           0.1618  -26.3777  -49.2962 C.2       14 UNK         0.5000 
     83 O           0.8663  -27.3635  -49.5170 O.2       14 UNK        -0.5000 
     84 N          -0.3042  -25.5739  -50.2616 N.am      15 UNK        -0.5000 
     85 CA         -0.2009  -25.8199  -51.7008 C.3       15 UNK         0.1400 
     86 CB         -0.6252  -24.5447  -52.4457 C.3       15 UNK        -0.1800 
     87 C          -1.0260  -27.0342  -52.1901 C.2       15 UNK         0.5000 
     88 O          -0.8628  -27.4327  -53.3439 O.2       15 UNK        -0.5000 
     89 N          -1.8843  -27.5951  -51.3204 N.am      16 UNK        -0.5000 
     90 CA         -2.7736  -28.7402  -51.5476 C.3       16 UNK         0.1400 
     91 CB         -1.9801  -30.0180  -51.8941 C.3       16 UNK        -0.1800 
     92 C          -3.8852  -28.4070  -52.5603 C.2       16 UNK         0.5000 
     93 O          -4.1830  -29.1949  -53.4602 O.2       16 UNK        -0.5000 
     94 N          -4.4749  -27.2241  -52.3781 N.am      17 UNK        -0.5000 
     95 CA         -5.5610  -26.6542  -53.1614 C.3       17 UNK         0.1400 
     96 CB         -4.9936  -26.0265  -54.4490 C.3       17 UNK        -0.1800 
     97 C          -6.2882  -25.6264  -52.2790 C.2       17 UNK         0.5000 
     98 O          -5.9055  -25.4318  -51.1206 O.2       17 UNK        -0.5000 
     99 N          -7.3299  -24.9909  -52.8300 N.am      18 UNK        -0.5000 
    100 CA        -8.0869  -23.9258  -52.1729 C.3       18 UNK         0.1400 
    101 CB        -9.2762  -23.5266  -53.0602 C.3       18 UNK        -0.1800 
    102 C         -7.1992  -22.7022  -51.8883 C.2       18 UNK         0.5000 
    103 O         -6.5350  -22.2094  -52.8043 O.2       18 UNK        -0.5000 
    104 N         -7.2216  -22.2184  -50.6398 N.am      19 UNK        -0.5000 
    105 CA        -6.4141  -21.0848  -50.1826 C.3       19 UNK         0.1400 
    106 CB        -6.4947  -20.9775  -48.6527 C.3       19 UNK        -0.1800 
    107 C         -6.7968  -19.7515  -50.8532 C.2       19 UNK         0.5000 
    108 O         -5.9331  -18.8939  -51.0268 O.2       19 UNK        -0.5000 
    109 N         -8.0624  -19.6245  -51.2776 N.am      20 UNK        -0.5000 
    110 CA        -8.5755  -18.4944  -52.0573 C.3       20 UNK         0.1400 
    111 CB       -10.1058  -18.5993  -52.1410 C.3       20 UNK        -0.1800 
    112 C         -7.9634  -18.4004  -53.4708 C.2       20 UNK         0.5000 
    113 O         -7.8473  -17.2985  -54.0079 O.2       20 UNK        -0.5000 
    114 N         -7.5682  -19.5499  -54.0348 N.am      21 UNK        -0.5000 
    115 CA        -6.8611  -19.6626  -55.3125 C.3       21 UNK         0.1400 
    116 CB        -7.3709  -20.9202  -56.0364 C.3       21 UNK        -0.1800 
    117 C         -5.3311  -19.7334  -55.1256 C.2       21 UNK         0.5000 
    118 O         -4.6007  -19.7184  -56.1171 O.2       21 UNK        -0.5000 
    119 N         -4.8760  -19.8265  -53.8692 N.am      22 UNK        -0.5000 
    120 CA        -3.4920  -20.0953  -53.4558 C.3       22 UNK         0.1400 
    121 C         -2.9862  -21.5149  -53.8553 C.2       22 UNK         0.5000 
    122 N         -3.8589  -22.5139  -53.9042 N.am      22 UNK        -0.7600 
    123 O         -1.8073  -21.7230  -54.1253 O.2       22 UNK        -0.5000 
    124 C124       -2.5186  -18.9340  -53.8152 C.3       23 UNK        -0.0398 
    125 S125       -1.4099  -18.5198  -52.4270 S.3       23 UNK        -0.2404 
    126 C126        0.2087  -19.0419  -53.0683 C.3       23 UNK        -0.0205 
    127 H127        4.5949  -15.4149  -43.6916 H         1 UNK         0.0600 
    128 H128        3.1223  -15.5847  -44.6431 H         1 UNK         0.0600 
    129 H129        3.7533  -13.9758  -44.2535 H         1 UNK         0.0600 
    130 H130        4.9503  -14.5074  -47.7585 H         1 UNK         0.3000 
    131 H131        2.3697  -14.2422  -46.4365 H         1 UNK         0.0600 
    132 H132        1.7319  -13.1462  -48.6700 H         1 UNK         0.0800 
    133 H133        3.3392  -13.5147  -49.2402 H         1 UNK         0.0800 
    134 H134        4.1313  -16.0416  -49.8336 H         1 UNK         0.0800 
    135 H135        3.0832  -15.3477  -51.0571 H         1 UNK         0.0800 
    136 H136        1.2888  -16.7312  -52.1224 H         1 UNK         0.1150 
    137 H137        1.4931  -20.9839  -51.6435 H         1 UNK         0.1150 
    138 H138        4.0422  -18.4346  -49.3172 H         1 UNK         0.1150 
    139 H139        2.7927  -21.9548  -49.9207 H         1 UNK         0.0800 
    140 H140        4.3830  -21.3097  -50.2132 H         1 UNK         0.0800 
    141 H141        1.6931  -19.5297  -47.9442 H         1 UNK         0.0800 
    142 H142        2.3538  -19.8053  -46.3743 H         1 UNK         0.0800 
    143 H143        1.6181  -22.3614  -46.8223 H         1 UNK         0.0600 
    144 H144        0.4009  -20.2639  -45.3807 H         1 UNK         0.3000 
    145 H145       -2.2086  -22.2563  -43.8933 H         1 UNK         0.0600 
    146 H146       -1.1264  -21.2513  -41.8959 H         1 UNK         0.0600 
    147 H147       -0.1432  -22.5512  -42.5526 H         1 UNK         0.0600 
    148 H148        0.3157  -20.8793  -42.8377 H         1 UNK         0.0600 
    149 H149       -1.6466  -19.4843  -43.6570 H         1 UNK         0.3000 
    150 H150       -3.6983  -18.3783  -46.3903 H         1 UNK         0.0600 
    151 H151       -5.2207  -18.7527  -44.4415 H         1 UNK         0.0600 
    152 H152       -4.7071  -17.0750  -44.5453 H         1 UNK         0.0600 
    153 H153       -3.9824  -18.1449  -43.3478 H         1 UNK         0.0600 
    154 H154       -2.1880  -16.8803  -44.5357 H         1 UNK         0.3000 
    155 H155        0.9160  -16.8067  -46.3575 H         1 UNK         0.0600 
    156 H156       -1.3857  -14.8944  -45.6918 H         1 UNK         0.0600 
    157 H157        0.2918  -14.3873  -45.6450 H         1 UNK         0.0600 
    158 H158       -0.4218  -14.9567  -47.1491 H         1 UNK         0.0600 
    159 H159        0.3540  -15.8269  -43.7843 H         1 UNK         0.3000 
    160 H160        1.0611  -18.7586  -41.8666 H         1 UNK         0.0600 
    161 H161        2.6165  -16.1494  -42.2313 H         1 UNK         0.0600 
    162 H162        3.2865  -17.7685  -42.3477 H         1 UNK         0.0600 
    163 H163        2.6646  -17.1888  -40.8094 H         1 UNK         0.0600 
    164 H164        0.3207  -16.0221  -41.2803 H         1 UNK         0.3000 
    165 H165       -3.1958  -16.6322  -41.1245 H         1 UNK         0.0600 
    166 H166       -2.8367  -15.7044  -38.8538 H         1 UNK         0.0600 
    167 H167       -2.2791  -17.3686  -38.9196 H         1 UNK         0.0600 
    168 H168       -1.1105  -16.0534  -38.9496 H         1 UNK         0.0600 
    169 H169       -1.5762  -14.3102  -40.6538 H         1 UNK         0.3000 
    170 H170       -1.4560  -13.1286  -43.9950 H         1 UNK         0.0600 
    171 H171       -3.7698  -12.4801  -43.3067 H         1 UNK         0.0600 
    172 H172       -3.1922  -12.1033  -41.6874 H         1 UNK         0.0600 
    173 H173       -2.6355  -11.1601  -43.0701 H         1 UNK         0.0600 
    174 H174       -0.6862  -11.8046  -41.6527 H         1 UNK         0.3000 
    175 H175        1.2423  -12.2181  -40.4017 H         1 UNK         0.0600 
    176 H176        3.4249  -13.8357  -41.8119 H         1 UNK         0.0600 
    177 H177        3.5561  -13.0365  -40.2496 H         1 UNK         0.0600 
    178 H178        2.4632  -14.3962  -40.4462 H         1 UNK         0.0600 
    179 H179        3.2195  -11.5016  -42.4210 H         1 UNK         0.3000 
    180 H180        1.8522   -8.2698  -43.0299 H         1 UNK         0.0600 
    181 H181        4.3588   -9.1962  -41.5361 H         1 UNK         0.0600 
    182 H182        3.1314   -8.1032  -40.9154 H         1 UNK         0.0600 
    183 H183        4.1191   -7.6181  -42.2844 H         1 UNK         0.0600 
    184 H184        2.8027   -8.9342  -44.8658 H         1 UNK         0.3000 
    185 H185        4.0492   -9.7142  -46.3962 H         1 UNK         0.0600 
    186 H186        6.3047   -9.0912  -45.5179 H         1 UNK         0.0600 
    187 H187        6.7229  -10.7922  -45.3526 H         1 UNK         0.0600 
    188 H188        6.4286  -10.1027  -46.9489 H         1 UNK         0.0600 
    189 H189        5.1902  -12.3558  -46.4523 H         1 UNK         0.3000 
    190 H190       -0.9872  -20.0986  -47.7526 H         1 UNK         0.3000 
    191 H191       -1.3800  -20.9464  -50.4035 H         1 UNK         0.0600 
    192 H192       -3.3952  -19.7898  -48.4010 H         1 UNK         0.0600 
    193 H193       -3.5818  -19.8104  -50.1444 H         1 UNK         0.0600 
    194 H194       -2.3068  -18.8538  -49.4213 H         1 UNK         0.0600 
    195 H195       -2.7888  -22.2348  -47.3612 H         1 UNK         0.3000 
    196 H196       -4.4305  -24.2311  -48.6500 H         1 UNK         0.0600 
    197 H197       -4.6725  -25.1052  -46.3270 H         1 UNK         0.0600 
    198 H198       -4.9309  -23.3673  -46.3795 H         1 UNK         0.0600 
    199 H199       -3.4110  -24.0126  -45.7670 H         1 UNK         0.0600 
    200 H200       -1.1496  -24.2530  -47.2016 H         1 UNK         0.3000 
    201 H201       -0.6157  -27.0060  -47.4151 H         1 UNK         0.0600 
    202 H202        0.6733  -25.4571  -45.9726 H         1 UNK         0.0600 
    203 H203        1.3297  -24.6437  -47.3945 H         1 UNK         0.0600 
    204 H204        1.7520  -26.3153  -47.0574 H         1 UNK         0.0600 
    205 H205       -0.8367  -24.7616  -49.9806 H         1 UNK         0.3000 
    206 H206        0.8468  -26.0208  -51.9325 H         1 UNK         0.0600 
    207 H207       -0.0617  -23.6755  -52.1049 H         1 UNK         0.0600 
    208 H208       -0.4549  -24.6414  -53.5186 H         1 UNK         0.0600 
    209 H209       -1.6852  -24.3321  -52.3041 H         1 UNK         0.0600 
    210 H210       -1.9837  -27.1527  -50.4133 H         1 UNK         0.3000 
    211 H211       -3.2766  -28.9211  -50.5965 H         1 UNK         0.0600 
    212 H212       -1.5039  -29.9526  -52.8725 H         1 UNK         0.0600 
    213 H213       -2.6364  -30.8887  -51.9112 H         1 UNK         0.0600 
    214 H214       -1.2032  -30.2117  -51.1544 H         1 UNK         0.0600 
    215 H215       -4.2223  -26.6633  -51.5724 H         1 UNK         0.3000 
    216 H216       -6.2756  -27.4390  -53.4173 H         1 UNK         0.0600 
    217 H217       -5.7725  -25.5504  -55.0451 H         1 UNK         0.0600 
    218 H218       -4.5250  -26.7818  -55.0801 H         1 UNK         0.0600 
    219 H219       -4.2397  -25.2736  -54.2231 H         1 UNK         0.0600 
    220 H220       -7.5745  -25.1883  -53.7890 H         1 UNK         0.3000 
    221 H221       -8.4736  -24.3169  -51.2296 H         1 UNK         0.0600 
    222 H222       -8.9483  -23.1514  -54.0307 H         1 UNK         0.0600 
    223 H223       -9.9396  -24.3738  -53.2353 H         1 UNK         0.0600 
    224 H224       -9.8702  -22.7422  -52.5894 H         1 UNK         0.0600 
    225 H225       -7.7879  -22.6798  -49.9426 H         1 UNK         0.3000 
    226 H226       -5.3784  -21.2972  -50.4530 H         1 UNK         0.0600 
    227 H227       -6.1161  -21.8813  -48.1748 H         1 UNK         0.0600 
    228 H228       -5.8933  -20.1449  -48.2855 H         1 UNK         0.0600 
    229 H229       -7.5186  -20.8182  -48.3127 H         1 UNK         0.0600 
    230 H230       -8.7087  -20.3762  -51.0876 H         1 UNK         0.3000 
    231 H231       -8.3226  -17.5742  -51.5262 H         1 UNK         0.0600 
    232 H232      -10.5251  -17.7584  -52.6951 H         1 UNK         0.0600 
    233 H233      -10.5572  -18.5900  -51.1487 H         1 UNK         0.0600 
    234 H234      -10.4199  -19.5141  -52.6455 H         1 UNK         0.0600 
    235 H235       -7.6698  -20.4107  -53.5133 H         1 UNK         0.3000 
    236 H236       -7.0780  -18.7958  -55.9399 H         1 UNK         0.0600 
    237 H237       -8.4498  -20.8793  -56.1866 H         1 UNK         0.0600 
    238 H238       -6.9103  -21.0196  -57.0200 H         1 UNK         0.0600 
    239 H239       -7.1440  -21.8279  -55.4759 H         1 UNK         0.0600 
    240 H240       -5.5535  -19.8102  -53.1208 H         1 UNK         0.3000 
    241 H241       -3.5628  -20.1471  -52.3711 H         1 UNK         0.0600 
    242 H242       -4.8266  -22.3722  -53.6273 H         1 UNK         0.3800 
    243 H243       -3.5343  -23.4287  -54.1634 H         1 UNK         0.3800 
    244 H244       -1.9499  -19.1448  -54.7224 H         1 UNK         0.0800 
    245 H245       -3.0798  -18.0245  -54.0335 H         1 UNK         0.0800 
    246 H246        0.1529  -20.0802  -53.3973 H         1 UNK         0.0800 
    247 H247        0.4613  -18.4481  -53.9480 H         1 UNK         0.0800 
@<TRIPOS>BOND
     1    1    2 1    
     2    1  127 1    
     3    1  128 1    
     4    1  129 1    
     5    2    3 2    
     6    2    4 am   BACKBONE|DICT|INTERRES
     7    4    5 1    
     8    4  130 1    
     9    5    6 1    
    10    5   65 1    
    11    5  131 1    
    12    6    7 1    
    13    6  132 1    
    14    6  133 1    
    15    7    8 1    
    16    8    9 1    
    17    8  134 1    
    18    8  135 1    
    19    9   10 ar   
    20    9   14 ar   
    21   10   11 ar   
    22   10  136 1    
    23   11   12 ar   
    24   11  126 1    
    25   12   13 ar   
    26   12  137 1    
    27   13   14 ar   
    28   13   15 1    
    29   14  138 1    
    30   15   16 1    
    31   15  139 1    
    32   15  140 1    
    33   16   17 1    
    34   17   18 1    
    35   17  141 1    
    36   17  142 1    
    37   18   19 1    
    38   18   67 1    
    39   18  143 1    
    40   19   20 am   BACKBONE|DICT|INTERRES
    41   19  144 1    
    42   20   21 2    
    43   20   22 1    
    44   22   23 1    
    45   22   24 1    
    46   22  145 1    
    47   23  146 1    
    48   23  147 1    
    49   23  148 1    
    50   24   25 am   BACKBONE|DICT|INTERRES
    51   24  149 1    
    52   25   26 2    
    53   25   27 1    
    54   27   28 1    
    55   27   29 1    
    56   27  150 1    
    57   28  151 1    
    58   28  152 1    
    59   28  153 1    
    60   29   30 am   BACKBONE|DICT|INTERRES
    61   29  154 1    
    62   30   31 2    
    63   30   32 1    
    64   32   33 1    
    65   32   34 1    
    66   32  155 1    
    67   33  156 1    
    68   33  157 1    
    69   33  158 1    
    70   34   35 am   BACKBONE|DICT|INTERRES
    71   34  159 1    
    72   35   36 2    
    73   35   37 1    
    74   37   38 1    
    75   37   39 1    
    76   37  160 1    
    77   38  161 1    
    78   38  162 1    
    79   38  163 1    
    80   39   40 am   BACKBONE|DICT|INTERRES
    81   39  164 1    
    82   40   41 2    
    83   40   42 1    
    84   42   43 1    
    85   42   44 1    
    86   42  165 1    
    87   43  166 1    
    88   43  167 1    
    89   43  168 1    
    90   44   45 am   BACKBONE|DICT|INTERRES
    91   44  169 1    
    92   45   46 2    
    93   45   47 1    
    94   47   48 1    
    95   47   49 1    
    96   47  170 1    
    97   48  171 1    
    98   48  172 1    
    99   48  173 1    
   100   49   50 am   BACKBONE|DICT|INTERRES
   101   49  174 1    
   102   50   51 2    
   103   50   52 1    
   104   52   53 1    
   105   52   54 1    
   106   52  175 1    
   107   53  176 1    
   108   53  177 1    
   109   53  178 1    
   110   54   55 am   BACKBONE|DICT|INTERRES
   111   54  179 1    
   112   55   56 2    
   113   55   57 1    
   114   57   58 1    
   115   57   59 1    
   116   57  180 1    
   117   58  181 1    
   118   58  182 1    
   119   58  183 1    
   120   59   60 am   BACKBONE|DICT|INTERRES
   121   59  184 1    
   122   60   61 2    
   123   60   62 1    
   124   62   63 1    
   125   62   64 1    
   126   62  185 1    
   127   63  186 1    
   128   63  187 1    
   129   63  188 1    
   130   64   65 am   BACKBONE|DICT|INTERRES
   131   64  189 1    
   132   65   66 2    
   133   67   68 2    
   134   67   69 am   BACKBONE|DICT|INTERRES
   135   69   70 1    
   136   69  190 1    
   137   70   71 1    
   138   70   72 1    
   139   70  191 1    
   140   71  192 1    
   141   71  193 1    
   142   71  194 1    
   143   72   73 2    
   144   72   74 am   BACKBONE|DICT|INTERRES
   145   74   75 1    
   146   74  195 1    
   147   75   76 1    
   148   75   77 1    
   149   75  196 1    
   150   76  197 1    
   151   76  198 1    
   152   76  199 1    
   153   77   78 2    
   154   77   79 am   BACKBONE|DICT|INTERRES
   155   79   80 1    
   156   79  200 1    
   157   80   81 1    
   158   80   82 1    
   159   80  201 1    
   160   81  202 1    
   161   81  203 1    
   162   81  204 1    
   163   82   83 2    
   164   82   84 am   BACKBONE|DICT|INTERRES
   165   84   85 1    
   166   84  205 1    
   167   85   86 1    
   168   85   87 1    
   169   85  206 1    
   170   86  207 1    
   171   86  208 1    
   172   86  209 1    
   173   87   88 2    
   174   87   89 am   BACKBONE|DICT|INTERRES
   175   89   90 1    
   176   89  210 1    
   177   90   91 1    
   178   90   92 1    
   179   90  211 1    
   180   91  212 1    
   181   91  213 1    
   182   91  214 1    
   183   92   93 2    
   184   92   94 am   BACKBONE|DICT|INTERRES
   185   94   95 1    
   186   94  215 1    
   187   95   96 1    
   188   95   97 1    
   189   95  216 1    
   190   96  217 1    
   191   96  218 1    
   192   96  219 1    
   193   97   98 2    
   194   97   99 am   BACKBONE|DICT|INTERRES
   195   99  100 1    
   196   99  220 1    
   197  100  101 1    
   198  100  102 1    
   199  100  221 1    
   200  101  222 1    
   201  101  223 1    
   202  101  224 1    
   203  102  103 2    
   204  102  104 am   BACKBONE|DICT|INTERRES
   205  104  105 1    
   206  104  225 1    
   207  105  106 1    
   208  105  107 1    
   209  105  226 1    
   210  106  227 1    
   211  106  228 1    
   212  106  229 1    
   213  107  108 2    
   214  107  109 am   BACKBONE|DICT|INTERRES
   215  109  110 1    
   216  109  230 1    
   217  110  111 1    
   218  110  112 1    
   219  110  231 1    
   220  111  232 1    
   221  111  233 1    
   222  111  234 1    
   223  112  113 2    
   224  112  114 am   BACKBONE|DICT|INTERRES
   225  114  115 1    
   226  114  235 1    
   227  115  116 1    
   228  115  117 1    
   229  115  236 1    
   230  116  237 1    
   231  116  238 1    
   232  116  239 1    
   233  117  118 2    
   234  117  119 am   BACKBONE|DICT|INTERRES
   235  119  120 1    
   236  119  240 1    
   237  120  121 1    
   238  120  124 1    
   239  120  241 1    
   240  121  122 am   BACKBONE|DICT|INTERRES
   241  121  123 2    
   242  122  242 1    
   243  122  243 1    
   244  124  125 1    
   245  124  244 1    
   246  124  245 1    
   247  125  126 1    
   248  126  246 1    
   249  126  247 1    
@<TRIPOS>SUBSTRUCTURE
     1 UNK         1 GROUP             0       ****    0 ROOT    
