@<TRIPOS>MOLECULE
3R540
247   249    1
SMALL
USER_CHARGES


@<TRIPOS>ATOM
      1 CA         -0.0810  -10.0953  -49.5295 C.3       0 UNK        -0.1800 
      2 C           0.0975  -10.6229  -48.1133 C.2       0 UNK         0.5000 
      3 O           0.2996   -9.8399  -47.1846 O.2       0 UNK        -0.5000 
      4 N           0.0077  -11.9461  -47.9368 N.am      1 UNK        -0.5000 
      5 CA          0.1425  -12.6618  -46.6622 C.3       1 UNK         0.1400 
      6 C6          0.6779  -14.1017  -46.8807 C.3       23 UNK        -0.0398 
      7 S7         -0.3617  -15.1530  -47.9567 S.3       23 UNK        -0.2404 
      8 C8          0.6861  -15.3200  -49.4328 C.3       23 UNK        -0.0205 
      9 C9          0.0905  -16.3104  -50.4205 C.ar      23 UNK        -0.0193 
     10 C10        -0.3203  -15.8859  -51.6876 C.ar      23 UNK        -0.1150 
     11 C11        -0.8589  -16.7963  -52.6016 C.ar      23 UNK        -0.0193 
     12 C12        -0.9937  -18.1370  -52.2332 C.ar      23 UNK        -0.1150 
     13 C13        -0.6072  -18.5714  -50.9624 C.ar      23 UNK        -0.0193 
     14 C14        -0.0479  -17.6567  -50.0669 C.ar      23 UNK        -0.1150 
     15 C15        -0.7955  -20.0274  -50.5672 C.3       23 UNK        -0.0205 
     16 S16        -2.4047  -20.3034  -49.7517 S.3       23 UNK        -0.2404 
     17 C17        -1.9327  -20.1973  -47.9928 C.3       23 UNK        -0.0398 
     18 CA         -1.6055  -21.5974  -47.4045 C.3       11 UNK         0.1400 
     19 N          -0.3371  -21.6256  -46.6690 N.am      11 UNK        -0.5000 
     20 C           0.2976  -22.7560  -46.3233 C.2       10 UNK         0.5000 
     21 O          -0.1120  -23.8807  -46.6103 O.2       10 UNK        -0.5000 
     22 CA          1.5773  -22.6140  -45.4795 C.3       10 UNK         0.1400 
     23 CB          2.7735  -22.2262  -46.3607 C.3       10 UNK        -0.1800 
     24 N           1.4292  -21.6486  -44.3905 N.am      10 UNK        -0.5000 
     25 C           0.5654  -21.7785  -43.3737 C.2       9 UNK         0.5000 
     26 O          -0.1689  -22.7531  -43.2216 O.2       9 UNK        -0.5000 
     27 CA          0.4628  -20.5999  -42.3908 C.3       9 UNK         0.1400 
     28 CB          1.5655  -20.6698  -41.3238 C.3       9 UNK        -0.1800 
     29 N           0.5116  -19.3057  -43.0690 N.am      9 UNK        -0.5000 
     30 C          -0.4164  -18.8601  -43.9284 C.2       8 UNK         0.5000 
     31 O          -1.4340  -19.4837  -44.2308 O.2       8 UNK        -0.5000 
     32 CA         -0.1212  -17.5087  -44.5977 C.3       8 UNK         0.1400 
     33 CB         -0.4103  -16.3596  -43.6181 C.3       8 UNK        -0.1800 
     34 N           1.2626  -17.4373  -45.0753 N.am      8 UNK        -0.5000 
     35 C           1.7500  -18.2068  -46.0632 C.2       7 UNK         0.5000 
     36 O           1.0688  -19.0100  -46.6992 O.2       7 UNK        -0.5000 
     37 CA          3.2592  -18.1168  -46.3600 C.3       7 UNK         0.1400 
     38 CB          3.5466  -17.0505  -47.4237 C.3       7 UNK        -0.1800 
     39 N           4.0653  -17.8450  -45.1724 N.am      7 UNK        -0.5000 
     40 C           4.1713  -18.6647  -44.1175 C.2       6 UNK         0.5000 
     41 O           3.6235  -19.7648  -44.0541 O.2       6 UNK        -0.5000 
     42 CA          4.9957  -18.1560  -42.9193 C.3       6 UNK         0.1400 
     43 CB          6.4114  -18.7503  -42.9519 C.3       6 UNK        -0.1800 
     44 N           5.0885  -16.6931  -42.8498 N.am      6 UNK        -0.5000 
     45 C           4.0493  -15.8718  -42.6478 C.2       5 UNK         0.5000 
     46 O           2.8935  -16.2741  -42.4958 O.2       5 UNK        -0.5000 
     47 CA          4.3801  -14.3656  -42.6384 C.3       5 UNK         0.1400 
     48 CB          4.7545  -13.8646  -44.0498 C.3       5 UNK        -0.1800 
     49 N           3.3231  -13.5438  -42.0356 N.am      5 UNK        -0.5000 
     50 C           2.1064  -13.2643  -42.5228 C.2       4 UNK         0.5000 
     51 O           1.7024  -13.5794  -43.6453 O.2       4 UNK        -0.5000 
     52 CA          1.1889  -12.4638  -41.5914 C.3       4 UNK         0.1400 
     53 CB          1.4179  -10.9516  -41.7560 C.3       4 UNK        -0.1800 
     54 N          -0.1944  -12.7831  -41.9142 N.am      4 UNK        -0.5000 
     55 C          -1.2208  -12.7743  -41.0575 C.2       3 UNK         0.5000 
     56 O          -1.1092  -12.4985  -39.8613 O.2       3 UNK        -0.5000 
     57 CA         -2.6001  -13.1276  -41.6542 C.3       3 UNK         0.1400 
     58 CB         -3.7791  -12.7397  -40.7372 C.3       3 UNK        -0.1800 
     59 N          -2.7817  -12.5812  -43.0041 N.am      3 UNK        -0.5000 
     60 C          -2.7780  -11.2927  -43.3743 C.2       2 UNK         0.5000 
     61 O          -2.6624  -10.3477  -42.5917 O.2       2 UNK        -0.5000 
     62 CA         -2.8885  -11.0341  -44.8910 C.3       2 UNK         0.1400 
     63 CB         -3.2641   -9.5774  -45.2163 C.3       2 UNK        -0.1800 
     64 N          -1.6487  -11.3608  -45.5967 N.am      2 UNK        -0.5000 
     65 C          -1.1601  -12.5864  -45.8262 C.2       1 UNK         0.5000 
     66 O          -1.7152  -13.6108  -45.4257 O.2       1 UNK        -0.5000 
     67 C          -2.7705  -22.1694  -46.5684 C.2       11 UNK         0.5000 
     68 O          -3.5970  -22.9064  -47.1074 O.2       11 UNK        -0.5000 
     69 N          -2.7908  -21.8683  -45.2611 N.am      12 UNK        -0.5000 
     70 CA         -3.7463  -22.4203  -44.2988 C.3       12 UNK         0.1400 
     71 CB         -3.6189  -21.6869  -42.9558 C.3       12 UNK        -0.1800 
     72 C          -3.5912  -23.9413  -44.1130 C.2       12 UNK         0.5000 
     73 O          -4.5964  -24.6514  -44.0972 O.2       12 UNK        -0.5000 
     74 N          -2.3431  -24.4258  -44.0322 N.am      13 UNK        -0.5000 
     75 CA         -2.0004  -25.8511  -43.9753 C.3       13 UNK         0.1400 
     76 CB         -0.5008  -26.0100  -43.6841 C.3       13 UNK        -0.1800 
     77 C          -2.3918  -26.6155  -45.2555 C.2       13 UNK         0.5000 
     78 O          -2.7775  -27.7818  -45.1746 O.2       13 UNK        -0.5000 
     79 N          -2.3390  -25.9274  -46.4035 N.am      14 UNK        -0.5000 
     80 CA         -2.8281  -26.3966  -47.7010 C.3       14 UNK         0.1400 
     81 CB         -2.0871  -25.6350  -48.8134 C.3       14 UNK        -0.1800 
     82 C          -4.3587  -26.2608  -47.8666 C.2       14 UNK         0.5000 
     83 O          -4.8627  -26.5129  -48.9613 O.2       14 UNK        -0.5000 
     84 N          -5.0743  -25.8353  -46.8125 N.am      15 UNK        -0.5000 
     85 CA         -6.5265  -25.6276  -46.7431 C.3       15 UNK         0.1400 
     86 CB         -7.2688  -26.9770  -46.8339 C.3       15 UNK        -0.1800 
     87 C          -7.0441  -24.5896  -47.7617 C.2       15 UNK         0.5000 
     88 O          -8.1738  -24.7037  -48.2395 O.2       15 UNK        -0.5000 
     89 N          -6.1874  -23.6122  -48.0932 N.am      16 UNK        -0.5000 
     90 CA         -6.3595  -22.5631  -49.1000 C.3       16 UNK         0.1400 
     91 CB         -7.5304  -21.6270  -48.7387 C.3       16 UNK        -0.1800 
     92 C          -6.4425  -23.0785  -50.5532 C.2       16 UNK         0.5000 
     93 O          -6.7458  -22.2891  -51.4466 O.2       16 UNK        -0.5000 
     94 N          -6.1263  -24.3597  -50.8035 N.am      17 UNK        -0.5000 
     95 CA         -6.0732  -24.9347  -52.1532 C.3       17 UNK         0.1400 
     96 CB         -5.9930  -26.4652  -52.0616 C.3       17 UNK        -0.1800 
     97 C          -4.8938  -24.3780  -52.9729 C.2       17 UNK         0.5000 
     98 O          -4.9994  -24.2366  -54.1916 O.2       17 UNK        -0.5000 
     99 N          -3.8079  -24.0231  -52.2725 N.am      18 UNK        -0.5000 
    100 CA        -2.6130  -23.3902  -52.8258 C.3       18 UNK         0.1400 
    101 CB        -1.4701  -23.5125  -51.8067 C.3       18 UNK        -0.1800 
    102 C         -2.8235  -21.9219  -53.2484 C.2       18 UNK         0.5000 
    103 O         -1.9598  -21.3794  -53.9381 O.2       18 UNK        -0.5000 
    104 N         -3.9530  -21.3027  -52.8665 N.am      19 UNK        -0.5000 
    105 CA        -4.3102  -19.9258  -53.2256 C.3       19 UNK         0.1400 
    106 CB        -5.5678  -19.4933  -52.4597 C.3       19 UNK        -0.1800 
    107 C         -4.5045  -19.7296  -54.7404 C.2       19 UNK         0.5000 
    108 O         -4.1948  -18.6579  -55.2607 O.2       19 UNK        -0.5000 
    109 N         -4.9873  -20.7796  -55.4193 N.am      20 UNK        -0.5000 
    110 CA        -5.1472  -20.8254  -56.8718 C.3       20 UNK         0.1400 
    111 CB        -6.1279  -21.9537  -57.2260 C.3       20 UNK        -0.1800 
    112 C         -3.8105  -21.0218  -57.6133 C.2       20 UNK         0.5000 
    113 O         -3.6950  -20.6035  -58.7658 O.2       20 UNK        -0.5000 
    114 N         -2.8354  -21.6605  -56.9519 N.am      21 UNK        -0.5000 
    115 CA        -1.5011  -21.9166  -57.4888 C.3       21 UNK         0.1400 
    116 CB        -0.9071  -23.1682  -56.8207 C.3       21 UNK        -0.1800 
    117 C         -0.5863  -20.6962  -57.3021 C.2       21 UNK         0.5000 
    118 O         -0.0108  -20.2147  -58.2786 O.2       21 UNK        -0.5000 
    119 N         -0.4851  -20.2141  -56.0549 N.am      22 UNK        -0.5000 
    120 CA         0.3306  -19.0592  -55.6420 C.3       22 UNK         0.1400 
    121 C          1.8697  -19.2430  -55.8422 C.2       22 UNK         0.5000 
    122 N          2.3819  -20.4682  -55.8403 N.am      22 UNK        -0.7600 
    123 O          2.6172  -18.2794  -55.9851 O.2       22 UNK        -0.5000 
    124 C124       -0.2393  -17.7280  -56.2090 C.3       23 UNK        -0.0398 
    125 S125        0.0810  -16.2717  -55.1525 S.3       23 UNK        -0.2404 
    126 C126       -1.3086  -16.3219  -53.9757 C.3       23 UNK        -0.0205 
    127 H127        0.8091   -9.5486  -49.8408 H         1 UNK         0.0600 
    128 H128       -0.9323   -9.4159  -49.5718 H         1 UNK         0.0600 
    129 H129       -0.2524  -10.9011  -50.2438 H         1 UNK         0.0600 
    130 H130       -0.2134  -12.5335  -48.7280 H         1 UNK         0.3000 
    131 H131        0.8993  -12.1460  -46.0667 H         1 UNK         0.0600 
    132 H132        0.8020  -14.6105  -45.9261 H         1 UNK         0.0800 
    133 H133        1.6831  -14.0451  -47.2993 H         1 UNK         0.0800 
    134 H134        1.6803  -15.6579  -49.1470 H         1 UNK         0.0800 
    135 H135        0.8148  -14.3399  -49.8943 H         1 UNK         0.0800 
    136 H136       -0.2167  -14.8471  -51.9684 H         1 UNK         0.1150 
    137 H137       -1.3988  -18.8466  -52.9377 H         1 UNK         0.1150 
    138 H138        0.2651  -17.9849  -49.0859 H         1 UNK         0.1150 
    139 H139       -0.7400  -20.6526  -51.4581 H         1 UNK         0.0800 
    140 H140        0.0201  -20.3566  -49.9213 H         1 UNK         0.0800 
    141 H141       -2.7343  -19.6974  -47.4456 H         1 UNK         0.0800 
    142 H142       -1.0819  -19.5244  -47.9119 H         1 UNK         0.0800 
    143 H143       -1.4671  -22.2923  -48.2358 H         1 UNK         0.0600 
    144 H144        0.0791  -20.7302  -46.4316 H         1 UNK         0.3000 
    145 H145        1.7895  -23.5865  -45.0308 H         1 UNK         0.0600 
    146 H146        3.6883  -22.1455  -45.7732 H         1 UNK         0.0600 
    147 H147        2.9463  -22.9769  -47.1327 H         1 UNK         0.0600 
    148 H148        2.6119  -21.2731  -46.8631 H         1 UNK         0.0600 
    149 H149        2.0466  -20.8420  -44.4035 H         1 UNK         0.3000 
    150 H150       -0.5015  -20.6731  -41.8841 H         1 UNK         0.0600 
    151 H151        1.5163  -21.6121  -40.7768 H         1 UNK         0.0600 
    152 H152        1.4608  -19.8657  -40.5952 H         1 UNK         0.0600 
    153 H153        2.5612  -20.5982  -41.7612 H         1 UNK         0.0600 
    154 H154        1.3306  -18.7371  -42.9083 H         1 UNK         0.3000 
    155 H155       -0.7852  -17.4012  -45.4583 H         1 UNK         0.0600 
    156 H156        0.2262  -16.4051  -42.7343 H         1 UNK         0.0600 
    157 H157       -1.4460  -16.3905  -43.2779 H         1 UNK         0.0600 
    158 H158       -0.2578  -15.3899  -44.0851 H         1 UNK         0.0600 
    159 H159        1.8905  -16.8354  -44.5588 H         1 UNK         0.3000 
    160 H160        3.5772  -19.0820  -46.7582 H         1 UNK         0.0600 
    161 H161        3.2064  -16.0633  -47.1095 H         1 UNK         0.0600 
    162 H162        3.0424  -17.3012  -48.3571 H         1 UNK         0.0600 
    163 H163        4.6124  -16.9861  -47.6431 H         1 UNK         0.0600 
    164 H164        4.5519  -16.9619  -45.1422 H         1 UNK         0.3000 
    165 H165        4.4984  -18.5054  -42.0120 H         1 UNK         0.0600 
    166 H166        6.9794  -18.4667  -42.0657 H         1 UNK         0.0600 
    167 H167        6.3768  -19.8404  -42.9785 H         1 UNK         0.0600 
    168 H168        6.9676  -18.4181  -43.8294 H         1 UNK         0.0600 
    169 H169        6.0111  -16.2979  -42.9631 H         1 UNK         0.3000 
    170 H170        5.2524  -14.2358  -41.9959 H         1 UNK         0.0600 
    171 H171        5.6704  -14.3385  -44.4040 H         1 UNK         0.0600 
    172 H172        3.9770  -14.0815  -44.7831 H         1 UNK         0.0600 
    173 H173        4.9277  -12.7885  -44.0536 H         1 UNK         0.0600 
    174 H174        3.5275  -13.2301  -41.0972 H         1 UNK         0.3000 
    175 H175        1.4013  -12.7570  -40.5609 H         1 UNK         0.0600 
    176 H176        1.2085  -10.6241  -42.7753 H         1 UNK         0.0600 
    177 H177        0.7773  -10.3800  -41.0841 H         1 UNK         0.0600 
    178 H178        2.4501  -10.6832  -41.5282 H         1 UNK         0.0600 
    179 H179       -0.3429  -13.0734  -42.8721 H         1 UNK         0.3000 
    180 H180       -2.6121  -14.2132  -41.7617 H         1 UNK         0.0600 
    181 H181       -4.7341  -13.0100  -41.1876 H         1 UNK         0.0600 
    182 H182       -3.7972  -11.6698  -40.5284 H         1 UNK         0.0600 
    183 H183       -3.7153  -13.2576  -39.7796 H         1 UNK         0.0600 
    184 H184       -2.7783  -13.2633  -43.7566 H         1 UNK         0.3000 
    185 H185       -3.6843  -11.6745  -45.2771 H         1 UNK         0.0600 
    186 H186       -3.4200   -9.4409  -46.2866 H         1 UNK         0.0600 
    187 H187       -4.1892   -9.2906  -44.7147 H         1 UNK         0.0600 
    188 H188       -2.4873   -8.8798  -44.9004 H         1 UNK         0.0600 
    189 H189       -1.1145  -10.5773  -45.9581 H         1 UNK         0.3000 
    190 H190       -2.1080  -21.2107  -44.8958 H         1 UNK         0.3000 
    191 H191       -4.7502  -22.2368  -44.6877 H         1 UNK         0.0600 
    192 H192       -4.3484  -22.0608  -42.2364 H         1 UNK         0.0600 
    193 H193       -3.7956  -20.6176  -43.0726 H         1 UNK         0.0600 
    194 H194       -2.6298  -21.8161  -42.5170 H         1 UNK         0.0600 
    195 H195       -1.5653  -23.7720  -43.9843 H         1 UNK         0.3000 
    196 H196       -2.5557  -26.2933  -43.1457 H         1 UNK         0.0600 
    197 H197        0.1112  -25.5589  -44.4653 H         1 UNK         0.0600 
    198 H198       -0.2319  -25.5422  -42.7369 H         1 UNK         0.0600 
    199 H199       -0.2247  -27.0629  -43.6166 H         1 UNK         0.0600 
    200 H200       -1.9506  -24.9914  -46.3828 H         1 UNK         0.3000 
    201 H201       -2.5881  -27.4567  -47.8022 H         1 UNK         0.0600 
    202 H202       -2.3272  -24.5722  -48.8027 H         1 UNK         0.0600 
    203 H203       -2.3519  -26.0216  -49.7982 H         1 UNK         0.0600 
    204 H204       -1.0066  -25.7338  -48.7081 H         1 UNK         0.0600 
    205 H205       -4.5753  -25.6027  -45.9619 H         1 UNK         0.3000 
    206 H206       -6.7283  -25.2067  -45.7574 H         1 UNK         0.0600 
    207 H207       -6.8872  -27.6861  -46.0992 H         1 UNK         0.0600 
    208 H208       -8.3345  -26.8524  -46.6389 H         1 UNK         0.0600 
    209 H209       -7.1677  -27.4292  -47.8210 H         1 UNK         0.0600 
    210 H210       -5.2761  -23.6045  -47.6395 H         1 UNK         0.3000 
    211 H211       -5.4465  -21.9673  -49.0563 H         1 UNK         0.0600 
    212 H212       -7.5491  -20.7545  -49.3929 H         1 UNK         0.0600 
    213 H213       -7.4410  -21.2609  -47.7160 H         1 UNK         0.0600 
    214 H214       -8.4950  -22.1255  -48.8355 H         1 UNK         0.0600 
    215 H215       -5.8748  -24.9729  -50.0357 H         1 UNK         0.3000 
    216 H216       -6.9969  -24.6729  -52.6735 H         1 UNK         0.0600 
    217 H217       -5.0577  -26.7943  -51.6078 H         1 UNK         0.0600 
    218 H218       -6.0509  -26.9168  -53.0527 H         1 UNK         0.0600 
    219 H219       -6.8141  -26.8702  -51.4697 H         1 UNK         0.0600 
    220 H220       -3.8205  -24.1732  -51.2748 H         1 UNK         0.3000 
    221 H221       -2.3230  -23.9393  -53.7240 H         1 UNK         0.0600 
    222 H222       -1.2366  -24.5574  -51.6031 H         1 UNK         0.0600 
    223 H223       -1.7201  -23.0352  -50.8592 H         1 UNK         0.0600 
    224 H224       -0.5569  -23.0481  -52.1810 H         1 UNK         0.0600 
    225 H225       -4.6319  -21.8132  -52.3188 H         1 UNK         0.3000 
    226 H226       -3.4998  -19.2753  -52.9049 H         1 UNK         0.0600 
    227 H227       -6.4479  -20.0501  -52.7825 H         1 UNK         0.0600 
    228 H228       -5.4483  -19.6393  -51.3858 H         1 UNK         0.0600 
    229 H229       -5.7753  -18.4351  -52.6228 H         1 UNK         0.0600 
    230 H230       -5.2143  -21.6222  -54.9093 H         1 UNK         0.3000 
    231 H231       -5.5784  -19.8797  -57.2070 H         1 UNK         0.0600 
    232 H232       -5.7582  -22.9262  -56.8974 H         1 UNK         0.0600 
    233 H233       -6.2878  -22.0093  -58.3036 H         1 UNK         0.0600 
    234 H234       -7.1007  -21.7907  -56.7618 H         1 UNK         0.0600 
    235 H235       -2.9952  -21.9185  -55.9895 H         1 UNK         0.3000 
    236 H236       -1.5791  -22.1195  -58.5592 H         1 UNK         0.0600 
    237 H237       -1.5339  -24.0422  -56.9987 H         1 UNK         0.0600 
    238 H238        0.0814  -23.3910  -57.2241 H         1 UNK         0.0600 
    239 H239       -0.8010  -23.0490  -55.7424 H         1 UNK         0.0600 
    240 H240       -1.0027  -20.6743  -55.3082 H         1 UNK         0.3000 
    241 H241        0.2151  -19.0281  -54.5608 H         1 UNK         0.0600 
    242 H242        3.3745  -20.5906  -55.9659 H         1 UNK         0.3800 
    243 H243        1.7885  -21.2728  -55.7176 H         1 UNK         0.3800 
    244 H244       -1.3185  -17.8066  -56.3487 H         1 UNK         0.0800 
    245 H245        0.1647  -17.5347  -57.2040 H         1 UNK         0.0800 
    246 H246       -1.7311  -15.3195  -53.8929 H         1 UNK         0.0800 
    247 H247       -2.1142  -16.9544  -54.3515 H         1 UNK         0.0800 
@<TRIPOS>BOND
     1    1    2 1    
     2    1  127 1    
     3    1  128 1    
     4    1  129 1    
     5    2    3 2    
     6    2    4 am   BACKBONE|DICT|INTERRES
     7    4    5 1    
     8    4  130 1    
     9    5    6 1    
    10    5   65 1    
    11    5  131 1    
    12    6    7 1    
    13    6  132 1    
    14    6  133 1    
    15    7    8 1    
    16    8    9 1    
    17    8  134 1    
    18    8  135 1    
    19    9   10 ar   
    20    9   14 ar   
    21   10   11 ar   
    22   10  136 1    
    23   11   12 ar   
    24   11  126 1    
    25   12   13 ar   
    26   12  137 1    
    27   13   14 ar   
    28   13   15 1    
    29   14  138 1    
    30   15   16 1    
    31   15  139 1    
    32   15  140 1    
    33   16   17 1    
    34   17   18 1    
    35   17  141 1    
    36   17  142 1    
    37   18   19 1    
    38   18   67 1    
    39   18  143 1    
    40   19   20 am   BACKBONE|DICT|INTERRES
    41   19  144 1    
    42   20   21 2    
    43   20   22 1    
    44   22   23 1    
    45   22   24 1    
    46   22  145 1    
    47   23  146 1    
    48   23  147 1    
    49   23  148 1    
    50   24   25 am   BACKBONE|DICT|INTERRES
    51   24  149 1    
    52   25   26 2    
    53   25   27 1    
    54   27   28 1    
    55   27   29 1    
    56   27  150 1    
    57   28  151 1    
    58   28  152 1    
    59   28  153 1    
    60   29   30 am   BACKBONE|DICT|INTERRES
    61   29  154 1    
    62   30   31 2    
    63   30   32 1    
    64   32   33 1    
    65   32   34 1    
    66   32  155 1    
    67   33  156 1    
    68   33  157 1    
    69   33  158 1    
    70   34   35 am   BACKBONE|DICT|INTERRES
    71   34  159 1    
    72   35   36 2    
    73   35   37 1    
    74   37   38 1    
    75   37   39 1    
    76   37  160 1    
    77   38  161 1    
    78   38  162 1    
    79   38  163 1    
    80   39   40 am   BACKBONE|DICT|INTERRES
    81   39  164 1    
    82   40   41 2    
    83   40   42 1    
    84   42   43 1    
    85   42   44 1    
    86   42  165 1    
    87   43  166 1    
    88   43  167 1    
    89   43  168 1    
    90   44   45 am   BACKBONE|DICT|INTERRES
    91   44  169 1    
    92   45   46 2    
    93   45   47 1    
    94   47   48 1    
    95   47   49 1    
    96   47  170 1    
    97   48  171 1    
    98   48  172 1    
    99   48  173 1    
   100   49   50 am   BACKBONE|DICT|INTERRES
   101   49  174 1    
   102   50   51 2    
   103   50   52 1    
   104   52   53 1    
   105   52   54 1    
   106   52  175 1    
   107   53  176 1    
   108   53  177 1    
   109   53  178 1    
   110   54   55 am   BACKBONE|DICT|INTERRES
   111   54  179 1    
   112   55   56 2    
   113   55   57 1    
   114   57   58 1    
   115   57   59 1    
   116   57  180 1    
   117   58  181 1    
   118   58  182 1    
   119   58  183 1    
   120   59   60 am   BACKBONE|DICT|INTERRES
   121   59  184 1    
   122   60   61 2    
   123   60   62 1    
   124   62   63 1    
   125   62   64 1    
   126   62  185 1    
   127   63  186 1    
   128   63  187 1    
   129   63  188 1    
   130   64   65 am   BACKBONE|DICT|INTERRES
   131   64  189 1    
   132   65   66 2    
   133   67   68 2    
   134   67   69 am   BACKBONE|DICT|INTERRES
   135   69   70 1    
   136   69  190 1    
   137   70   71 1    
   138   70   72 1    
   139   70  191 1    
   140   71  192 1    
   141   71  193 1    
   142   71  194 1    
   143   72   73 2    
   144   72   74 am   BACKBONE|DICT|INTERRES
   145   74   75 1    
   146   74  195 1    
   147   75   76 1    
   148   75   77 1    
   149   75  196 1    
   150   76  197 1    
   151   76  198 1    
   152   76  199 1    
   153   77   78 2    
   154   77   79 am   BACKBONE|DICT|INTERRES
   155   79   80 1    
   156   79  200 1    
   157   80   81 1    
   158   80   82 1    
   159   80  201 1    
   160   81  202 1    
   161   81  203 1    
   162   81  204 1    
   163   82   83 2    
   164   82   84 am   BACKBONE|DICT|INTERRES
   165   84   85 1    
   166   84  205 1    
   167   85   86 1    
   168   85   87 1    
   169   85  206 1    
   170   86  207 1    
   171   86  208 1    
   172   86  209 1    
   173   87   88 2    
   174   87   89 am   BACKBONE|DICT|INTERRES
   175   89   90 1    
   176   89  210 1    
   177   90   91 1    
   178   90   92 1    
   179   90  211 1    
   180   91  212 1    
   181   91  213 1    
   182   91  214 1    
   183   92   93 2    
   184   92   94 am   BACKBONE|DICT|INTERRES
   185   94   95 1    
   186   94  215 1    
   187   95   96 1    
   188   95   97 1    
   189   95  216 1    
   190   96  217 1    
   191   96  218 1    
   192   96  219 1    
   193   97   98 2    
   194   97   99 am   BACKBONE|DICT|INTERRES
   195   99  100 1    
   196   99  220 1    
   197  100  101 1    
   198  100  102 1    
   199  100  221 1    
   200  101  222 1    
   201  101  223 1    
   202  101  224 1    
   203  102  103 2    
   204  102  104 am   BACKBONE|DICT|INTERRES
   205  104  105 1    
   206  104  225 1    
   207  105  106 1    
   208  105  107 1    
   209  105  226 1    
   210  106  227 1    
   211  106  228 1    
   212  106  229 1    
   213  107  108 2    
   214  107  109 am   BACKBONE|DICT|INTERRES
   215  109  110 1    
   216  109  230 1    
   217  110  111 1    
   218  110  112 1    
   219  110  231 1    
   220  111  232 1    
   221  111  233 1    
   222  111  234 1    
   223  112  113 2    
   224  112  114 am   BACKBONE|DICT|INTERRES
   225  114  115 1    
   226  114  235 1    
   227  115  116 1    
   228  115  117 1    
   229  115  236 1    
   230  116  237 1    
   231  116  238 1    
   232  116  239 1    
   233  117  118 2    
   234  117  119 am   BACKBONE|DICT|INTERRES
   235  119  120 1    
   236  119  240 1    
   237  120  121 1    
   238  120  124 1    
   239  120  241 1    
   240  121  122 am   BACKBONE|DICT|INTERRES
   241  121  123 2    
   242  122  242 1    
   243  122  243 1    
   244  124  125 1    
   245  124  244 1    
   246  124  245 1    
   247  125  126 1    
   248  126  246 1    
   249  126  247 1    
@<TRIPOS>SUBSTRUCTURE
     1 UNK         1 GROUP             0       ****    0 ROOT    
