@<TRIPOS>MOLECULE
3R540
247   249    1
SMALL
USER_CHARGES


@<TRIPOS>ATOM
      1 CA          1.6075  -15.2838  -39.6411 C.3       0 UNK        -0.1800 
      2 C           1.2489  -14.7681  -41.0276 C.2       0 UNK         0.5000 
      3 O           1.5489  -15.4370  -42.0153 O.2       0 UNK        -0.5000 
      4 N           0.6243  -13.5816  -41.0881 N.am      1 UNK        -0.5000 
      5 CA          0.1461  -12.8635  -42.2818 C.3       1 UNK         0.1400 
      6 C6         -1.2819  -13.2813  -42.7428 C.3       23 UNK        -0.0398 
      7 S7         -1.4745  -14.9835  -43.3783 S.3       23 UNK        -0.2404 
      8 C8         -3.0286  -14.8298  -44.3160 C.3       23 UNK        -0.0205 
      9 C9         -3.2188  -16.0137  -45.2495 C.ar      23 UNK        -0.0193 
     10 C10        -2.4931  -16.0836  -46.4417 C.ar      23 UNK        -0.1150 
     11 C11        -2.6106  -17.1906  -47.2855 C.ar      23 UNK        -0.0193 
     12 C12        -3.4739  -18.2309  -46.9301 C.ar      23 UNK        -0.1150 
     13 C13        -4.2243  -18.1618  -45.7536 C.ar      23 UNK        -0.0193 
     14 C14        -4.0970  -17.0486  -44.9176 C.ar      23 UNK        -0.1150 
     15 C15        -5.1262  -19.3222  -45.3631 C.3       23 UNK        -0.0205 
     16 S16        -4.5098  -20.2364  -43.9081 S.3       23 UNK        -0.2404 
     17 C17        -2.7345  -20.4594  -44.2779 C.3       23 UNK        -0.0398 
     18 CA         -2.4492  -21.6016  -45.2785 C.3       11 UNK         0.1400 
     19 N          -1.1981  -21.3831  -46.0201 N.am      11 UNK        -0.5000 
     20 C          -0.7294  -22.1749  -46.9957 C.2       10 UNK         0.5000 
     21 O          -1.3292  -23.1631  -47.4151 O.2       10 UNK        -0.5000 
     22 CA          0.6457  -21.8432  -47.5873 C.3       10 UNK         0.1400 
     23 CB          0.5093  -20.8892  -48.7762 C.3       10 UNK        -0.1800 
     24 N           1.5471  -21.2772  -46.5858 N.am      10 UNK        -0.5000 
     25 C           2.2317  -22.0219  -45.7055 C.2       9 UNK         0.5000 
     26 O           2.2379  -23.2532  -45.7112 O.2       9 UNK        -0.5000 
     27 CA          3.0072  -21.2694  -44.6073 C.3       9 UNK         0.1400 
     28 CB          4.3855  -20.8290  -45.1223 C.3       9 UNK        -0.1800 
     29 N           2.2894  -20.1014  -44.0970 N.am      9 UNK        -0.5000 
     30 C           1.0903  -20.1331  -43.4991 C.2       8 UNK         0.5000 
     31 O           0.4749  -21.1720  -43.2563 O.2       8 UNK        -0.5000 
     32 CA          0.4445  -18.7776  -43.1519 C.3       8 UNK         0.1400 
     33 CB          0.6585  -18.4529  -41.6678 C.3       8 UNK        -0.1800 
     34 N           0.8890  -17.6528  -43.9838 N.am      8 UNK        -0.5000 
     35 C           0.7715  -17.5863  -45.3207 C.2       7 UNK         0.5000 
     36 O           0.2867  -18.5019  -45.9936 O.2       7 UNK        -0.5000 
     37 CA          1.2773  -16.2886  -45.9974 C.3       7 UNK         0.1400 
     38 CB          2.6106  -15.7925  -45.3991 C.3       7 UNK        -0.1800 
     39 N           1.4127  -16.3693  -47.4576 N.am      7 UNK        -0.5000 
     40 C           2.2221  -17.1833  -48.1563 C.2       6 UNK         0.5000 
     41 O           2.8967  -18.0820  -47.6504 O.2       6 UNK        -0.5000 
     42 CA          2.3416  -16.9370  -49.6776 C.3       6 UNK         0.1400 
     43 CB          1.6830  -18.0589  -50.4923 C.3       6 UNK        -0.1800 
     44 N           1.7853  -15.6599  -50.1215 N.am      6 UNK        -0.5000 
     45 C           2.3709  -14.4653  -49.9681 C.2       5 UNK         0.5000 
     46 O           3.4580  -14.3006  -49.4135 O.2       5 UNK        -0.5000 
     47 CA          1.6179  -13.2434  -50.5357 C.3       5 UNK         0.1400 
     48 CB          0.5700  -13.6039  -51.6137 C.3       5 UNK        -0.1800 
     49 N           0.9955  -12.4322  -49.4871 N.am      5 UNK        -0.5000 
     50 C           0.1335  -12.8408  -48.5465 C.2       4 UNK         0.5000 
     51 O          -0.2083  -14.0144  -48.3881 O.2       4 UNK        -0.5000 
     52 CA         -0.4355  -11.7357  -47.6391 C.3       4 UNK         0.1400 
     53 CB         -1.5567  -12.2453  -46.7185 C.3       4 UNK        -0.1800 
     54 N           0.6159  -11.1283  -46.8244 N.am      4 UNK        -0.5000 
     55 C           1.4097  -10.1226  -47.2182 C.2       3 UNK         0.5000 
     56 O           1.3676   -9.6389  -48.3508 O.2       3 UNK        -0.5000 
     57 CA          2.4070   -9.5439  -46.1934 C.3       3 UNK         0.1400 
     58 CB          1.8739   -8.2210  -45.6214 C.3       3 UNK        -0.1800 
     59 N           2.6955  -10.4508  -45.0825 N.am      3 UNK        -0.5000 
     60 C           3.5176  -11.5053  -45.1558 C.2       2 UNK         0.5000 
     61 O           4.1686  -11.7938  -46.1601 O.2       2 UNK        -0.5000 
     62 CA          3.6292  -12.3938  -43.8992 C.3       2 UNK         0.1400 
     63 CB          4.8420  -11.9738  -43.0548 C.3       2 UNK        -0.1800 
     64 N           2.4407  -12.4226  -43.0368 N.am      2 UNK        -0.5000 
     65 C           1.1959  -12.7536  -43.4143 C.2       1 UNK         0.5000 
     66 O           0.8780  -12.9564  -44.5847 O.2       1 UNK        -0.5000 
     67 C          -2.4815  -22.9753  -44.5770 C.2       11 UNK         0.5000 
     68 O          -3.4792  -23.6902  -44.6757 O.2       11 UNK        -0.5000 
     69 N          -1.3519  -23.3523  -43.9609 N.am      12 UNK        -0.5000 
     70 CA         -1.1103  -24.6614  -43.3477 C.3       12 UNK         0.1400 
     71 CB          0.2520  -24.6248  -42.6388 C.3       12 UNK        -0.1800 
     72 C          -1.1696  -25.8444  -44.3393 C.2       12 UNK         0.5000 
     73 O          -1.3832  -26.9793  -43.9124 O.2       12 UNK        -0.5000 
     74 N          -1.0027  -25.5570  -45.6360 N.am      13 UNK        -0.5000 
     75 CA         -1.1100  -26.4960  -46.7493 C.3       13 UNK         0.1400 
     76 CB          0.1252  -26.3206  -47.6515 C.3       13 UNK        -0.1800 
     77 C          -2.4243  -26.3006  -47.5354 C.2       13 UNK         0.5000 
     78 O          -2.4975  -26.7249  -48.6878 O.2       13 UNK        -0.5000 
     79 N          -3.4319  -25.6555  -46.9247 N.am      14 UNK        -0.5000 
     80 CA         -4.7582  -25.3545  -47.4794 C.3       14 UNK         0.1400 
     81 CB         -5.5513  -26.6509  -47.7494 C.3       14 UNK        -0.1800 
     82 C          -4.6848  -24.4238  -48.7070 C.2       14 UNK         0.5000 
     83 O          -5.2254  -24.7414  -49.7674 O.2       14 UNK        -0.5000 
     84 N          -3.9708  -23.3021  -48.5386 N.am      15 UNK        -0.5000 
     85 CA         -3.6412  -22.2965  -49.5558 C.3       15 UNK         0.1400 
     86 CB         -4.9020  -21.5507  -50.0327 C.3       15 UNK        -0.1800 
     87 C          -2.8133  -22.9048  -50.7046 C.2       15 UNK         0.5000 
     88 O          -3.1060  -22.6677  -51.8799 O.2       15 UNK        -0.5000 
     89 N          -1.8119  -23.7087  -50.3141 N.am      16 UNK        -0.5000 
     90 CA         -0.9222  -24.5063  -51.1628 C.3       16 UNK         0.1400 
     91 CB          0.0279  -23.5855  -51.9566 C.3       16 UNK        -0.1800 
     92 C          -1.7104  -25.4813  -52.0610 C.2       16 UNK         0.5000 
     93 O          -1.5741  -25.4425  -53.2825 O.2       16 UNK        -0.5000 
     94 N          -2.5738  -26.2967  -51.4381 N.am      17 UNK        -0.5000 
     95 CA         -3.5384  -27.2095  -52.0658 C.3       17 UNK         0.1400 
     96 CB         -2.8095  -28.4016  -52.7188 C.3       17 UNK        -0.1800 
     97 C          -4.4946  -26.4784  -53.0344 C.2       17 UNK         0.5000 
     98 O          -4.7814  -26.9740  -54.1255 O.2       17 UNK        -0.5000 
     99 N          -4.9279  -25.2816  -52.6152 N.am      18 UNK        -0.5000 
    100 CA        -5.7313  -24.2957  -53.3402 C.3       18 UNK         0.1400 
    101 CB        -7.1398  -24.8491  -53.6376 C.3       18 UNK        -0.1800 
    102 C         -5.0567  -23.6966  -54.5957 C.2       18 UNK         0.5000 
    103 O         -5.7390  -23.0175  -55.3642 O.2       18 UNK        -0.5000 
    104 N         -3.7468  -23.9166  -54.7925 N.am      19 UNK        -0.5000 
    105 CA        -2.9946  -23.3697  -55.9244 C.3       19 UNK         0.1400 
    106 CB        -1.7108  -24.1803  -56.1537 C.3       19 UNK        -0.1800 
    107 C         -2.6625  -21.8792  -55.7432 C.2       19 UNK         0.5000 
    108 O         -2.6361  -21.1485  -56.7347 O.2       19 UNK        -0.5000 
    109 N         -2.4284  -21.4469  -54.4946 N.am      20 UNK        -0.5000 
    110 CA        -2.2358  -20.0353  -54.1564 C.3       20 UNK         0.1400 
    111 CB        -1.4158  -19.9101  -52.8621 C.3       20 UNK        -0.1800 
    112 C         -3.5873  -19.3108  -54.0289 C.2       20 UNK         0.5000 
    113 O         -3.6847  -18.1418  -54.4015 O.2       20 UNK        -0.5000 
    114 N         -4.6009  -20.0314  -53.5185 N.am      21 UNK        -0.5000 
    115 CA        -6.0087  -19.6290  -53.3672 C.3       21 UNK         0.1400 
    116 CB        -6.6630  -19.4351  -54.7503 C.3       21 UNK        -0.1800 
    117 C         -6.2378  -18.4147  -52.4363 C.2       21 UNK         0.5000 
    118 O         -7.3021  -17.7961  -52.4785 O.2       21 UNK        -0.5000 
    119 N         -5.2382  -18.1037  -51.6064 N.am      22 UNK        -0.5000 
    120 CA        -5.1971  -16.9801  -50.6606 C.3       22 UNK         0.1400 
    121 C         -6.0039  -17.1853  -49.3447 C.2       22 UNK         0.5000 
    122 N         -6.5480  -18.3653  -49.0718 N.am      22 UNK        -0.7600 
    123 O         -6.1694  -16.2442  -48.5742 O.2       22 UNK        -0.5000 
    124 C124       -3.7318  -16.5384  -50.4010 C.3       23 UNK        -0.0398 
    125 S125       -2.6062  -17.9245  -49.9991 S.3       23 UNK        -0.2404 
    126 C126       -1.7437  -17.2790  -48.5343 C.3       23 UNK        -0.0205 
    127 H127        2.6794  -15.4712  -39.5775 H         1 UNK         0.0600 
    128 H128        1.0851  -16.2194  -39.4427 H         1 UNK         0.0600 
    129 H129        1.3397  -14.5721  -38.8599 H         1 UNK         0.0600 
    130 H130        0.4361  -13.1072  -40.2161 H         1 UNK         0.3000 
    131 H131        0.0400  -11.8334  -41.9381 H         1 UNK         0.0600 
    132 H132       -1.9752  -13.1644  -41.9093 H         1 UNK         0.0800 
    133 H133       -1.6289  -12.5840  -43.5067 H         1 UNK         0.0800 
    134 H134       -3.8620  -14.7520  -43.6164 H         1 UNK         0.0800 
    135 H135       -3.0329  -13.9100  -44.8998 H         1 UNK         0.0800 
    136 H136       -1.8086  -15.2873  -46.6951 H         1 UNK         0.1150 
    137 H137       -3.5503  -19.1027  -47.5638 H         1 UNK         0.1150 
    138 H138       -4.6573  -17.0067  -43.9942 H         1 UNK         0.1150 
    139 H139       -6.1255  -18.9427  -45.1465 H         1 UNK         0.0800 
    140 H140       -5.2399  -20.0177  -46.1961 H         1 UNK         0.0800 
    141 H141       -2.2151  -20.6260  -43.3329 H         1 UNK         0.0800 
    142 H142       -2.3340  -19.5204  -44.6563 H         1 UNK         0.0800 
    143 H143       -3.2410  -21.6024  -46.0299 H         1 UNK         0.0600 
    144 H144       -0.6515  -20.5697  -45.7661 H         1 UNK         0.3000 
    145 H145        1.0679  -22.7770  -47.9655 H         1 UNK         0.0600 
    146 H146        1.4490  -20.8394  -49.3228 H         1 UNK         0.0600 
    147 H147       -0.2546  -21.2259  -49.4781 H         1 UNK         0.0600 
    148 H148        0.2454  -19.8835  -48.4541 H         1 UNK         0.0600 
    149 H149        1.5638  -20.2668  -46.5023 H         1 UNK         0.3000 
    150 H150        3.1549  -21.9593  -43.7739 H         1 UNK         0.0600 
    151 H151        4.9530  -21.6817  -45.4973 H         1 UNK         0.0600 
    152 H152        4.9757  -20.3704  -44.3288 H         1 UNK         0.0600 
    153 H153        4.2988  -20.1079  -45.9366 H         1 UNK         0.0600 
    154 H154        2.7071  -19.1993  -44.2717 H         1 UNK         0.3000 
    155 H155       -0.6276  -18.8768  -43.3080 H         1 UNK         0.0600 
    156 H156        0.3738  -19.2939  -41.0340 H         1 UNK         0.0600 
    157 H157        0.0458  -17.6043  -41.3645 H         1 UNK         0.0600 
    158 H158        1.7010  -18.2155  -41.4531 H         1 UNK         0.0600 
    159 H159        1.2433  -16.8455  -43.4782 H         1 UNK         0.3000 
    160 H160        0.5209  -15.5257  -45.8088 H         1 UNK         0.0600 
    161 H161        3.3831  -16.5614  -45.4293 H         1 UNK         0.0600 
    162 H162        2.4939  -15.4839  -44.3630 H         1 UNK         0.0600 
    163 H163        2.9811  -14.9248  -45.9456 H         1 UNK         0.0600 
    164 H164        0.8915  -15.6644  -47.9694 H         1 UNK         0.3000 
    165 H165        3.4073  -16.9387  -49.9162 H         1 UNK         0.0600 
    166 H166        1.7416  -17.8596  -51.5625 H         1 UNK         0.0600 
    167 H167        2.1969  -19.0030  -50.3203 H         1 UNK         0.0600 
    168 H168        0.6322  -18.1897  -50.2343 H         1 UNK         0.0600 
    169 H169        0.8776  -15.6917  -50.5618 H         1 UNK         0.3000 
    170 H170        2.3722  -12.6132  -51.0093 H         1 UNK         0.0600 
    171 H171       -0.2684  -14.1705  -51.2066 H         1 UNK         0.0600 
    172 H172        0.1618  -12.7030  -52.0720 H         1 UNK         0.0600 
    173 H173        1.0158  -14.1949  -52.4149 H         1 UNK         0.0600 
    174 H174        1.2514  -11.4513  -49.4777 H         1 UNK         0.3000 
    175 H175       -0.8735  -10.9747  -48.2883 H         1 UNK         0.0600 
    176 H176       -1.2031  -13.0418  -46.0657 H         1 UNK         0.0600 
    177 H177       -1.9510  -11.4459  -46.0914 H         1 UNK         0.0600 
    178 H178       -2.3878  -12.6458  -47.3002 H         1 UNK         0.0600 
    179 H179        0.7743  -11.5638  -45.9203 H         1 UNK         0.3000 
    180 H180        3.3375   -9.3326  -46.7247 H         1 UNK         0.0600 
    181 H181        0.9433   -8.3662  -45.0712 H         1 UNK         0.0600 
    182 H182        1.6756   -7.5021  -46.4176 H         1 UNK         0.0600 
    183 H183        2.5967   -7.7633  -44.9458 H         1 UNK         0.0600 
    184 H184        2.2019  -10.2866  -44.2177 H         1 UNK         0.3000 
    185 H185        3.8015  -13.4137  -44.2438 H         1 UNK         0.0600 
    186 H186        4.7150  -10.9734  -42.6395 H         1 UNK         0.0600 
    187 H187        5.0054  -12.6643  -42.2270 H         1 UNK         0.0600 
    188 H188        5.7537  -11.9675  -43.6540 H         1 UNK         0.0600 
    189 H189        2.6070  -12.2760  -42.0519 H         1 UNK         0.3000 
    190 H190       -0.5929  -22.6791  -43.8927 H         1 UNK         0.3000 
    191 H191       -1.8862  -24.8254  -42.5974 H         1 UNK         0.0600 
    192 H192        1.0639  -24.4356  -43.3423 H         1 UNK         0.0600 
    193 H193        0.2803  -23.8436  -41.8787 H         1 UNK         0.0600 
    194 H194        0.4615  -25.5718  -42.1398 H         1 UNK         0.0600 
    195 H195       -0.8725  -24.5892  -45.9023 H         1 UNK         0.3000 
    196 H196       -1.1141  -27.5232  -46.3800 H         1 UNK         0.0600 
    197 H197        1.0456  -26.4814  -47.0900 H         1 UNK         0.0600 
    198 H198        0.1712  -25.3206  -48.0824 H         1 UNK         0.0600 
    199 H199        0.1213  -27.0363  -48.4744 H         1 UNK         0.0600 
    200 H200       -3.2666  -25.2880  -45.9943 H         1 UNK         0.3000 
    201 H201       -5.2937  -24.7995  -46.7078 H         1 UNK         0.0600 
    202 H202       -6.5750  -26.4241  -48.0494 H         1 UNK         0.0600 
    203 H203       -5.6054  -27.2727  -46.8559 H         1 UNK         0.0600 
    204 H204       -5.1047  -27.2464  -48.5461 H         1 UNK         0.0600 
    205 H205       -3.4656  -23.2072  -47.6673 H         1 UNK         0.3000 
    206 H206       -2.9963  -21.5620  -49.0713 H         1 UNK         0.0600 
    207 H207       -5.4495  -21.1335  -49.1880 H         1 UNK         0.0600 
    208 H208       -5.5805  -22.2012  -50.5842 H         1 UNK         0.0600 
    209 H209       -4.6313  -20.7236  -50.6870 H         1 UNK         0.0600 
    210 H210       -1.6798  -23.8184  -49.3144 H         1 UNK         0.3000 
    211 H211       -0.3137  -25.1192  -50.4972 H         1 UNK         0.0600 
    212 H212        0.5841  -22.9249  -51.2918 H         1 UNK         0.0600 
    213 H213        0.7568  -24.1704  -52.5184 H         1 UNK         0.0600 
    214 H214       -0.5110  -22.9644  -52.6720 H         1 UNK         0.0600 
    215 H215       -2.5989  -26.2868  -50.4189 H         1 UNK         0.3000 
    216 H216       -4.1593  -27.6000  -51.2582 H         1 UNK         0.0600 
    217 H217       -3.5214  -29.1434  -53.0825 H         1 UNK         0.0600 
    218 H218       -2.2004  -28.0886  -53.5675 H         1 UNK         0.0600 
    219 H219       -2.1568  -28.9024  -52.0039 H         1 UNK         0.0600 
    220 H220       -4.6726  -25.0006  -51.6730 H         1 UNK         0.3000 
    221 H221       -5.8518  -23.4602  -52.6503 H         1 UNK         0.0600 
    222 H222       -7.1133  -25.6482  -54.3788 H         1 UNK         0.0600 
    223 H223       -7.6066  -25.2427  -52.7346 H         1 UNK         0.0600 
    224 H224       -7.7954  -24.0680  -54.0243 H         1 UNK         0.0600 
    225 H225       -3.2242  -24.4708  -54.1226 H         1 UNK         0.3000 
    226 H226       -3.6092  -23.4687  -56.8218 H         1 UNK         0.0600 
    227 H227       -1.9193  -25.2487  -56.2128 H         1 UNK         0.0600 
    228 H228       -1.2322  -23.8883  -57.0891 H         1 UNK         0.0600 
    229 H229       -0.9840  -24.0204  -55.3569 H         1 UNK         0.0600 
    230 H230       -2.5032  -22.0985  -53.7193 H         1 UNK         0.3000 
    231 H231       -1.6679  -19.5508  -54.9537 H         1 UNK         0.0600 
    232 H232       -1.1845  -18.8652  -52.6519 H         1 UNK         0.0600 
    233 H233       -0.4671  -20.4409  -52.9403 H         1 UNK         0.0600 
    234 H234       -1.9500  -20.3024  -51.9978 H         1 UNK         0.0600 
    235 H235       -4.3856  -20.9767  -53.2323 H         1 UNK         0.3000 
    236 H236       -6.5082  -20.4706  -52.8854 H         1 UNK         0.0600 
    237 H237       -6.5066  -20.3069  -55.3856 H         1 UNK         0.0600 
    238 H238       -7.7402  -19.2918  -54.6599 H         1 UNK         0.0600 
    239 H239       -6.2597  -18.5655  -55.2698 H         1 UNK         0.0600 
    240 H240       -4.3961  -18.6583  -51.6434 H         1 UNK         0.3000 
    241 H241       -5.6890  -16.1385  -51.1520 H         1 UNK         0.0600 
    242 H242       -7.0856  -18.4748  -48.2275 H         1 UNK         0.3800 
    243 H243       -6.4530  -19.1319  -49.7151 H         1 UNK         0.3800 
    244 H244       -3.3403  -16.0604  -51.2998 H         1 UNK         0.0800 
    245 H245       -3.6852  -15.7733  -49.6238 H         1 UNK         0.0800 
    246 H246       -1.3225  -16.3061  -48.7844 H         1 UNK         0.0800 
    247 H247       -0.9018  -17.9307  -48.3118 H         1 UNK         0.0800 
@<TRIPOS>BOND
     1    1    2 1    
     2    1  127 1    
     3    1  128 1    
     4    1  129 1    
     5    2    3 2    
     6    2    4 am   BACKBONE|DICT|INTERRES
     7    4    5 1    
     8    4  130 1    
     9    5    6 1    
    10    5   65 1    
    11    5  131 1    
    12    6    7 1    
    13    6  132 1    
    14    6  133 1    
    15    7    8 1    
    16    8    9 1    
    17    8  134 1    
    18    8  135 1    
    19    9   10 ar   
    20    9   14 ar   
    21   10   11 ar   
    22   10  136 1    
    23   11   12 ar   
    24   11  126 1    
    25   12   13 ar   
    26   12  137 1    
    27   13   14 ar   
    28   13   15 1    
    29   14  138 1    
    30   15   16 1    
    31   15  139 1    
    32   15  140 1    
    33   16   17 1    
    34   17   18 1    
    35   17  141 1    
    36   17  142 1    
    37   18   19 1    
    38   18   67 1    
    39   18  143 1    
    40   19   20 am   BACKBONE|DICT|INTERRES
    41   19  144 1    
    42   20   21 2    
    43   20   22 1    
    44   22   23 1    
    45   22   24 1    
    46   22  145 1    
    47   23  146 1    
    48   23  147 1    
    49   23  148 1    
    50   24   25 am   BACKBONE|DICT|INTERRES
    51   24  149 1    
    52   25   26 2    
    53   25   27 1    
    54   27   28 1    
    55   27   29 1    
    56   27  150 1    
    57   28  151 1    
    58   28  152 1    
    59   28  153 1    
    60   29   30 am   BACKBONE|DICT|INTERRES
    61   29  154 1    
    62   30   31 2    
    63   30   32 1    
    64   32   33 1    
    65   32   34 1    
    66   32  155 1    
    67   33  156 1    
    68   33  157 1    
    69   33  158 1    
    70   34   35 am   BACKBONE|DICT|INTERRES
    71   34  159 1    
    72   35   36 2    
    73   35   37 1    
    74   37   38 1    
    75   37   39 1    
    76   37  160 1    
    77   38  161 1    
    78   38  162 1    
    79   38  163 1    
    80   39   40 am   BACKBONE|DICT|INTERRES
    81   39  164 1    
    82   40   41 2    
    83   40   42 1    
    84   42   43 1    
    85   42   44 1    
    86   42  165 1    
    87   43  166 1    
    88   43  167 1    
    89   43  168 1    
    90   44   45 am   BACKBONE|DICT|INTERRES
    91   44  169 1    
    92   45   46 2    
    93   45   47 1    
    94   47   48 1    
    95   47   49 1    
    96   47  170 1    
    97   48  171 1    
    98   48  172 1    
    99   48  173 1    
   100   49   50 am   BACKBONE|DICT|INTERRES
   101   49  174 1    
   102   50   51 2    
   103   50   52 1    
   104   52   53 1    
   105   52   54 1    
   106   52  175 1    
   107   53  176 1    
   108   53  177 1    
   109   53  178 1    
   110   54   55 am   BACKBONE|DICT|INTERRES
   111   54  179 1    
   112   55   56 2    
   113   55   57 1    
   114   57   58 1    
   115   57   59 1    
   116   57  180 1    
   117   58  181 1    
   118   58  182 1    
   119   58  183 1    
   120   59   60 am   BACKBONE|DICT|INTERRES
   121   59  184 1    
   122   60   61 2    
   123   60   62 1    
   124   62   63 1    
   125   62   64 1    
   126   62  185 1    
   127   63  186 1    
   128   63  187 1    
   129   63  188 1    
   130   64   65 am   BACKBONE|DICT|INTERRES
   131   64  189 1    
   132   65   66 2    
   133   67   68 2    
   134   67   69 am   BACKBONE|DICT|INTERRES
   135   69   70 1    
   136   69  190 1    
   137   70   71 1    
   138   70   72 1    
   139   70  191 1    
   140   71  192 1    
   141   71  193 1    
   142   71  194 1    
   143   72   73 2    
   144   72   74 am   BACKBONE|DICT|INTERRES
   145   74   75 1    
   146   74  195 1    
   147   75   76 1    
   148   75   77 1    
   149   75  196 1    
   150   76  197 1    
   151   76  198 1    
   152   76  199 1    
   153   77   78 2    
   154   77   79 am   BACKBONE|DICT|INTERRES
   155   79   80 1    
   156   79  200 1    
   157   80   81 1    
   158   80   82 1    
   159   80  201 1    
   160   81  202 1    
   161   81  203 1    
   162   81  204 1    
   163   82   83 2    
   164   82   84 am   BACKBONE|DICT|INTERRES
   165   84   85 1    
   166   84  205 1    
   167   85   86 1    
   168   85   87 1    
   169   85  206 1    
   170   86  207 1    
   171   86  208 1    
   172   86  209 1    
   173   87   88 2    
   174   87   89 am   BACKBONE|DICT|INTERRES
   175   89   90 1    
   176   89  210 1    
   177   90   91 1    
   178   90   92 1    
   179   90  211 1    
   180   91  212 1    
   181   91  213 1    
   182   91  214 1    
   183   92   93 2    
   184   92   94 am   BACKBONE|DICT|INTERRES
   185   94   95 1    
   186   94  215 1    
   187   95   96 1    
   188   95   97 1    
   189   95  216 1    
   190   96  217 1    
   191   96  218 1    
   192   96  219 1    
   193   97   98 2    
   194   97   99 am   BACKBONE|DICT|INTERRES
   195   99  100 1    
   196   99  220 1    
   197  100  101 1    
   198  100  102 1    
   199  100  221 1    
   200  101  222 1    
   201  101  223 1    
   202  101  224 1    
   203  102  103 2    
   204  102  104 am   BACKBONE|DICT|INTERRES
   205  104  105 1    
   206  104  225 1    
   207  105  106 1    
   208  105  107 1    
   209  105  226 1    
   210  106  227 1    
   211  106  228 1    
   212  106  229 1    
   213  107  108 2    
   214  107  109 am   BACKBONE|DICT|INTERRES
   215  109  110 1    
   216  109  230 1    
   217  110  111 1    
   218  110  112 1    
   219  110  231 1    
   220  111  232 1    
   221  111  233 1    
   222  111  234 1    
   223  112  113 2    
   224  112  114 am   BACKBONE|DICT|INTERRES
   225  114  115 1    
   226  114  235 1    
   227  115  116 1    
   228  115  117 1    
   229  115  236 1    
   230  116  237 1    
   231  116  238 1    
   232  116  239 1    
   233  117  118 2    
   234  117  119 am   BACKBONE|DICT|INTERRES
   235  119  120 1    
   236  119  240 1    
   237  120  121 1    
   238  120  124 1    
   239  120  241 1    
   240  121  122 am   BACKBONE|DICT|INTERRES
   241  121  123 2    
   242  122  242 1    
   243  122  243 1    
   244  124  125 1    
   245  124  244 1    
   246  124  245 1    
   247  125  126 1    
   248  126  246 1    
   249  126  247 1    
@<TRIPOS>SUBSTRUCTURE
     1 UNK         1 GROUP             0       ****    0 ROOT    
