@<TRIPOS>MOLECULE
3R540
247   249    1
SMALL
USER_CHARGES


@<TRIPOS>ATOM
      1 CA          0.2586  -10.3806  -51.8673 C.3       0 UNK        -0.1800 
      2 C           0.5952  -11.0317  -50.5330 C.2       0 UNK         0.5000 
      3 O           1.0989  -10.3592  -49.6330 O.2       0 UNK        -0.5000 
      4 N           0.3263  -12.3368  -50.4049 N.am      1 UNK        -0.5000 
      5 CA          0.5162  -13.1158  -49.1790 C.3       1 UNK         0.1400 
      6 C6          0.5011  -14.6361  -49.4737 C.3       23 UNK        -0.0398 
      7 S7          1.2914  -15.6334  -48.1606 S.3       23 UNK        -0.2404 
      8 C8          2.4886  -16.6395  -49.1016 C.3       23 UNK        -0.0205 
      9 C9          1.8796  -17.9136  -49.6825 C.ar      23 UNK        -0.0193 
     10 C10         0.8708  -17.8512  -50.6489 C.ar      23 UNK        -0.1150 
     11 C11         0.3397  -19.0150  -51.2098 C.ar      23 UNK        -0.0193 
     12 C12         0.8267  -20.2588  -50.7991 C.ar      23 UNK        -0.1150 
     13 C13         1.8427  -20.3423  -49.8403 C.ar      23 UNK        -0.0193 
     14 C14         2.3622  -19.1656  -49.2870 C.ar      23 UNK        -0.1150 
     15 C15         2.3935  -21.7066  -49.4319 C.3       23 UNK        -0.0205 
     16 S16         2.4427  -21.9602  -47.6257 S.3       23 UNK        -0.2404 
     17 C17         0.7081  -21.6382  -47.1776 C.3       23 UNK        -0.0398 
     18 CA          0.1424  -22.6377  -46.1415 C.3       11 UNK         0.1400 
     19 N           0.8567  -22.5633  -44.8684 N.am      11 UNK        -0.5000 
     20 C           1.1721  -23.5964  -44.0808 C.2       10 UNK         0.5000 
     21 O           0.8671  -24.7637  -44.3309 O.2       10 UNK        -0.5000 
     22 CA          1.9478  -23.2493  -42.7907 C.3       10 UNK         0.1400 
     23 CB          2.7175  -24.4488  -42.1998 C.3       10 UNK        -0.1800 
     24 N           2.8212  -22.0798  -42.9484 N.am      10 UNK        -0.5000 
     25 C           3.8917  -21.9519  -43.7489 C.2       9 UNK         0.5000 
     26 O           4.3580  -22.8711  -44.4225 O.2       9 UNK        -0.5000 
     27 CA          4.5530  -20.5585  -43.8291 C.3       9 UNK         0.1400 
     28 CB          4.2985  -19.9213  -45.2045 C.3       9 UNK        -0.1800 
     29 N           4.0931  -19.6295  -42.7954 N.am      9 UNK        -0.5000 
     30 C           4.4569  -19.6698  -41.5070 C.2       8 UNK         0.5000 
     31 O           5.2800  -20.4650  -41.0526 O.2       8 UNK        -0.5000 
     32 CA          3.7500  -18.6802  -40.5607 C.3       8 UNK         0.1400 
     33 CB          4.4668  -17.3217  -40.5608 C.3       8 UNK        -0.1800 
     34 N           2.3330  -18.4887  -40.8850 N.am      8 UNK        -0.5000 
     35 C           1.4004  -19.4504  -40.8193 C.2       7 UNK         0.5000 
     36 O           1.6326  -20.6031  -40.4558 O.2       7 UNK        -0.5000 
     37 CA         -0.0190  -19.0848  -41.2857 C.3       7 UNK         0.1400 
     38 CB         -0.7748  -18.3079  -40.1983 C.3       7 UNK        -0.1800 
     39 N          -0.0209  -18.3266  -42.5375 N.am      7 UNK        -0.5000 
     40 C           0.3800  -18.8178  -43.7187 C.2       6 UNK         0.5000 
     41 O           0.7263  -19.9860  -43.8838 O.2       6 UNK        -0.5000 
     42 CA          0.4368  -17.8449  -44.9089 C.3       6 UNK         0.1400 
     43 CB         -0.9420  -17.7099  -45.5701 C.3       6 UNK        -0.1800 
     44 N           0.9367  -16.5265  -44.5261 N.am      6 UNK        -0.5000 
     45 C           2.1687  -16.2913  -44.0540 C.2       5 UNK         0.5000 
     46 O           3.0325  -17.1585  -43.9274 O.2       5 UNK        -0.5000 
     47 CA          2.4618  -14.8587  -43.5820 C.3       5 UNK         0.1400 
     48 CB          2.7622  -13.9333  -44.7714 C.3       5 UNK        -0.1800 
     49 N           1.3583  -14.3161  -42.7880 N.am      5 UNK        -0.5000 
     50 C           1.0228  -14.7529  -41.5652 C.2       4 UNK         0.5000 
     51 O           1.6321  -15.6377  -40.9653 O.2       4 UNK        -0.5000 
     52 CA         -0.2225  -14.1198  -40.9177 C.3       4 UNK         0.1400 
     53 CB          0.1440  -12.8048  -40.2141 C.3       4 UNK        -0.1800 
     54 N          -1.2946  -13.8707  -41.8816 N.am      4 UNK        -0.5000 
     55 C          -1.9875  -14.8304  -42.5114 C.2       3 UNK         0.5000 
     56 O          -1.8224  -16.0337  -42.3177 O.2       3 UNK        -0.5000 
     57 CA         -2.9895  -14.3623  -43.5843 C.3       3 UNK         0.1400 
     58 CB         -4.3366  -13.9933  -42.9459 C.3       3 UNK        -0.1800 
     59 N          -2.4935  -13.2297  -44.3741 N.am      3 UNK        -0.5000 
     60 C          -1.3865  -13.2711  -45.1265 C.2       2 UNK         0.5000 
     61 O          -0.6717  -14.2705  -45.2250 O.2       2 UNK        -0.5000 
     62 CA         -0.9707  -11.9643  -45.8234 C.3       2 UNK         0.1400 
     63 CB         -0.2017  -11.0622  -44.8448 C.3       2 UNK        -0.1800 
     64 N          -0.1153  -12.2394  -46.9763 N.am      2 UNK        -0.5000 
     65 C          -0.5562  -12.7249  -48.1420 C.2       1 UNK         0.5000 
     66 O          -1.7503  -12.8627  -48.4209 O.2       1 UNK        -0.5000 
     67 C          -1.3569  -22.3424  -45.9681 C.2       11 UNK         0.5000 
     68 O          -2.1138  -22.6617  -46.8811 O.2       11 UNK        -0.5000 
     69 N          -1.7567  -21.7038  -44.8557 N.am      12 UNK        -0.5000 
     70 CA         -3.0649  -21.0704  -44.6253 C.3       12 UNK         0.1400 
     71 CB         -3.1658  -20.6297  -43.1577 C.3       12 UNK        -0.1800 
     72 C          -4.3079  -21.8875  -45.0295 C.2       12 UNK         0.5000 
     73 O          -5.2328  -21.3267  -45.6178 O.2       12 UNK        -0.5000 
     74 N          -4.2919  -23.1961  -44.7447 N.am      13 UNK        -0.5000 
     75 CA         -5.3663  -24.1317  -45.0877 C.3       13 UNK         0.1400 
     76 CB         -5.1077  -25.4702  -44.3794 C.3       13 UNK        -0.1800 
     77 C          -5.5416  -24.3505  -46.6048 C.2       13 UNK         0.5000 
     78 O          -6.6585  -24.6147  -47.0508 O.2       13 UNK        -0.5000 
     79 N          -4.4455  -24.2336  -47.3644 N.am      14 UNK        -0.5000 
     80 CA         -4.4202  -24.3420  -48.8208 C.3       14 UNK         0.1400 
     81 CB         -3.1144  -25.0288  -49.2517 C.3       14 UNK        -0.1800 
     82 C          -4.5447  -22.9566  -49.4723 C.2       14 UNK         0.5000 
     83 O          -5.2885  -22.8048  -50.4415 O.2       14 UNK        -0.5000 
     84 N          -3.8374  -21.9601  -48.9193 N.am      15 UNK        -0.5000 
     85 CA         -3.7903  -20.5714  -49.3868 C.3       15 UNK         0.1400 
     86 CB         -2.7464  -19.7893  -48.5772 C.3       15 UNK        -0.1800 
     87 C          -5.1545  -19.8569  -49.3621 C.2       15 UNK         0.5000 
     88 O          -5.3674  -18.9467  -50.1625 O.2       15 UNK        -0.5000 
     89 N          -6.0816  -20.3293  -48.5164 N.am      16 UNK        -0.5000 
     90 CA         -7.4983  -19.9502  -48.5127 C.3       16 UNK         0.1400 
     91 CB         -8.1964  -20.6584  -47.3418 C.3       16 UNK        -0.1800 
     92 C          -8.2314  -20.2562  -49.8394 C.2       16 UNK         0.5000 
     93 O          -9.2089  -19.5788  -50.1582 O.2       16 UNK        -0.5000 
     94 N          -7.7315  -21.2429  -50.5956 N.am      17 UNK        -0.5000 
     95 CA         -8.1697  -21.6096  -51.9428 C.3       17 UNK         0.1400 
     96 CB         -8.5589  -23.0985  -51.9392 C.3       17 UNK        -0.1800 
     97 C          -7.0657  -21.3085  -52.9810 C.2       17 UNK         0.5000 
     98 O          -7.0434  -21.9257  -54.0472 O.2       17 UNK        -0.5000 
     99 N          -6.1461  -20.3894  -52.6416 N.am      18 UNK        -0.5000 
    100 CA        -4.9801  -19.9435  -53.4158 C.3       18 UNK         0.1400 
    101 CB        -5.4246  -19.2590  -54.7239 C.3       18 UNK        -0.1800 
    102 C         -3.9213  -21.0396  -53.6641 C.2       18 UNK         0.5000 
    103 O         -3.0652  -20.8704  -54.5340 O.2       18 UNK        -0.5000 
    104 N         -3.9969  -22.1546  -52.9219 N.am      19 UNK        -0.5000 
    105 CA        -3.1255  -23.3367  -52.9740 C.3       19 UNK         0.1400 
    106 CB        -1.7350  -22.9865  -52.4057 C.3       19 UNK        -0.1800 
    107 C         -3.0386  -24.0188  -54.3588 C.2       19 UNK         0.5000 
    108 O         -2.1190  -24.8044  -54.5914 O.2       19 UNK        -0.5000 
    109 N         -3.9802  -23.6850  -55.2567 N.am      20 UNK        -0.5000 
    110 CA        -4.0064  -24.0039  -56.6882 C.3       20 UNK         0.1400 
    111 CB        -4.2667  -25.5094  -56.9032 C.3       20 UNK        -0.1800 
    112 C         -2.7610  -23.4923  -57.4530 C.2       20 UNK         0.5000 
    113 O         -2.3766  -24.0928  -58.4588 O.2       20 UNK        -0.5000 
    114 N         -2.1446  -22.4060  -56.9626 N.am      21 UNK        -0.5000 
    115 CA        -0.8752  -21.8780  -57.4667 C.3       21 UNK         0.1400 
    116 CB         0.2798  -22.4494  -56.6267 C.3       21 UNK        -0.1800 
    117 C         -0.8293  -20.3425  -57.4726 C.2       21 UNK         0.5000 
    118 O         -0.2421  -19.7652  -58.3888 O.2       21 UNK        -0.5000 
    119 N         -1.4388  -19.7041  -56.4669 N.am      22 UNK        -0.5000 
    120 CA        -1.4581  -18.2425  -56.2901 C.3       22 UNK         0.1400 
    121 C         -2.5825  -17.5178  -57.0881 C.2       22 UNK         0.5000 
    122 N         -3.4528  -18.2186  -57.8050 N.am      22 UNK        -0.7600 
    123 O         -2.6601  -16.2925  -57.0675 O.2       22 UNK        -0.5000 
    124 C124       -1.4865  -17.8515  -54.7890 C.3       23 UNK        -0.0398 
    125 S125       -0.0227  -18.4577  -53.8816 S.3       23 UNK        -0.2404 
    126 C126       -0.7436  -18.9097  -52.2728 C.3       23 UNK        -0.0205 
    127 H127       -0.1707  -11.0945  -52.5706 H         1 UNK         0.0600 
    128 H128       -0.4600   -9.5743  -51.7203 H         1 UNK         0.0600 
    129 H129        1.1579   -9.9596  -52.3169 H         1 UNK         0.0600 
    130 H130       -0.1194  -12.8234  -51.1694 H         1 UNK         0.3000 
    131 H131        1.5024  -12.8608  -48.7837 H         1 UNK         0.0600 
    132 H132        1.0395  -14.8114  -50.4051 H         1 UNK         0.0800 
    133 H133       -0.5129  -15.0043  -49.6411 H         1 UNK         0.0800 
    134 H134        3.3073  -16.8930  -48.4265 H         1 UNK         0.0800 
    135 H135        2.9364  -16.0485  -49.9013 H         1 UNK         0.0800 
    136 H136        0.5008  -16.8971  -50.9885 H         1 UNK         0.1150 
    137 H137        0.4260  -21.1605  -51.2399 H         1 UNK         0.1150 
    138 H138        3.1530  -19.2289  -48.5527 H         1 UNK         0.1150 
    139 H139        1.8056  -22.5101  -49.8785 H         1 UNK         0.0800 
    140 H140        3.4044  -21.8087  -49.8281 H         1 UNK         0.0800 
    141 H141        0.1116  -21.6746  -48.0911 H         1 UNK         0.0800 
    142 H142        0.6401  -20.6124  -46.8101 H         1 UNK         0.0800 
    143 H143        0.2287  -23.6447  -46.5550 H         1 UNK         0.0600 
    144 H144        1.1027  -21.6272  -44.5529 H         1 UNK         0.3000 
    145 H145        1.1922  -22.9574  -42.0602 H         1 UNK         0.0600 
    146 H146        3.2539  -24.1645  -41.2945 H         1 UNK         0.0600 
    147 H147        2.0351  -25.2559  -41.9316 H         1 UNK         0.0600 
    148 H148        3.4411  -24.8564  -42.9059 H         1 UNK         0.0600 
    149 H149        2.5277  -21.2588  -42.4346 H         1 UNK         0.3000 
    150 H150        5.6294  -20.6999  -43.7134 H         1 UNK         0.0600 
    151 H151        4.6800  -20.5541  -46.0064 H         1 UNK         0.0600 
    152 H152        4.7951  -18.9548  -45.2913 H         1 UNK         0.0600 
    153 H153        3.2337  -19.7679  -45.3843 H         1 UNK         0.0600 
    154 H154        3.4681  -18.8886  -43.1008 H         1 UNK         0.3000 
    155 H155        3.8064  -19.0926  -39.5512 H         1 UNK         0.0600 
    156 H156        4.4132  -16.8382  -41.5366 H         1 UNK         0.0600 
    157 H157        5.5215  -17.4355  -40.3072 H         1 UNK         0.0600 
    158 H158        4.0275  -16.6448  -39.8280 H         1 UNK         0.0600 
    159 H159        2.0538  -17.5499  -41.1545 H         1 UNK         0.3000 
    160 H160       -0.5537  -20.0206  -41.4593 H         1 UNK         0.0600 
    161 H161       -1.8111  -18.1344  -40.4885 H         1 UNK         0.0600 
    162 H162       -0.3158  -17.3394  -40.0006 H         1 UNK         0.0600 
    163 H163       -0.7892  -18.8630  -39.2596 H         1 UNK         0.0600 
    164 H164       -0.3672  -17.3734  -42.4924 H         1 UNK         0.3000 
    165 H165        1.1274  -18.2583  -45.6470 H         1 UNK         0.0600 
    166 H166       -0.9037  -17.0396  -46.4289 H         1 UNK         0.0600 
    167 H167       -1.2945  -18.6765  -45.9296 H         1 UNK         0.0600 
    168 H168       -1.6869  -17.3202  -44.8755 H         1 UNK         0.0600 
    169 H169        0.3017  -15.7409  -44.6504 H         1 UNK         0.3000 
    170 H170        3.3506  -14.8909  -42.9483 H         1 UNK         0.0600 
    171 H171        3.6171  -14.3009  -45.3403 H         1 UNK         0.0600 
    172 H172        1.9206  -13.8683  -45.4602 H         1 UNK         0.0600 
    173 H173        3.0037  -12.9245  -44.4368 H         1 UNK         0.0600 
    174 H174        0.7679  -13.6336  -43.2372 H         1 UNK         0.3000 
    175 H175       -0.5973  -14.8164  -40.1650 H         1 UNK         0.0600 
    176 H176       -0.7141  -12.3874  -39.6869 H         1 UNK         0.0600 
    177 H177        0.9313  -12.9641  -39.4759 H         1 UNK         0.0600 
    178 H178        0.5025  -12.0545  -40.9200 H         1 UNK         0.0600 
    179 H179       -1.4969  -12.9071  -42.1024 H         1 UNK         0.3000 
    180 H180       -3.1532  -15.1984  -44.2675 H         1 UNK         0.0600 
    181 H181       -4.2451  -13.1393  -42.2736 H         1 UNK         0.0600 
    182 H182       -4.7342  -14.8271  -42.3655 H         1 UNK         0.0600 
    183 H183       -5.0782  -13.7454  -43.7054 H         1 UNK         0.0600 
    184 H184       -3.0297  -12.3752  -44.3280 H         1 UNK         0.3000 
    185 H185       -1.8679  -11.4405  -46.1600 H         1 UNK         0.0600 
    186 H186        0.7049  -11.5434  -44.4763 H         1 UNK         0.0600 
    187 H187        0.0881  -10.1248  -45.3203 H         1 UNK         0.0600 
    188 H188       -0.8139  -10.8077  -43.9788 H         1 UNK         0.0600 
    189 H189        0.8791  -12.1637  -46.8242 H         1 UNK         0.3000 
    190 H190       -1.0405  -21.4866  -44.1765 H         1 UNK         0.3000 
    191 H191       -3.0840  -20.1660  -45.2338 H         1 UNK         0.0600 
    192 H192       -2.4396  -19.8505  -42.9325 H         1 UNK         0.0600 
    193 H193       -2.9960  -21.4616  -42.4734 H         1 UNK         0.0600 
    194 H194       -4.1509  -20.2163  -42.9359 H         1 UNK         0.0600 
    195 H195       -3.4817  -23.5784  -44.2794 H         1 UNK         0.3000 
    196 H196       -6.3035  -23.7203  -44.7068 H         1 UNK         0.0600 
    197 H197       -5.9037  -26.1851  -44.5919 H         1 UNK         0.0600 
    198 H198       -5.0674  -25.3432  -43.2975 H         1 UNK         0.0600 
    199 H199       -4.1676  -25.9202  -44.7011 H         1 UNK         0.0600 
    200 H200       -3.5803  -23.9363  -46.9255 H         1 UNK         0.3000 
    201 H201       -5.2552  -24.9559  -49.1649 H         1 UNK         0.0600 
    202 H202       -3.0102  -26.0046  -48.7770 H         1 UNK         0.0600 
    203 H203       -2.2358  -24.4369  -48.9917 H         1 UNK         0.0600 
    204 H204       -3.0932  -25.1924  -50.3286 H         1 UNK         0.0600 
    205 H205       -3.2358  -22.1866  -48.1290 H         1 UNK         0.3000 
    206 H206       -3.4583  -20.5919  -50.4264 H         1 UNK         0.0600 
    207 H207       -1.7575  -20.2370  -48.6706 H         1 UNK         0.0600 
    208 H208       -2.6671  -18.7597  -48.9288 H         1 UNK         0.0600 
    209 H209       -3.0055  -19.7566  -47.5200 H         1 UNK         0.0600 
    210 H210       -5.8045  -21.0398  -47.8508 H         1 UNK         0.3000 
    211 H211       -7.5543  -18.8724  -48.3480 H         1 UNK         0.0600 
    212 H212       -8.1227  -21.7435  -47.4277 H         1 UNK         0.0600 
    213 H213       -9.2557  -20.4014  -47.3020 H         1 UNK         0.0600 
    214 H214       -7.7570  -20.3678  -46.3874 H         1 UNK         0.0600 
    215 H215       -6.9110  -21.7435  -50.2666 H         1 UNK         0.3000 
    216 H216       -9.0455  -21.0268  -52.2339 H         1 UNK         0.0600 
    217 H217       -8.9531  -23.4066  -52.9083 H         1 UNK         0.0600 
    218 H218       -9.3318  -23.3008  -51.1977 H         1 UNK         0.0600 
    219 H219       -7.7029  -23.7357  -51.7127 H         1 UNK         0.0600 
    220 H220       -6.2420  -19.9406  -51.7372 H         1 UNK         0.3000 
    221 H221       -4.4847  -19.1887  -52.8040 H         1 UNK         0.0600 
    222 H222       -5.8450  -19.9710  -55.4345 H         1 UNK         0.0600 
    223 H223       -6.1748  -18.4918  -54.5330 H         1 UNK         0.0600 
    224 H224       -4.5853  -18.7697  -55.2155 H         1 UNK         0.0600 
    225 H225       -4.7350  -22.2132  -52.2271 H         1 UNK         0.3000 
    226 H226       -3.5826  -24.0740  -52.3151 H         1 UNK         0.0600 
    227 H227       -1.8161  -22.5237  -51.4220 H         1 UNK         0.0600 
    228 H228       -1.1953  -22.2996  -53.0585 H         1 UNK         0.0600 
    229 H229       -1.1199  -23.8795  -52.2907 H         1 UNK         0.0600 
    230 H230       -4.6974  -23.0436  -54.9449 H         1 UNK         0.3000 
    231 H231       -4.8563  -23.4604  -57.1031 H         1 UNK         0.0600 
    232 H232       -5.1508  -25.8383  -56.3572 H         1 UNK         0.0600 
    233 H233       -3.4235  -26.1172  -56.5740 H         1 UNK         0.0600 
    234 H234       -4.4377  -25.7314  -57.9571 H         1 UNK         0.0600 
    235 H235       -2.5284  -21.9618  -56.1352 H         1 UNK         0.3000 
    236 H236       -0.7308  -22.1918  -58.5027 H         1 UNK         0.0600 
    237 H237        1.2424  -22.0712  -56.9730 H         1 UNK         0.0600 
    238 H238        0.1786  -22.1820  -55.5739 H         1 UNK         0.0600 
    239 H239        0.3138  -23.5371  -56.6924 H         1 UNK         0.0600 
    240 H240       -1.9189  -20.2295  -55.7405 H         1 UNK         0.3000 
    241 H241       -0.5267  -17.8444  -56.6974 H         1 UNK         0.0600 
    242 H242       -4.1709  -17.7383  -58.3241 H         1 UNK         0.3800 
    243 H243       -3.3917  -19.2230  -57.8411 H         1 UNK         0.3800 
    244 H244       -1.5111  -16.7667  -54.6725 H         1 UNK         0.0800 
    245 H245       -2.3932  -18.2287  -54.3163 H         1 UNK         0.0800 
    246 H246       -1.2870  -19.8504  -52.3695 H         1 UNK         0.0800 
    247 H247       -1.4729  -18.1570  -51.9691 H         1 UNK         0.0800 
@<TRIPOS>BOND
     1    1    2 1    
     2    1  127 1    
     3    1  128 1    
     4    1  129 1    
     5    2    3 2    
     6    2    4 am   BACKBONE|DICT|INTERRES
     7    4    5 1    
     8    4  130 1    
     9    5    6 1    
    10    5   65 1    
    11    5  131 1    
    12    6    7 1    
    13    6  132 1    
    14    6  133 1    
    15    7    8 1    
    16    8    9 1    
    17    8  134 1    
    18    8  135 1    
    19    9   10 ar   
    20    9   14 ar   
    21   10   11 ar   
    22   10  136 1    
    23   11   12 ar   
    24   11  126 1    
    25   12   13 ar   
    26   12  137 1    
    27   13   14 ar   
    28   13   15 1    
    29   14  138 1    
    30   15   16 1    
    31   15  139 1    
    32   15  140 1    
    33   16   17 1    
    34   17   18 1    
    35   17  141 1    
    36   17  142 1    
    37   18   19 1    
    38   18   67 1    
    39   18  143 1    
    40   19   20 am   BACKBONE|DICT|INTERRES
    41   19  144 1    
    42   20   21 2    
    43   20   22 1    
    44   22   23 1    
    45   22   24 1    
    46   22  145 1    
    47   23  146 1    
    48   23  147 1    
    49   23  148 1    
    50   24   25 am   BACKBONE|DICT|INTERRES
    51   24  149 1    
    52   25   26 2    
    53   25   27 1    
    54   27   28 1    
    55   27   29 1    
    56   27  150 1    
    57   28  151 1    
    58   28  152 1    
    59   28  153 1    
    60   29   30 am   BACKBONE|DICT|INTERRES
    61   29  154 1    
    62   30   31 2    
    63   30   32 1    
    64   32   33 1    
    65   32   34 1    
    66   32  155 1    
    67   33  156 1    
    68   33  157 1    
    69   33  158 1    
    70   34   35 am   BACKBONE|DICT|INTERRES
    71   34  159 1    
    72   35   36 2    
    73   35   37 1    
    74   37   38 1    
    75   37   39 1    
    76   37  160 1    
    77   38  161 1    
    78   38  162 1    
    79   38  163 1    
    80   39   40 am   BACKBONE|DICT|INTERRES
    81   39  164 1    
    82   40   41 2    
    83   40   42 1    
    84   42   43 1    
    85   42   44 1    
    86   42  165 1    
    87   43  166 1    
    88   43  167 1    
    89   43  168 1    
    90   44   45 am   BACKBONE|DICT|INTERRES
    91   44  169 1    
    92   45   46 2    
    93   45   47 1    
    94   47   48 1    
    95   47   49 1    
    96   47  170 1    
    97   48  171 1    
    98   48  172 1    
    99   48  173 1    
   100   49   50 am   BACKBONE|DICT|INTERRES
   101   49  174 1    
   102   50   51 2    
   103   50   52 1    
   104   52   53 1    
   105   52   54 1    
   106   52  175 1    
   107   53  176 1    
   108   53  177 1    
   109   53  178 1    
   110   54   55 am   BACKBONE|DICT|INTERRES
   111   54  179 1    
   112   55   56 2    
   113   55   57 1    
   114   57   58 1    
   115   57   59 1    
   116   57  180 1    
   117   58  181 1    
   118   58  182 1    
   119   58  183 1    
   120   59   60 am   BACKBONE|DICT|INTERRES
   121   59  184 1    
   122   60   61 2    
   123   60   62 1    
   124   62   63 1    
   125   62   64 1    
   126   62  185 1    
   127   63  186 1    
   128   63  187 1    
   129   63  188 1    
   130   64   65 am   BACKBONE|DICT|INTERRES
   131   64  189 1    
   132   65   66 2    
   133   67   68 2    
   134   67   69 am   BACKBONE|DICT|INTERRES
   135   69   70 1    
   136   69  190 1    
   137   70   71 1    
   138   70   72 1    
   139   70  191 1    
   140   71  192 1    
   141   71  193 1    
   142   71  194 1    
   143   72   73 2    
   144   72   74 am   BACKBONE|DICT|INTERRES
   145   74   75 1    
   146   74  195 1    
   147   75   76 1    
   148   75   77 1    
   149   75  196 1    
   150   76  197 1    
   151   76  198 1    
   152   76  199 1    
   153   77   78 2    
   154   77   79 am   BACKBONE|DICT|INTERRES
   155   79   80 1    
   156   79  200 1    
   157   80   81 1    
   158   80   82 1    
   159   80  201 1    
   160   81  202 1    
   161   81  203 1    
   162   81  204 1    
   163   82   83 2    
   164   82   84 am   BACKBONE|DICT|INTERRES
   165   84   85 1    
   166   84  205 1    
   167   85   86 1    
   168   85   87 1    
   169   85  206 1    
   170   86  207 1    
   171   86  208 1    
   172   86  209 1    
   173   87   88 2    
   174   87   89 am   BACKBONE|DICT|INTERRES
   175   89   90 1    
   176   89  210 1    
   177   90   91 1    
   178   90   92 1    
   179   90  211 1    
   180   91  212 1    
   181   91  213 1    
   182   91  214 1    
   183   92   93 2    
   184   92   94 am   BACKBONE|DICT|INTERRES
   185   94   95 1    
   186   94  215 1    
   187   95   96 1    
   188   95   97 1    
   189   95  216 1    
   190   96  217 1    
   191   96  218 1    
   192   96  219 1    
   193   97   98 2    
   194   97   99 am   BACKBONE|DICT|INTERRES
   195   99  100 1    
   196   99  220 1    
   197  100  101 1    
   198  100  102 1    
   199  100  221 1    
   200  101  222 1    
   201  101  223 1    
   202  101  224 1    
   203  102  103 2    
   204  102  104 am   BACKBONE|DICT|INTERRES
   205  104  105 1    
   206  104  225 1    
   207  105  106 1    
   208  105  107 1    
   209  105  226 1    
   210  106  227 1    
   211  106  228 1    
   212  106  229 1    
   213  107  108 2    
   214  107  109 am   BACKBONE|DICT|INTERRES
   215  109  110 1    
   216  109  230 1    
   217  110  111 1    
   218  110  112 1    
   219  110  231 1    
   220  111  232 1    
   221  111  233 1    
   222  111  234 1    
   223  112  113 2    
   224  112  114 am   BACKBONE|DICT|INTERRES
   225  114  115 1    
   226  114  235 1    
   227  115  116 1    
   228  115  117 1    
   229  115  236 1    
   230  116  237 1    
   231  116  238 1    
   232  116  239 1    
   233  117  118 2    
   234  117  119 am   BACKBONE|DICT|INTERRES
   235  119  120 1    
   236  119  240 1    
   237  120  121 1    
   238  120  124 1    
   239  120  241 1    
   240  121  122 am   BACKBONE|DICT|INTERRES
   241  121  123 2    
   242  122  242 1    
   243  122  243 1    
   244  124  125 1    
   245  124  244 1    
   246  124  245 1    
   247  125  126 1    
   248  126  246 1    
   249  126  247 1    
@<TRIPOS>SUBSTRUCTURE
     1 UNK         1 GROUP             0       ****    0 ROOT    
