@<TRIPOS>MOLECULE
3R540
247   249    1
SMALL
USER_CHARGES


@<TRIPOS>ATOM
      1 CA          8.5254  -13.8874  -48.0710 C.3       0 UNK        -0.1800 
      2 C           7.0258  -13.8965  -47.8126 C.2       0 UNK         0.5000 
      3 O           6.5670  -14.5501  -46.8747 O.2       0 UNK        -0.5000 
      4 N           6.2575  -13.1653  -48.6295 N.am      1 UNK        -0.5000 
      5 CA          4.7942  -13.0548  -48.5661 C.3       1 UNK         0.1400 
      6 C6          4.1840  -12.6556  -49.9369 C.3       23 UNK        -0.0398 
      7 S7          4.6046  -13.8155  -51.2858 S.3       23 UNK        -0.2404 
      8 C8          2.9876  -14.0405  -52.1112 C.3       23 UNK        -0.0205 
      9 C9          2.1179  -15.1741  -51.5628 C.ar      23 UNK        -0.0193 
     10 C10         1.1852  -15.7765  -52.4135 C.ar      23 UNK        -0.1150 
     11 C11         0.3694  -16.8184  -51.9621 C.ar      23 UNK        -0.0193 
     12 C12         0.4899  -17.2656  -50.6446 C.ar      23 UNK        -0.1150 
     13 C13         1.4000  -16.6618  -49.7740 C.ar      23 UNK        -0.0193 
     14 C14         2.2058  -15.6189  -50.2381 C.ar      23 UNK        -0.1150 
     15 C15         1.5206  -17.1241  -48.3312 C.3       23 UNK        -0.0205 
     16 S16         0.2557  -16.3433  -47.2769 S.3       23 UNK        -0.2404 
     17 C17        -1.1945  -17.4615  -47.3109 C.3       23 UNK        -0.0398 
     18 CA         -0.9390  -18.9894  -47.4162 C.3       11 UNK         0.1400 
     19 N          -0.0114  -19.5119  -46.4030 N.am      11 UNK        -0.5000 
     20 C           0.4895  -20.7576  -46.4168 C.2       10 UNK         0.5000 
     21 O           0.2559  -21.5717  -47.3098 O.2       10 UNK        -0.5000 
     22 CA          1.3552  -21.1943  -45.2197 C.3       10 UNK         0.1400 
     23 CB          2.8069  -20.7187  -45.3795 C.3       10 UNK        -0.1800 
     24 N           0.8122  -20.7470  -43.9365 N.am      10 UNK        -0.5000 
     25 C          -0.3474  -21.1797  -43.4194 C.2       9 UNK         0.5000 
     26 O          -1.0476  -22.0421  -43.9475 O.2       9 UNK        -0.5000 
     27 CA         -0.8414  -20.4992  -42.1284 C.3       9 UNK         0.1400 
     28 CB         -0.1924  -21.1281  -40.8870 C.3       9 UNK        -0.1800 
     29 N          -0.6077  -19.0558  -42.1304 N.am      9 UNK        -0.5000 
     30 C          -1.1403  -18.2039  -43.0183 C.2       8 UNK         0.5000 
     31 O          -1.9465  -18.5300  -43.8895 O.2       8 UNK        -0.5000 
     32 CA         -0.6350  -16.7539  -42.9597 C.3       8 UNK         0.1400 
     33 CB         -1.3996  -15.9702  -41.8822 C.3       8 UNK        -0.1800 
     34 N           0.8138  -16.6838  -42.7312 N.am      8 UNK        -0.5000 
     35 C           1.7254  -17.1566  -43.5964 C.2       7 UNK         0.5000 
     36 O           1.4336  -17.6512  -44.6803 O.2       7 UNK        -0.5000 
     37 CA          3.1988  -17.1479  -43.1608 C.3       7 UNK         0.1400 
     38 CB          3.8710  -15.8044  -43.4775 C.3       7 UNK        -0.1800 
     39 N           3.3406  -17.4760  -41.7435 N.am      7 UNK        -0.5000 
     40 C           3.1735  -18.7170  -41.2613 C.2       6 UNK         0.5000 
     41 O           2.9394  -19.6935  -41.9738 O.2       6 UNK        -0.5000 
     42 CA          3.2385  -18.9016  -39.7332 C.3       6 UNK         0.1400 
     43 CB          4.6696  -19.2435  -39.2936 C.3       6 UNK        -0.1800 
     44 N           2.7700  -17.7367  -38.9810 N.am      6 UNK        -0.5000 
     45 C           1.5243  -17.2456  -39.0203 C.2       5 UNK         0.5000 
     46 O           0.6232  -17.7421  -39.6988 O.2       5 UNK        -0.5000 
     47 CA          1.2383  -15.9663  -38.2009 C.3       5 UNK         0.1400 
     48 CB          2.3935  -15.5488  -37.2628 C.3       5 UNK        -0.1800 
     49 N           0.8533  -14.8313  -39.0496 N.am      5 UNK        -0.5000 
     50 C           1.5312  -14.3488  -40.1000 C.2       4 UNK         0.5000 
     51 O           2.5835  -14.8328  -40.5250 O.2       4 UNK        -0.5000 
     52 CA          0.9350  -13.1220  -40.8017 C.3       4 UNK         0.1400 
     53 CB          1.5363  -11.8242  -40.2406 C.3       4 UNK        -0.1800 
     54 N           1.2378  -13.2181  -42.2257 N.am      4 UNK        -0.5000 
     55 C           0.4054  -12.9081  -43.2259 C.2       3 UNK         0.5000 
     56 O          -0.7226  -12.4434  -43.0523 O.2       3 UNK        -0.5000 
     57 CA          0.9237  -13.1811  -44.6563 C.3       3 UNK         0.1400 
     58 CB          0.0784  -12.4913  -45.7458 C.3       3 UNK        -0.1800 
     59 N           2.3446  -12.8647  -44.8464 N.am      3 UNK        -0.5000 
     60 C           2.9599  -11.6944  -44.6089 C.2       2 UNK         0.5000 
     61 O           2.4116  -10.7014  -44.1302 O.2       2 UNK        -0.5000 
     62 CA          4.4490  -11.6220  -44.9942 C.3       2 UNK         0.1400 
     63 CB          5.3335  -12.1034  -43.8339 C.3       2 UNK        -0.1800 
     64 N           4.7641  -12.3977  -46.1964 N.am      2 UNK        -0.5000 
     65 C           4.3531  -12.0950  -47.4353 C.2       1 UNK         0.5000 
     66 O           3.6771  -11.0981  -47.6962 O.2       1 UNK        -0.5000 
     67 C          -2.2793  -19.7534  -47.4039 C.2       11 UNK         0.5000 
     68 O          -2.7869  -20.1049  -48.4693 O.2       11 UNK        -0.5000 
     69 N          -2.8062  -20.0318  -46.2025 N.am      12 UNK        -0.5000 
     70 CA         -4.0117  -20.8329  -45.9921 C.3       12 UNK         0.1400 
     71 CB         -4.4175  -20.7824  -44.5119 C.3       12 UNK        -0.1800 
     72 C          -3.8440  -22.2860  -46.4700 C.2       12 UNK         0.5000 
     73 O          -4.7373  -22.8075  -47.1361 O.2       12 UNK        -0.5000 
     74 N          -2.6909  -22.8978  -46.1636 N.am      13 UNK        -0.5000 
     75 CA         -2.3163  -24.2355  -46.6223 C.3       13 UNK         0.1400 
     76 CB         -1.0184  -24.6835  -45.9346 C.3       13 UNK        -0.1800 
     77 C          -2.1854  -24.3219  -48.1527 C.2       13 UNK         0.5000 
     78 O          -2.6867  -25.2777  -48.7424 O.2       13 UNK        -0.5000 
     79 N          -1.5606  -23.3097  -48.7722 N.am      14 UNK        -0.5000 
     80 CA         -1.4435  -23.1736  -50.2255 C.3       14 UNK         0.1400 
     81 CB         -0.5383  -21.9801  -50.5692 C.3       14 UNK        -0.1800 
     82 C          -2.8138  -23.0477  -50.9156 C.2       14 UNK         0.5000 
     83 O          -3.0715  -23.7642  -51.8829 O.2       14 UNK        -0.5000 
     84 N          -3.6846  -22.1895  -50.3667 N.am      15 UNK        -0.5000 
     85 CA         -5.0584  -21.9901  -50.8286 C.3       15 UNK         0.1400 
     86 CB         -5.6801  -20.8083  -50.0697 C.3       15 UNK        -0.1800 
     87 C          -5.9339  -23.2511  -50.6938 C.2       15 UNK         0.5000 
     88 O          -6.7470  -23.5189  -51.5776 O.2       15 UNK        -0.5000 
     89 N          -5.7458  -24.0078  -49.6034 N.am      16 UNK        -0.5000 
     90 CA         -6.4288  -25.2755  -49.3458 C.3       16 UNK         0.1400 
     91 CB         -6.2607  -25.6555  -47.8667 C.3       16 UNK        -0.1800 
     92 C          -5.9429  -26.4182  -50.2573 C.2       16 UNK         0.5000 
     93 O          -6.7574  -27.2422  -50.6752 O.2       16 UNK        -0.5000 
     94 N          -4.6326  -26.4605  -50.5371 N.am      17 UNK        -0.5000 
     95 CA         -4.0024  -27.4509  -51.4118 C.3       17 UNK         0.1400 
     96 CB         -2.4807  -27.4245  -51.2011 C.3       17 UNK        -0.1800 
     97 C          -4.3454  -27.2402  -52.8975 C.2       17 UNK         0.5000 
     98 O          -4.5130  -28.2194  -53.6267 O.2       17 UNK        -0.5000 
     99 N          -4.4371  -25.9729  -53.3185 N.am      18 UNK        -0.5000 
    100 CA        -4.8275  -25.5619  -54.6651 C.3       18 UNK         0.1400 
    101 CB        -4.5143  -24.0694  -54.8278 C.3       18 UNK        -0.1800 
    102 C         -6.3144  -25.8291  -54.9659 C.2       18 UNK         0.5000 
    103 O         -7.1260  -25.9803  -54.0501 O.2       18 UNK        -0.5000 
    104 N         -6.6483  -25.8525  -56.2623 N.am      19 UNK        -0.5000 
    105 CA        -8.0134  -26.0363  -56.7586 C.3       19 UNK         0.1400 
    106 CB        -7.9617  -26.3622  -58.2595 C.3       19 UNK        -0.1800 
    107 C         -8.9255  -24.8200  -56.5034 C.2       19 UNK         0.5000 
    108 O        -10.1343  -24.9988  -56.3470 O.2       19 UNK        -0.5000 
    109 N         -8.3420  -23.6153  -56.4676 N.am      20 UNK        -0.5000 
    110 CA        -9.0277  -22.3456  -56.2520 C.3       20 UNK         0.1400 
    111 CB        -9.8275  -21.9549  -57.5122 C.3       20 UNK        -0.1800 
    112 C         -8.0026  -21.2548  -55.9074 C.2       20 UNK         0.5000 
    113 O         -6.8049  -21.4295  -56.1571 O.2       20 UNK        -0.5000 
    114 N         -8.5149  -20.1329  -55.3819 N.am      21 UNK        -0.5000 
    115 CA        -7.8028  -18.8901  -55.0700 C.3       21 UNK         0.1400 
    116 CB        -7.4222  -18.1614  -56.3799 C.3       21 UNK        -0.1800 
    117 C         -6.6223  -19.1080  -54.0980 C.2       21 UNK         0.5000 
    118 O         -6.7959  -19.7794  -53.0803 O.2       21 UNK        -0.5000 
    119 N         -5.4573  -18.5347  -54.4200 N.am      22 UNK        -0.5000 
    120 CA        -4.1978  -18.6759  -53.6721 C.3       22 UNK         0.1400 
    121 C         -3.4815  -20.0455  -53.8779 C.2       22 UNK         0.5000 
    122 N         -3.9548  -20.9217  -54.7548 N.am      22 UNK        -0.7600 
    123 O         -2.4786  -20.3249  -53.2304 O.2       22 UNK        -0.5000 
    124 C124       -3.2532  -17.4782  -53.9722 C.3       23 UNK        -0.0398 
    125 S125       -2.3314  -16.8889  -52.5126 S.3       23 UNK        -0.2404 
    126 C126       -0.6455  -17.4582  -52.8946 C.3       23 UNK        -0.0205 
    127 H127        8.7851  -13.2675  -48.9294 H         1 UNK         0.0600 
    128 H128        8.8783  -14.9005  -48.2639 H         1 UNK         0.0600 
    129 H129        9.0537  -13.5010  -47.1994 H         1 UNK         0.0600 
    130 H130        6.6956  -12.6393  -49.3723 H         1 UNK         0.3000 
    131 H131        4.3956  -14.0358  -48.3023 H         1 UNK         0.0600 
    132 H132        4.5229  -11.6611  -50.2326 H         1 UNK         0.0800 
    133 H133        3.0974  -12.5924  -49.8537 H         1 UNK         0.0800 
    134 H134        2.4224  -13.1081  -52.0829 H         1 UNK         0.0800 
    135 H135        3.1937  -14.2343  -53.1650 H         1 UNK         0.0800 
    136 H136        1.0924  -15.4314  -53.4339 H         1 UNK         0.1150 
    137 H137       -0.1427  -18.0694  -50.2995 H         1 UNK         0.1150 
    138 H138        2.9020  -15.1602  -49.5560 H         1 UNK         0.1150 
    139 H139        1.5003  -18.2103  -48.2722 H         1 UNK         0.0800 
    140 H140        2.4976  -16.8403  -47.9372 H         1 UNK         0.0800 
    141 H141       -1.8198  -17.1394  -48.1457 H         1 UNK         0.0800 
    142 H142       -1.7709  -17.2448  -46.4097 H         1 UNK         0.0800 
    143 H143       -0.4953  -19.1936  -48.3902 H         1 UNK         0.0600 
    144 H144        0.2814  -18.8696  -45.6716 H         1 UNK         0.3000 
    145 H145        1.3678  -22.2860  -45.2049 H         1 UNK         0.0600 
    146 H146        3.4229  -21.0407  -44.5396 H         1 UNK         0.0600 
    147 H147        3.2505  -21.1318  -46.2861 H         1 UNK         0.0600 
    148 H148        2.8780  -19.6344  -45.4505 H         1 UNK         0.0600 
    149 H149        1.3521  -20.0597  -43.4251 H         1 UNK         0.3000 
    150 H150       -1.9197  -20.6573  -42.0623 H         1 UNK         0.0600 
    151 H151       -0.4139  -22.1945  -40.8316 H         1 UNK         0.0600 
    152 H152       -0.5654  -20.6692  -39.9710 H         1 UNK         0.0600 
    153 H153        0.8916  -21.0201  -40.8977 H         1 UNK         0.0600 
    154 H154        0.0080  -18.6863  -41.4136 H         1 UNK         0.3000 
    155 H155       -0.8441  -16.2919  -43.9271 H         1 UNK         0.0600 
    156 H156       -1.2029  -16.3484  -40.8800 H         1 UNK         0.0600 
    157 H157       -2.4758  -16.0372  -42.0470 H         1 UNK         0.0600 
    158 H158       -1.1452  -14.9145  -41.8984 H         1 UNK         0.0600 
    159 H159        1.1264  -16.3675  -41.8246 H         1 UNK         0.3000 
    160 H160        3.7183  -17.9134  -43.7416 H         1 UNK         0.0600 
    161 H161        3.3888  -14.9732  -42.9679 H         1 UNK         0.0600 
    162 H162        3.8361  -15.5992  -44.5481 H         1 UNK         0.0600 
    163 H163        4.9209  -15.8122  -43.1847 H         1 UNK         0.0600 
    164 H164        3.4649  -16.7014  -41.1015 H         1 UNK         0.3000 
    165 H165        2.5925  -19.7438  -39.4772 H         1 UNK         0.0600 
    166 H166        4.7136  -19.4617  -38.2264 H         1 UNK         0.0600 
    167 H167        5.0395  -20.1248  -39.8196 H         1 UNK         0.0600 
    168 H168        5.3603  -18.4246  -39.4989 H         1 UNK         0.0600 
    169 H169        3.4573  -17.2545  -38.4205 H         1 UNK         0.3000 
    170 H170        0.3735  -16.1971  -37.5772 H         1 UNK         0.0600 
    171 H171        2.6566  -16.3533  -36.5748 H         1 UNK         0.0600 
    172 H172        3.2920  -15.2683  -37.8139 H         1 UNK         0.0600 
    173 H173        2.1053  -14.6926  -36.6529 H         1 UNK         0.0600 
    174 H174       -0.0167  -14.3847  -38.7955 H         1 UNK         0.3000 
    175 H175       -0.1448  -13.1165  -40.6407 H         1 UNK         0.0600 
    176 H176        1.3293  -11.7249  -39.1744 H         1 UNK         0.0600 
    177 H177        2.6188  -11.7935  -40.3716 H         1 UNK         0.0600 
    178 H178        1.1157  -10.9499  -40.7378 H         1 UNK         0.0600 
    179 H179        2.1419  -13.6169  -42.4358 H         1 UNK         0.3000 
    180 H180        0.8290  -14.2577  -44.8059 H         1 UNK         0.0600 
    181 H181        0.0960  -11.4059  -45.6425 H         1 UNK         0.0600 
    182 H182       -0.9631  -12.8112  -45.6969 H         1 UNK         0.0600 
    183 H183        0.4443  -12.7396  -46.7423 H         1 UNK         0.0600 
    184 H184        2.9031  -13.5994  -45.2546 H         1 UNK         0.3000 
    185 H185        4.6890  -10.5754  -45.1933 H         1 UNK         0.0600 
    186 H186        5.1723  -13.1584  -43.6123 H         1 UNK         0.0600 
    187 H187        6.3906  -11.9683  -44.0634 H         1 UNK         0.0600 
    188 H188        5.1246  -11.5406  -42.9231 H         1 UNK         0.0600 
    189 H189        5.3599  -13.2131  -46.0859 H         1 UNK         0.3000 
    190 H190       -2.3520  -19.6647  -45.3699 H         1 UNK         0.3000 
    191 H191       -4.8153  -20.3823  -46.5782 H         1 UNK         0.0600 
    192 H192       -3.6464  -21.2031  -43.8667 H         1 UNK         0.0600 
    193 H193       -5.3344  -21.3473  -44.3396 H         1 UNK         0.0600 
    194 H194       -4.6002  -19.7575  -44.1884 H         1 UNK         0.0600 
    195 H195       -2.0273  -22.4229  -45.5580 H         1 UNK         0.3000 
    196 H196       -3.1103  -24.9214  -46.3200 H         1 UNK         0.0600 
    197 H197       -0.7361  -25.6883  -46.2510 H         1 UNK         0.0600 
    198 H198       -1.1338  -24.7043  -44.8509 H         1 UNK         0.0600 
    199 H199       -0.1868  -24.0195  -46.1699 H         1 UNK         0.0600 
    200 H200       -1.1284  -22.5821  -48.2095 H         1 UNK         0.3000 
    201 H201       -0.9649  -24.0792  -50.6037 H         1 UNK         0.0600 
    202 H202        0.4576  -22.1041  -50.1439 H         1 UNK         0.0600 
    203 H203       -0.9465  -21.0408  -50.1964 H         1 UNK         0.0600 
    204 H204       -0.4232  -21.8780  -51.6491 H         1 UNK         0.0600 
    205 H205       -3.3785  -21.6140  -49.5874 H         1 UNK         0.3000 
    206 H206       -5.0183  -21.7315  -51.8885 H         1 UNK         0.0600 
    207 H207       -5.1196  -19.8902  -50.2471 H         1 UNK         0.0600 
    208 H208       -6.7055  -20.6310  -50.3961 H         1 UNK         0.0600 
    209 H209       -5.7023  -20.9858  -48.9943 H         1 UNK         0.0600 
    210 H210       -5.1101  -23.6780  -48.8836 H         1 UNK         0.3000 
    211 H211       -7.4943  -25.1308  -49.5364 H         1 UNK         0.0600 
    212 H212       -5.2111  -25.7851  -47.6013 H         1 UNK         0.0600 
    213 H213       -6.7751  -26.5907  -47.6420 H         1 UNK         0.0600 
    214 H214       -6.6784  -24.8894  -47.2133 H         1 UNK         0.0600 
    215 H215       -4.0135  -25.7901  -50.0908 H         1 UNK         0.3000 
    216 H216       -4.3656  -28.4397  -51.1243 H         1 UNK         0.0600 
    217 H217       -2.0603  -26.4446  -51.4309 H         1 UNK         0.0600 
    218 H218       -1.9836  -28.1551  -51.8404 H         1 UNK         0.0600 
    219 H219       -2.2220  -27.6656  -50.1700 H         1 UNK         0.0600 
    220 H220       -4.2442  -25.2269  -52.6582 H         1 UNK         0.3000 
    221 H221       -4.2250  -26.1256  -55.3803 H         1 UNK         0.0600 
    222 H222       -3.4544  -23.8741  -54.6648 H         1 UNK         0.0600 
    223 H223       -5.0822  -23.4669  -54.1166 H         1 UNK         0.0600 
    224 H224       -4.7606  -23.7163  -55.8299 H         1 UNK         0.0600 
    225 H225       -5.9297  -25.7191  -56.9594 H         1 UNK         0.3000 
    226 H226       -8.4527  -26.8920  -56.2412 H         1 UNK         0.0600 
    227 H227       -7.3822  -27.2661  -58.4478 H         1 UNK         0.0600 
    228 H228       -8.9635  -26.5315  -58.6566 H         1 UNK         0.0600 
    229 H229       -7.5148  -25.5493  -58.8333 H         1 UNK         0.0600 
    230 H230       -7.3379  -23.5351  -56.5650 H         1 UNK         0.3000 
    231 H231       -9.7071  -22.4535  -55.4039 H         1 UNK         0.0600 
    232 H232       -9.1787  -21.8689  -58.3847 H         1 UNK         0.0600 
    233 H233      -10.3299  -20.9957  -57.3819 H         1 UNK         0.0600 
    234 H234      -10.6000  -22.6883  -57.7422 H         1 UNK         0.0600 
    235 H235       -9.5057  -20.1139  -55.1856 H         1 UNK         0.3000 
    236 H236       -8.5132  -18.2565  -54.5372 H         1 UNK         0.0600 
    237 H237       -7.0177  -17.1680  -56.1816 H         1 UNK         0.0600 
    238 H238       -6.6838  -18.7179  -56.9587 H         1 UNK         0.0600 
    239 H239       -8.2976  -18.0227  -57.0145 H         1 UNK         0.0600 
    240 H240       -5.4035  -18.0204  -55.2869 H         1 UNK         0.3000 
    241 H241       -4.4634  -18.6421  -52.6135 H         1 UNK         0.0600 
    242 H242       -3.4758  -21.7996  -54.8634 H         1 UNK         0.3800 
    243 H243       -4.8119  -20.7518  -55.2635 H         1 UNK         0.3800 
    244 H244       -3.8335  -16.6179  -54.3094 H         1 UNK         0.0800 
    245 H245       -2.5732  -17.6997  -54.7967 H         1 UNK         0.0800 
    246 H246       -0.5934  -18.5434  -52.8013 H         1 UNK         0.0800 
    247 H247       -0.4032  -17.2230  -53.9320 H         1 UNK         0.0800 
@<TRIPOS>BOND
     1    1    2 1    
     2    1  127 1    
     3    1  128 1    
     4    1  129 1    
     5    2    3 2    
     6    2    4 am   BACKBONE|DICT|INTERRES
     7    4    5 1    
     8    4  130 1    
     9    5    6 1    
    10    5   65 1    
    11    5  131 1    
    12    6    7 1    
    13    6  132 1    
    14    6  133 1    
    15    7    8 1    
    16    8    9 1    
    17    8  134 1    
    18    8  135 1    
    19    9   10 ar   
    20    9   14 ar   
    21   10   11 ar   
    22   10  136 1    
    23   11   12 ar   
    24   11  126 1    
    25   12   13 ar   
    26   12  137 1    
    27   13   14 ar   
    28   13   15 1    
    29   14  138 1    
    30   15   16 1    
    31   15  139 1    
    32   15  140 1    
    33   16   17 1    
    34   17   18 1    
    35   17  141 1    
    36   17  142 1    
    37   18   19 1    
    38   18   67 1    
    39   18  143 1    
    40   19   20 am   BACKBONE|DICT|INTERRES
    41   19  144 1    
    42   20   21 2    
    43   20   22 1    
    44   22   23 1    
    45   22   24 1    
    46   22  145 1    
    47   23  146 1    
    48   23  147 1    
    49   23  148 1    
    50   24   25 am   BACKBONE|DICT|INTERRES
    51   24  149 1    
    52   25   26 2    
    53   25   27 1    
    54   27   28 1    
    55   27   29 1    
    56   27  150 1    
    57   28  151 1    
    58   28  152 1    
    59   28  153 1    
    60   29   30 am   BACKBONE|DICT|INTERRES
    61   29  154 1    
    62   30   31 2    
    63   30   32 1    
    64   32   33 1    
    65   32   34 1    
    66   32  155 1    
    67   33  156 1    
    68   33  157 1    
    69   33  158 1    
    70   34   35 am   BACKBONE|DICT|INTERRES
    71   34  159 1    
    72   35   36 2    
    73   35   37 1    
    74   37   38 1    
    75   37   39 1    
    76   37  160 1    
    77   38  161 1    
    78   38  162 1    
    79   38  163 1    
    80   39   40 am   BACKBONE|DICT|INTERRES
    81   39  164 1    
    82   40   41 2    
    83   40   42 1    
    84   42   43 1    
    85   42   44 1    
    86   42  165 1    
    87   43  166 1    
    88   43  167 1    
    89   43  168 1    
    90   44   45 am   BACKBONE|DICT|INTERRES
    91   44  169 1    
    92   45   46 2    
    93   45   47 1    
    94   47   48 1    
    95   47   49 1    
    96   47  170 1    
    97   48  171 1    
    98   48  172 1    
    99   48  173 1    
   100   49   50 am   BACKBONE|DICT|INTERRES
   101   49  174 1    
   102   50   51 2    
   103   50   52 1    
   104   52   53 1    
   105   52   54 1    
   106   52  175 1    
   107   53  176 1    
   108   53  177 1    
   109   53  178 1    
   110   54   55 am   BACKBONE|DICT|INTERRES
   111   54  179 1    
   112   55   56 2    
   113   55   57 1    
   114   57   58 1    
   115   57   59 1    
   116   57  180 1    
   117   58  181 1    
   118   58  182 1    
   119   58  183 1    
   120   59   60 am   BACKBONE|DICT|INTERRES
   121   59  184 1    
   122   60   61 2    
   123   60   62 1    
   124   62   63 1    
   125   62   64 1    
   126   62  185 1    
   127   63  186 1    
   128   63  187 1    
   129   63  188 1    
   130   64   65 am   BACKBONE|DICT|INTERRES
   131   64  189 1    
   132   65   66 2    
   133   67   68 2    
   134   67   69 am   BACKBONE|DICT|INTERRES
   135   69   70 1    
   136   69  190 1    
   137   70   71 1    
   138   70   72 1    
   139   70  191 1    
   140   71  192 1    
   141   71  193 1    
   142   71  194 1    
   143   72   73 2    
   144   72   74 am   BACKBONE|DICT|INTERRES
   145   74   75 1    
   146   74  195 1    
   147   75   76 1    
   148   75   77 1    
   149   75  196 1    
   150   76  197 1    
   151   76  198 1    
   152   76  199 1    
   153   77   78 2    
   154   77   79 am   BACKBONE|DICT|INTERRES
   155   79   80 1    
   156   79  200 1    
   157   80   81 1    
   158   80   82 1    
   159   80  201 1    
   160   81  202 1    
   161   81  203 1    
   162   81  204 1    
   163   82   83 2    
   164   82   84 am   BACKBONE|DICT|INTERRES
   165   84   85 1    
   166   84  205 1    
   167   85   86 1    
   168   85   87 1    
   169   85  206 1    
   170   86  207 1    
   171   86  208 1    
   172   86  209 1    
   173   87   88 2    
   174   87   89 am   BACKBONE|DICT|INTERRES
   175   89   90 1    
   176   89  210 1    
   177   90   91 1    
   178   90   92 1    
   179   90  211 1    
   180   91  212 1    
   181   91  213 1    
   182   91  214 1    
   183   92   93 2    
   184   92   94 am   BACKBONE|DICT|INTERRES
   185   94   95 1    
   186   94  215 1    
   187   95   96 1    
   188   95   97 1    
   189   95  216 1    
   190   96  217 1    
   191   96  218 1    
   192   96  219 1    
   193   97   98 2    
   194   97   99 am   BACKBONE|DICT|INTERRES
   195   99  100 1    
   196   99  220 1    
   197  100  101 1    
   198  100  102 1    
   199  100  221 1    
   200  101  222 1    
   201  101  223 1    
   202  101  224 1    
   203  102  103 2    
   204  102  104 am   BACKBONE|DICT|INTERRES
   205  104  105 1    
   206  104  225 1    
   207  105  106 1    
   208  105  107 1    
   209  105  226 1    
   210  106  227 1    
   211  106  228 1    
   212  106  229 1    
   213  107  108 2    
   214  107  109 am   BACKBONE|DICT|INTERRES
   215  109  110 1    
   216  109  230 1    
   217  110  111 1    
   218  110  112 1    
   219  110  231 1    
   220  111  232 1    
   221  111  233 1    
   222  111  234 1    
   223  112  113 2    
   224  112  114 am   BACKBONE|DICT|INTERRES
   225  114  115 1    
   226  114  235 1    
   227  115  116 1    
   228  115  117 1    
   229  115  236 1    
   230  116  237 1    
   231  116  238 1    
   232  116  239 1    
   233  117  118 2    
   234  117  119 am   BACKBONE|DICT|INTERRES
   235  119  120 1    
   236  119  240 1    
   237  120  121 1    
   238  120  124 1    
   239  120  241 1    
   240  121  122 am   BACKBONE|DICT|INTERRES
   241  121  123 2    
   242  122  242 1    
   243  122  243 1    
   244  124  125 1    
   245  124  244 1    
   246  124  245 1    
   247  125  126 1    
   248  126  246 1    
   249  126  247 1    
@<TRIPOS>SUBSTRUCTURE
     1 UNK         1 GROUP             0       ****    0 ROOT    
