@<TRIPOS>MOLECULE
3R540
247   249    1
SMALL
USER_CHARGES


@<TRIPOS>ATOM
      1 CA          1.2741  -11.9190  -51.1398 C.3       0 UNK        -0.1800 
      2 C           2.5361  -12.1266  -50.3147 C.2       0 UNK         0.5000 
      3 O           3.5549  -11.4952  -50.5958 O.2       0 UNK        -0.5000 
      4 N           2.4761  -13.0073  -49.3104 N.am      1 UNK        -0.5000 
      5 CA          3.5872  -13.3556  -48.4252 C.3       1 UNK         0.1400 
      6 C6          3.8449  -14.8860  -48.3584 C.3       23 UNK        -0.0398 
      7 S7          2.3927  -15.9513  -48.0246 S.3       23 UNK        -0.2404 
      8 C8          1.8231  -16.2906  -49.7211 C.3       23 UNK        -0.0205 
      9 C9          0.7743  -17.3903  -49.7711 C.ar      23 UNK        -0.0193 
     10 C10        -0.5389  -17.1364  -49.3632 C.ar      23 UNK        -0.1150 
     11 C11        -1.5167  -18.1300  -49.4615 C.ar      23 UNK        -0.0193 
     12 C12        -1.1734  -19.3821  -49.9748 C.ar      23 UNK        -0.1150 
     13 C13         0.1361  -19.6525  -50.3775 C.ar      23 UNK        -0.0193 
     14 C14         1.1073  -18.6539  -50.2688 C.ar      23 UNK        -0.1150 
     15 C15         0.4970  -21.0183  -50.9415 C.3       23 UNK        -0.0205 
     16 S16         1.0797  -22.1510  -49.6442 S.3       23 UNK        -0.2404 
     17 C17        -0.4563  -22.4106  -48.6983 C.3       23 UNK        -0.0398 
     18 CA         -0.3576  -23.6190  -47.7436 C.3       11 UNK         0.1400 
     19 N           0.6787  -23.4184  -46.7346 N.am      11 UNK        -0.5000 
     20 C           1.0606  -24.2603  -45.7697 C.2       10 UNK         0.5000 
     21 O           0.5322  -25.3565  -45.5810 O.2       10 UNK        -0.5000 
     22 CA          2.1928  -23.7832  -44.8316 C.3       10 UNK         0.1400 
     23 CB          3.5712  -24.2325  -45.3497 C.3       10 UNK        -0.1800 
     24 N           2.1559  -22.3387  -44.5440 N.am      10 UNK        -0.5000 
     25 C           2.3376  -21.3007  -45.3775 C.2       9 UNK         0.5000 
     26 O           2.7836  -21.4201  -46.5180 O.2       9 UNK        -0.5000 
     27 CA          1.8612  -19.9125  -44.8905 C.3       9 UNK         0.1400 
     28 CB          1.2457  -19.0838  -46.0392 C.3       9 UNK        -0.1800 
     29 N           0.9294  -19.9549  -43.7537 N.am      9 UNK        -0.5000 
     30 C          -0.2612  -20.5756  -43.6858 C.2       8 UNK         0.5000 
     31 O          -0.7355  -21.2505  -44.6003 O.2       8 UNK        -0.5000 
     32 CA         -1.0301  -20.4717  -42.3535 C.3       8 UNK         0.1400 
     33 CB         -0.7691  -21.7202  -41.4954 C.3       8 UNK        -0.1800 
     34 N          -0.6761  -19.2821  -41.5776 N.am      8 UNK        -0.5000 
     35 C          -1.0451  -18.0363  -41.8999 C.2       7 UNK         0.5000 
     36 O          -1.8065  -17.7711  -42.8312 O.2       7 UNK        -0.5000 
     37 CA         -0.4352  -16.8789  -41.0840 C.3       7 UNK         0.1400 
     38 CB          0.2805  -17.3096  -39.7830 C.3       7 UNK        -0.1800 
     39 N           0.4480  -16.0864  -41.9420 N.am      7 UNK        -0.5000 
     40 C           1.5503  -16.5056  -42.5794 C.2       6 UNK         0.5000 
     41 O           2.0709  -17.6091  -42.4016 O.2       6 UNK        -0.5000 
     42 CA          2.1102  -15.5437  -43.6456 C.3       6 UNK         0.1400 
     43 CB          3.4824  -15.9807  -44.1879 C.3       6 UNK        -0.1800 
     44 N           1.1822  -15.4299  -44.7697 N.am      6 UNK        -0.5000 
     45 C           0.0605  -14.7023  -44.7797 C.2       5 UNK         0.5000 
     46 O          -0.3059  -13.9973  -43.8353 O.2       5 UNK        -0.5000 
     47 CA         -0.8087  -14.7994  -46.0383 C.3       5 UNK         0.1400 
     48 CB         -2.1383  -15.5059  -45.7327 C.3       5 UNK        -0.1800 
     49 N          -1.0814  -13.4483  -46.5060 N.am      5 UNK        -0.5000 
     50 C          -0.7753  -12.9791  -47.7185 C.2       4 UNK         0.5000 
     51 O          -0.3058  -13.6696  -48.6221 O.2       4 UNK        -0.5000 
     52 CA         -0.9627  -11.4686  -47.9493 C.3       4 UNK         0.1400 
     53 CB         -2.4495  -11.0615  -47.9750 C.3       4 UNK        -0.1800 
     54 N          -0.1689  -10.6586  -47.0155 N.am      4 UNK        -0.5000 
     55 C          -0.3514  -10.4809  -45.6992 C.2       3 UNK         0.5000 
     56 O          -1.3166  -10.9178  -45.0702 O.2       3 UNK        -0.5000 
     57 CA          0.7920   -9.7613  -44.9688 C.3       3 UNK         0.1400 
     58 CB          0.5222   -9.5529  -43.4654 C.3       3 UNK        -0.1800 
     59 N           1.9992  -10.5572  -45.1563 N.am      3 UNK        -0.5000 
     60 C           3.2621  -10.1345  -45.0825 C.2       2 UNK         0.5000 
     61 O           3.5803   -8.9659  -44.8598 O.2       2 UNK        -0.5000 
     62 CA          4.3599  -11.1991  -45.2909 C.3       2 UNK         0.1400 
     63 CB          4.4064  -12.1859  -44.1083 C.3       2 UNK        -0.1800 
     64 N           4.2965  -11.9148  -46.5751 N.am      2 UNK        -0.5000 
     65 C           3.3380  -12.7281  -47.0435 C.2       1 UNK         0.5000 
     66 O           2.2936  -12.9776  -46.4423 O.2       1 UNK        -0.5000 
     67 C          -1.7455  -23.9415  -47.1604 C.2       11 UNK         0.5000 
     68 O          -2.4781  -24.7073  -47.7848 O.2       11 UNK        -0.5000 
     69 N          -2.0997  -23.3776  -45.9968 N.am      12 UNK        -0.5000 
     70 CA         -3.3706  -23.6632  -45.3242 C.3       12 UNK         0.1400 
     71 CB         -3.6415  -22.6080  -44.2437 C.3       12 UNK        -0.1800 
     72 C          -3.4221  -25.0809  -44.7257 C.2       12 UNK         0.5000 
     73 O          -4.4898  -25.6931  -44.7181 O.2       12 UNK        -0.5000 
     74 N          -2.2702  -25.5885  -44.2646 N.am      13 UNK        -0.5000 
     75 CA         -2.1194  -26.9512  -43.7514 C.3       13 UNK         0.1400 
     76 CB         -0.8767  -27.0279  -42.8509 C.3       13 UNK        -0.1800 
     77 C          -2.0386  -27.9795  -44.8936 C.2       13 UNK         0.5000 
     78 O          -2.5997  -29.0691  -44.7752 O.2       13 UNK        -0.5000 
     79 N          -1.3681  -27.6005  -45.9907 N.am      14 UNK        -0.5000 
     80 CA         -1.2418  -28.3948  -47.2153 C.3       14 UNK         0.1400 
     81 CB         -0.0765  -27.8304  -48.0430 C.3       14 UNK        -0.1800 
     82 C          -2.5286  -28.4333  -48.0675 C.2       14 UNK         0.5000 
     83 O          -2.6233  -29.2654  -48.9697 O.2       14 UNK        -0.5000 
     84 N          -3.4686  -27.5165  -47.7904 N.am      15 UNK        -0.5000 
     85 CA         -4.7179  -27.2435  -48.5143 C.3       15 UNK         0.1400 
     86 CB         -5.6395  -28.4796  -48.5515 C.3       15 UNK        -0.1800 
     87 C          -4.5009  -26.6157  -49.9095 C.2       15 UNK         0.5000 
     88 O          -5.4296  -26.5717  -50.7172 O.2       15 UNK        -0.5000 
     89 N          -3.2940  -26.0880  -50.1519 N.am      16 UNK        -0.5000 
     90 CA         -2.9176  -25.3348  -51.3470 C.3       16 UNK         0.1400 
     91 CB         -1.3862  -25.2697  -51.4391 C.3       16 UNK        -0.1800 
     92 C          -3.5191  -23.9183  -51.3585 C.2       16 UNK         0.5000 
     93 O          -3.7091  -23.3524  -52.4342 O.2       16 UNK        -0.5000 
     94 N          -3.8532  -23.3810  -50.1748 N.am      17 UNK        -0.5000 
     95 CA         -4.4914  -22.0723  -49.9898 C.3       17 UNK         0.1400 
     96 CB         -4.5535  -21.7468  -48.4905 C.3       17 UNK        -0.1800 
     97 C          -5.8886  -21.9485  -50.6331 C.2       17 UNK         0.5000 
     98 O          -6.3435  -20.8316  -50.8746 O.2       17 UNK        -0.5000 
     99 N          -6.5358  -23.0874  -50.9174 N.am      18 UNK        -0.5000 
    100 CA        -7.7875  -23.1609  -51.6699 C.3       18 UNK         0.1400 
    101 CB        -8.4308  -24.5347  -51.4261 C.3       18 UNK        -0.1800 
    102 C         -7.5950  -22.9174  -53.1815 C.2       18 UNK         0.5000 
    103 O         -8.5426  -22.4927  -53.8440 O.2       18 UNK        -0.5000 
    104 N         -6.3920  -23.2003  -53.7009 N.am      19 UNK        -0.5000 
    105 CA        -6.0316  -23.0435  -55.1101 C.3       19 UNK         0.1400 
    106 CB        -5.2102  -24.2652  -55.5525 C.3       19 UNK        -0.1800 
    107 C         -5.2400  -21.7482  -55.3591 C.2       19 UNK         0.5000 
    108 O         -5.4083  -21.1327  -56.4131 O.2       19 UNK        -0.5000 
    109 N         -4.3836  -21.3656  -54.4019 N.am      20 UNK        -0.5000 
    110 CA        -3.5443  -20.1685  -54.4476 C.3       20 UNK         0.1400 
    111 CB        -2.5712  -20.2014  -53.2592 C.3       20 UNK        -0.1800 
    112 C         -4.3590  -18.8609  -54.4306 C.2       20 UNK         0.5000 
    113 O         -5.4307  -18.8035  -53.8239 O.2       20 UNK        -0.5000 
    114 N         -3.8123  -17.8240  -55.0779 N.am      21 UNK        -0.5000 
    115 CA        -4.3919  -16.4790  -55.1149 C.3       21 UNK         0.1400 
    116 CB        -3.8228  -15.7233  -56.3259 C.3       21 UNK        -0.1800 
    117 C         -4.1426  -15.6822  -53.8191 C.2       21 UNK         0.5000 
    118 O         -4.9290  -14.7881  -53.5042 O.2       21 UNK        -0.5000 
    119 N         -3.0574  -16.0165  -53.1048 N.am      22 UNK        -0.5000 
    120 CA        -2.6169  -15.3906  -51.8433 C.3       22 UNK         0.1400 
    121 C         -2.2156  -13.8891  -51.9902 C.2       22 UNK         0.5000 
    122 N         -1.6905  -13.4698  -53.1357 N.am      22 UNK        -0.7600 
    123 O         -2.3762  -13.0915  -51.0713 O.2       22 UNK        -0.5000 
    124 C124       -3.5921  -15.6407  -50.6565 C.3       23 UNK        -0.0398 
    125 S125       -4.0164  -17.4027  -50.4086 S.3       23 UNK        -0.2404 
    126 C126       -2.9443  -17.8644  -49.0132 C.3       23 UNK        -0.0205 
    127 H127        0.8599  -10.9283  -50.9545 H         1 UNK         0.0600 
    128 H128        1.5034  -11.9994  -52.2023 H         1 UNK         0.0600 
    129 H129        0.5109  -12.6613  -50.9083 H         1 UNK         0.0600 
    130 H130        1.5869  -13.4403  -49.0703 H         1 UNK         0.3000 
    131 H131        4.5092  -12.9173  -48.8128 H         1 UNK         0.0600 
    132 H132        4.2961  -15.2071  -49.2977 H         1 UNK         0.0800 
    133 H133        4.5977  -15.1042  -47.5989 H         1 UNK         0.0800 
    134 H134        2.6766  -16.5616  -50.3439 H         1 UNK         0.0800 
    135 H135        1.4033  -15.3828  -50.1549 H         1 UNK         0.0800 
    136 H136       -0.8019  -16.1606  -48.9827 H         1 UNK         0.1150 
    137 H137       -1.9282  -20.1488  -50.0585 H         1 UNK         0.1150 
    138 H138        2.1207  -18.8590  -50.5841 H         1 UNK         0.1150 
    139 H139       -0.3580  -21.4597  -51.4549 H         1 UNK         0.0800 
    140 H140        1.2799  -20.9112  -51.6936 H         1 UNK         0.0800 
    141 H141       -0.6807  -21.5019  -48.1365 H         1 UNK         0.0800 
    142 H142       -1.2699  -22.5467  -49.4119 H         1 UNK         0.0800 
    143 H143       -0.0547  -24.4883  -48.3281 H         1 UNK         0.0600 
    144 H144        1.2209  -22.5662  -46.8315 H         1 UNK         0.3000 
    145 H145        2.0264  -24.2780  -43.8736 H         1 UNK         0.0600 
    146 H146        4.3678  -23.9186  -44.6753 H         1 UNK         0.0600 
    147 H147        3.6185  -25.3195  -45.4263 H         1 UNK         0.0600 
    148 H148        3.7895  -23.8303  -46.3392 H         1 UNK         0.0600 
    149 H149        1.7715  -22.1055  -43.6400 H         1 UNK         0.3000 
    150 H150        2.7515  -19.3901  -44.5387 H         1 UNK         0.0600 
    151 H151        0.8884  -18.1185  -45.6836 H         1 UNK         0.0600 
    152 H152        0.4038  -19.5982  -46.5043 H         1 UNK         0.0600 
    153 H153        1.9785  -18.8888  -46.8232 H         1 UNK         0.0600 
    154 H154        1.2208  -19.3965  -42.9580 H         1 UNK         0.3000 
    155 H155       -2.0954  -20.4309  -42.5898 H         1 UNK         0.0600 
    156 H156       -1.3926  -21.7191  -40.6011 H         1 UNK         0.0600 
    157 H157        0.2725  -21.7800  -41.1776 H         1 UNK         0.0600 
    158 H158       -0.9935  -22.6351  -42.0449 H         1 UNK         0.0600 
    159 H159       -0.0396  -19.4126  -40.8046 H         1 UNK         0.3000 
    160 H160       -1.2652  -16.2283  -40.8046 H         1 UNK         0.0600 
    161 H161        1.1408  -17.9533  -39.9668 H         1 UNK         0.0600 
    162 H162       -0.4009  -17.8470  -39.1224 H         1 UNK         0.0600 
    163 H163        0.6369  -16.4387  -39.2329 H         1 UNK         0.0600 
    164 H164        0.0669  -15.1961  -42.2480 H         1 UNK         0.3000 
    165 H165        2.2285  -14.5654  -43.1766 H         1 UNK         0.0600 
    166 H166        3.4282  -16.9425  -44.6991 H         1 UNK         0.0600 
    167 H167        3.8739  -15.2501  -44.8961 H         1 UNK         0.0600 
    168 H168        4.2103  -16.0744  -43.3812 H         1 UNK         0.0600 
    169 H169        1.4299  -15.9467  -45.6018 H         1 UNK         0.3000 
    170 H170       -0.2755  -15.3753  -46.7958 H         1 UNK         0.0600 
    171 H171       -1.9706  -16.5501  -45.4657 H         1 UNK         0.0600 
    172 H172       -2.6660  -15.0344  -44.9025 H         1 UNK         0.0600 
    173 H173       -2.8014  -15.4869  -46.5965 H         1 UNK         0.0600 
    174 H174       -1.3575  -12.7798  -45.7921 H         1 UNK         0.3000 
    175 H175       -0.5609  -11.2511  -48.9392 H         1 UNK         0.0600 
    176 H176       -2.5623   -9.9941  -48.1640 H         1 UNK         0.0600 
    177 H177       -2.9768  -11.5898  -48.7701 H         1 UNK         0.0600 
    178 H178       -2.9621  -11.2943  -47.0419 H         1 UNK         0.0600 
    179 H179        0.6842  -10.2856  -47.4074 H         1 UNK         0.3000 
    180 H180        0.9219   -8.7858  -45.4418 H         1 UNK         0.0600 
    181 H181        0.4119  -10.5044  -42.9433 H         1 UNK         0.0600 
    182 H182        1.3334   -9.0024  -42.9891 H         1 UNK         0.0600 
    183 H183       -0.3931   -8.9811  -43.3085 H         1 UNK         0.0600 
    184 H184        1.8542  -11.5304  -45.4240 H         1 UNK         0.3000 
    185 H185        5.3115  -10.6650  -45.3005 H         1 UNK         0.0600 
    186 H186        5.2288  -12.8931  -44.2156 H         1 UNK         0.0600 
    187 H187        4.5518  -11.6571  -43.1657 H         1 UNK         0.0600 
    188 H188        3.4831  -12.7573  -44.0202 H         1 UNK         0.0600 
    189 H189        5.0905  -11.7448  -47.1769 H         1 UNK         0.3000 
    190 H190       -1.4777  -22.7095  -45.5458 H         1 UNK         0.3000 
    191 H191       -4.1704  -23.5931  -46.0633 H         1 UNK         0.0600 
    192 H192       -4.6260  -22.7518  -43.7971 H         1 UNK         0.0600 
    193 H193       -2.9081  -22.6624  -43.4407 H         1 UNK         0.0600 
    194 H194       -3.6154  -21.6004  -44.6591 H         1 UNK         0.0600 
    195 H195       -1.4240  -25.0454  -44.3661 H         1 UNK         0.3000 
    196 H196       -2.9915  -27.1955  -43.1408 H         1 UNK         0.0600 
    197 H197       -0.7704  -28.0245  -42.4209 H         1 UNK         0.0600 
    198 H198       -0.9464  -26.3225  -42.0227 H         1 UNK         0.0600 
    199 H199        0.0394  -26.8104  -43.4003 H         1 UNK         0.0600 
    200 H200       -0.8713  -26.7153  -45.9677 H         1 UNK         0.3000 
    201 H201       -0.9993  -29.4225  -46.9371 H         1 UNK         0.0600 
    202 H202        0.8479  -27.8118  -47.4652 H         1 UNK         0.0600 
    203 H203       -0.2810  -26.8151  -48.3813 H         1 UNK         0.0600 
    204 H204        0.1061  -28.4397  -48.9291 H         1 UNK         0.0600 
    205 H205       -3.2525  -26.8556  -47.0563 H         1 UNK         0.3000 
    206 H206       -5.2287  -26.4786  -47.9276 H         1 UNK         0.0600 
    207 H207       -5.7695  -28.9046  -47.5562 H         1 UNK         0.0600 
    208 H208       -6.6305  -28.2155  -48.9223 H         1 UNK         0.0600 
    209 H209       -5.2485  -29.2608  -49.2035 H         1 UNK         0.0600 
    210 H210       -2.6336  -26.0821  -49.3854 H         1 UNK         0.3000 
    211 H211       -3.2942  -25.8628  -52.2255 H         1 UNK         0.0600 
    212 H212       -0.9499  -24.7624  -50.5794 H         1 UNK         0.0600 
    213 H213       -1.0710  -24.7295  -52.3329 H         1 UNK         0.0600 
    214 H214       -0.9526  -26.2685  -51.4932 H         1 UNK         0.0600 
    215 H215       -3.6538  -23.9155  -49.3372 H         1 UNK         0.3000 
    216 H216       -3.8590  -21.3266  -50.4711 H         1 UNK         0.0600 
    217 H217       -5.0219  -20.7766  -48.3196 H         1 UNK         0.0600 
    218 H218       -3.5574  -21.7016  -48.0518 H         1 UNK         0.0600 
    219 H219       -5.1345  -22.4908  -47.9452 H         1 UNK         0.0600 
    220 H220       -6.0994  -23.9663  -50.6780 H         1 UNK         0.3000 
    221 H221       -8.4677  -22.3941  -51.2930 H         1 UNK         0.0600 
    222 H222       -7.7936  -25.3460  -51.7806 H         1 UNK         0.0600 
    223 H223       -8.6232  -24.6984  -50.3656 H         1 UNK         0.0600 
    224 H224       -9.3863  -24.6166  -51.9458 H         1 UNK         0.0600 
    225 H225       -5.6472  -23.4942  -53.0811 H         1 UNK         0.3000 
    226 H226       -6.9318  -23.0065  -55.7271 H         1 UNK         0.0600 
    227 H227       -4.9361  -24.1905  -56.6056 H         1 UNK         0.0600 
    228 H228       -4.2875  -24.3626  -54.9791 H         1 UNK         0.0600 
    229 H229       -5.7793  -25.1868  -55.4294 H         1 UNK         0.0600 
    230 H230       -4.2686  -21.9629  -53.5895 H         1 UNK         0.3000 
    231 H231       -2.9648  -20.2085  -55.3723 H         1 UNK         0.0600 
    232 H232       -1.8620  -19.3742  -53.3051 H         1 UNK         0.0600 
    233 H233       -1.9936  -21.1256  -53.2465 H         1 UNK         0.0600 
    234 H234       -3.1022  -20.1212  -52.3109 H         1 UNK         0.0600 
    235 H235       -2.9364  -17.9514  -55.5643 H         1 UNK         0.3000 
    236 H236       -5.4727  -16.5650  -55.2475 H         1 UNK         0.0600 
    237 H237       -2.7396  -15.6137  -56.2616 H         1 UNK         0.0600 
    238 H238       -4.0539  -16.2403  -57.2574 H         1 UNK         0.0600 
    239 H239       -4.2501  -14.7221  -56.3972 H         1 UNK         0.0600 
    240 H240       -2.4803  -16.7705  -53.4442 H         1 UNK         0.3000 
    241 H241       -1.6824  -15.8903  -51.5903 H         1 UNK         0.0600 
    242 H242       -1.4394  -12.4994  -53.2356 H         1 UNK         0.3800 
    243 H243       -1.5570  -14.1044  -53.9062 H         1 UNK         0.3800 
    244 H244       -4.5219  -15.0930  -50.8144 H         1 UNK         0.0800 
    245 H245       -3.1696  -15.2454  -49.7312 H         1 UNK         0.0800 
    246 H246       -2.9724  -17.0912  -48.2467 H         1 UNK         0.0800 
    247 H247       -3.3487  -18.7634  -48.5462 H         1 UNK         0.0800 
@<TRIPOS>BOND
     1    1    2 1    
     2    1  127 1    
     3    1  128 1    
     4    1  129 1    
     5    2    3 2    
     6    2    4 am   BACKBONE|DICT|INTERRES
     7    4    5 1    
     8    4  130 1    
     9    5    6 1    
    10    5   65 1    
    11    5  131 1    
    12    6    7 1    
    13    6  132 1    
    14    6  133 1    
    15    7    8 1    
    16    8    9 1    
    17    8  134 1    
    18    8  135 1    
    19    9   10 ar   
    20    9   14 ar   
    21   10   11 ar   
    22   10  136 1    
    23   11   12 ar   
    24   11  126 1    
    25   12   13 ar   
    26   12  137 1    
    27   13   14 ar   
    28   13   15 1    
    29   14  138 1    
    30   15   16 1    
    31   15  139 1    
    32   15  140 1    
    33   16   17 1    
    34   17   18 1    
    35   17  141 1    
    36   17  142 1    
    37   18   19 1    
    38   18   67 1    
    39   18  143 1    
    40   19   20 am   BACKBONE|DICT|INTERRES
    41   19  144 1    
    42   20   21 2    
    43   20   22 1    
    44   22   23 1    
    45   22   24 1    
    46   22  145 1    
    47   23  146 1    
    48   23  147 1    
    49   23  148 1    
    50   24   25 am   BACKBONE|DICT|INTERRES
    51   24  149 1    
    52   25   26 2    
    53   25   27 1    
    54   27   28 1    
    55   27   29 1    
    56   27  150 1    
    57   28  151 1    
    58   28  152 1    
    59   28  153 1    
    60   29   30 am   BACKBONE|DICT|INTERRES
    61   29  154 1    
    62   30   31 2    
    63   30   32 1    
    64   32   33 1    
    65   32   34 1    
    66   32  155 1    
    67   33  156 1    
    68   33  157 1    
    69   33  158 1    
    70   34   35 am   BACKBONE|DICT|INTERRES
    71   34  159 1    
    72   35   36 2    
    73   35   37 1    
    74   37   38 1    
    75   37   39 1    
    76   37  160 1    
    77   38  161 1    
    78   38  162 1    
    79   38  163 1    
    80   39   40 am   BACKBONE|DICT|INTERRES
    81   39  164 1    
    82   40   41 2    
    83   40   42 1    
    84   42   43 1    
    85   42   44 1    
    86   42  165 1    
    87   43  166 1    
    88   43  167 1    
    89   43  168 1    
    90   44   45 am   BACKBONE|DICT|INTERRES
    91   44  169 1    
    92   45   46 2    
    93   45   47 1    
    94   47   48 1    
    95   47   49 1    
    96   47  170 1    
    97   48  171 1    
    98   48  172 1    
    99   48  173 1    
   100   49   50 am   BACKBONE|DICT|INTERRES
   101   49  174 1    
   102   50   51 2    
   103   50   52 1    
   104   52   53 1    
   105   52   54 1    
   106   52  175 1    
   107   53  176 1    
   108   53  177 1    
   109   53  178 1    
   110   54   55 am   BACKBONE|DICT|INTERRES
   111   54  179 1    
   112   55   56 2    
   113   55   57 1    
   114   57   58 1    
   115   57   59 1    
   116   57  180 1    
   117   58  181 1    
   118   58  182 1    
   119   58  183 1    
   120   59   60 am   BACKBONE|DICT|INTERRES
   121   59  184 1    
   122   60   61 2    
   123   60   62 1    
   124   62   63 1    
   125   62   64 1    
   126   62  185 1    
   127   63  186 1    
   128   63  187 1    
   129   63  188 1    
   130   64   65 am   BACKBONE|DICT|INTERRES
   131   64  189 1    
   132   65   66 2    
   133   67   68 2    
   134   67   69 am   BACKBONE|DICT|INTERRES
   135   69   70 1    
   136   69  190 1    
   137   70   71 1    
   138   70   72 1    
   139   70  191 1    
   140   71  192 1    
   141   71  193 1    
   142   71  194 1    
   143   72   73 2    
   144   72   74 am   BACKBONE|DICT|INTERRES
   145   74   75 1    
   146   74  195 1    
   147   75   76 1    
   148   75   77 1    
   149   75  196 1    
   150   76  197 1    
   151   76  198 1    
   152   76  199 1    
   153   77   78 2    
   154   77   79 am   BACKBONE|DICT|INTERRES
   155   79   80 1    
   156   79  200 1    
   157   80   81 1    
   158   80   82 1    
   159   80  201 1    
   160   81  202 1    
   161   81  203 1    
   162   81  204 1    
   163   82   83 2    
   164   82   84 am   BACKBONE|DICT|INTERRES
   165   84   85 1    
   166   84  205 1    
   167   85   86 1    
   168   85   87 1    
   169   85  206 1    
   170   86  207 1    
   171   86  208 1    
   172   86  209 1    
   173   87   88 2    
   174   87   89 am   BACKBONE|DICT|INTERRES
   175   89   90 1    
   176   89  210 1    
   177   90   91 1    
   178   90   92 1    
   179   90  211 1    
   180   91  212 1    
   181   91  213 1    
   182   91  214 1    
   183   92   93 2    
   184   92   94 am   BACKBONE|DICT|INTERRES
   185   94   95 1    
   186   94  215 1    
   187   95   96 1    
   188   95   97 1    
   189   95  216 1    
   190   96  217 1    
   191   96  218 1    
   192   96  219 1    
   193   97   98 2    
   194   97   99 am   BACKBONE|DICT|INTERRES
   195   99  100 1    
   196   99  220 1    
   197  100  101 1    
   198  100  102 1    
   199  100  221 1    
   200  101  222 1    
   201  101  223 1    
   202  101  224 1    
   203  102  103 2    
   204  102  104 am   BACKBONE|DICT|INTERRES
   205  104  105 1    
   206  104  225 1    
   207  105  106 1    
   208  105  107 1    
   209  105  226 1    
   210  106  227 1    
   211  106  228 1    
   212  106  229 1    
   213  107  108 2    
   214  107  109 am   BACKBONE|DICT|INTERRES
   215  109  110 1    
   216  109  230 1    
   217  110  111 1    
   218  110  112 1    
   219  110  231 1    
   220  111  232 1    
   221  111  233 1    
   222  111  234 1    
   223  112  113 2    
   224  112  114 am   BACKBONE|DICT|INTERRES
   225  114  115 1    
   226  114  235 1    
   227  115  116 1    
   228  115  117 1    
   229  115  236 1    
   230  116  237 1    
   231  116  238 1    
   232  116  239 1    
   233  117  118 2    
   234  117  119 am   BACKBONE|DICT|INTERRES
   235  119  120 1    
   236  119  240 1    
   237  120  121 1    
   238  120  124 1    
   239  120  241 1    
   240  121  122 am   BACKBONE|DICT|INTERRES
   241  121  123 2    
   242  122  242 1    
   243  122  243 1    
   244  124  125 1    
   245  124  244 1    
   246  124  245 1    
   247  125  126 1    
   248  126  246 1    
   249  126  247 1    
@<TRIPOS>SUBSTRUCTURE
     1 UNK         1 GROUP             0       ****    0 ROOT    
