@<TRIPOS>MOLECULE
3R540
247   249    1
SMALL
USER_CHARGES


@<TRIPOS>ATOM
      1 CA         -2.3966  -16.3401  -44.6024 C.3       0 UNK        -0.1800 
      2 C          -2.9262  -15.0446  -45.1911 C.2       0 UNK         0.5000 
      3 O          -3.0048  -14.0384  -44.4845 O.2       0 UNK        -0.5000 
      4 N          -3.2815  -15.0556  -46.4826 N.am      1 UNK        -0.5000 
      5 CA         -3.7045  -13.8678  -47.2319 C.3       1 UNK         0.1400 
      6 C6         -4.2632  -14.2140  -48.6315 C.3       23 UNK        -0.0398 
      7 S7         -5.8370  -15.1324  -48.5018 S.3       23 UNK        -0.2404 
      8 C8         -5.5743  -16.5503  -49.6105 C.3       23 UNK        -0.0205 
      9 C9         -4.5276  -17.5189  -49.0818 C.ar      23 UNK        -0.0193 
     10 C10        -3.2679  -17.5798  -49.6818 C.ar      23 UNK        -0.1150 
     11 C11        -2.3071  -18.4841  -49.2282 C.ar      23 UNK        -0.0193 
     12 C12        -2.6135  -19.3323  -48.1628 C.ar      23 UNK        -0.1150 
     13 C13        -3.8688  -19.2819  -47.5494 C.ar      23 UNK        -0.0193 
     14 C14        -4.8245  -18.3735  -48.0149 C.ar      23 UNK        -0.1150 
     15 C15        -4.1786  -20.2168  -46.3904 C.3       23 UNK        -0.0205 
     16 S16        -3.1684  -19.7955  -44.9408 S.3       23 UNK        -0.2404 
     17 C17        -3.1273  -21.3489  -43.9916 C.3       23 UNK        -0.0398 
     18 CA         -2.4505  -22.5542  -44.7003 C.3       11 UNK         0.1400 
     19 N          -1.1990  -22.2337  -45.3973 N.am      11 UNK        -0.5000 
     20 C          -0.6034  -23.0453  -46.2849 C.2       10 UNK         0.5000 
     21 O          -1.1148  -24.0844  -46.7074 O.2       10 UNK        -0.5000 
     22 CA          0.8121  -22.6669  -46.7584 C.3       10 UNK         0.1400 
     23 CB          0.7679  -21.8709  -48.0715 C.3       10 UNK        -0.1800 
     24 N           1.5675  -21.9320  -45.7409 N.am      10 UNK        -0.5000 
     25 C           2.0570  -22.4943  -44.6257 C.2       9 UNK         0.5000 
     26 O           1.9547  -23.6941  -44.3745 O.2       9 UNK        -0.5000 
     27 CA          2.7297  -21.5680  -43.5934 C.3       9 UNK         0.1400 
     28 CB          4.2165  -21.3752  -43.9245 C.3       9 UNK        -0.1800 
     29 N           2.0808  -20.2626  -43.4784 N.am      9 UNK        -0.5000 
     30 C           0.8137  -20.0702  -43.0855 C.2       8 UNK         0.5000 
     31 O           0.0723  -20.9772  -42.7063 O.2       8 UNK        -0.5000 
     32 CA          0.2623  -18.6363  -43.2040 C.3       8 UNK         0.1400 
     33 CB          0.5823  -17.8191  -41.9448 C.3       8 UNK        -0.1800 
     34 N           0.7560  -17.9269  -44.3876 N.am      8 UNK        -0.5000 
     35 C           0.5776  -18.3401  -45.6510 C.2       7 UNK         0.5000 
     36 O          -0.0268  -19.3653  -45.9553 O.2       7 UNK        -0.5000 
     37 CA          1.2442  -17.5082  -46.7546 C.3       7 UNK         0.1400 
     38 CB          0.4211  -16.2540  -47.0868 C.3       7 UNK        -0.1800 
     39 N           2.6144  -17.1536  -46.3943 N.am      7 UNK        -0.5000 
     40 C           3.6353  -18.0238  -46.4303 C.2       6 UNK         0.5000 
     41 O           3.5337  -19.1789  -46.8440 O.2       6 UNK        -0.5000 
     42 CA          4.9905  -17.5342  -45.8867 C.3       6 UNK         0.1400 
     43 CB          5.8195  -16.8887  -47.0071 C.3       6 UNK        -0.1800 
     44 N           4.8476  -16.5827  -44.7848 N.am      6 UNK        -0.5000 
     45 C           4.3469  -16.8838  -43.5782 C.2       5 UNK         0.5000 
     46 O           3.9959  -18.0154  -43.2454 O.2       5 UNK        -0.5000 
     47 CA          4.1536  -15.7053  -42.6057 C.3       5 UNK         0.1400 
     48 CB          5.4366  -15.4513  -41.8009 C.3       5 UNK        -0.1800 
     49 N           3.7506  -14.4703  -43.2864 N.am      5 UNK        -0.5000 
     50 C           2.5932  -14.3144  -43.9422 C.2       4 UNK         0.5000 
     51 O           1.7403  -15.1998  -44.0411 O.2       4 UNK        -0.5000 
     52 CA          2.3840  -12.9728  -44.6626 C.3       4 UNK         0.1400 
     53 CB          2.6881  -13.1118  -46.1621 C.3       4 UNK        -0.1800 
     54 N           1.0139  -12.4971  -44.4976 N.am      4 UNK        -0.5000 
     55 C           0.5389  -11.9378  -43.3773 C.2       3 UNK         0.5000 
     56 O           1.2302  -11.7468  -42.3746 O.2       3 UNK        -0.5000 
     57 CA         -0.9501  -11.5271  -43.3690 C.3       3 UNK         0.1400 
     58 CB         -1.2229  -10.3008  -42.4726 C.3       3 UNK        -0.1800 
     59 N          -1.5339  -11.3344  -44.7029 N.am      3 UNK        -0.5000 
     60 C          -1.1893  -10.4269  -45.6327 C.2       2 UNK         0.5000 
     61 O          -0.2824   -9.6078  -45.4794 O.2       2 UNK        -0.5000 
     62 CA         -2.0081  -10.4074  -46.9455 C.3       2 UNK         0.1400 
     63 CB         -1.1210  -10.1938  -48.1905 C.3       2 UNK        -0.1800 
     64 N          -2.9029  -11.5624  -47.1099 N.am      2 UNK        -0.5000 
     65 C          -2.5550  -12.8410  -47.3149 C.2       1 UNK         0.5000 
     66 O          -1.3988  -13.2243  -47.5059 O.2       1 UNK        -0.5000 
     67 C          -2.2304  -23.6975  -43.6910 C.2       11 UNK         0.5000 
     68 O          -3.0099  -24.6491  -43.6733 O.2       11 UNK        -0.5000 
     69 N          -1.1535  -23.6006  -42.8958 N.am      12 UNK        -0.5000 
     70 CA         -0.7502  -24.5942  -41.8955 C.3       12 UNK         0.1400 
     71 CB          0.4231  -24.0425  -41.0722 C.3       12 UNK        -0.1800 
     72 C          -0.3927  -25.9623  -42.5075 C.2       12 UNK         0.5000 
     73 O          -0.7158  -26.9955  -41.9209 O.2       12 UNK        -0.5000 
     74 N           0.2234  -25.9431  -43.6971 N.am      13 UNK        -0.5000 
     75 CA          0.5114  -27.1198  -44.5203 C.3       13 UNK         0.1400 
     76 CB          1.5480  -26.7309  -45.5867 C.3       13 UNK        -0.1800 
     77 C          -0.7375  -27.7291  -45.1934 C.2       13 UNK         0.5000 
     78 O          -0.6362  -28.8182  -45.7592 O.2       13 UNK        -0.5000 
     79 N          -1.8742  -27.0163  -45.1445 N.am      14 UNK        -0.5000 
     80 CA         -3.1633  -27.3354  -45.7668 C.3       14 UNK         0.1400 
     81 CB         -3.7655  -28.6250  -45.1707 C.3       14 UNK        -0.1800 
     82 C          -3.1086  -27.3464  -47.3089 C.2       14 UNK         0.5000 
     83 O          -3.9030  -28.0390  -47.9477 O.2       14 UNK        -0.5000 
     84 N          -2.1804  -26.5683  -47.8804 N.am      15 UNK        -0.5000 
     85 CA         -2.0425  -26.3628  -49.3185 C.3       15 UNK         0.1400 
     86 CB         -0.5749  -26.0422  -49.6511 C.3       15 UNK        -0.1800 
     87 C          -2.9838  -25.2392  -49.7772 C.2       15 UNK         0.5000 
     88 O          -3.8128  -25.4625  -50.6603 O.2       15 UNK        -0.5000 
     89 N          -2.8508  -24.0737  -49.1250 N.am      16 UNK        -0.5000 
     90 CA         -3.6015  -22.8322  -49.3366 C.3       16 UNK         0.1400 
     91 CB         -5.0460  -23.0022  -48.8178 C.3       16 UNK        -0.1800 
     92 C          -3.5390  -22.2821  -50.7825 C.2       16 UNK         0.5000 
     93 O          -2.6874  -22.6958  -51.5737 O.2       16 UNK        -0.5000 
     94 N          -4.4219  -21.3204  -51.0856 N.am      17 UNK        -0.5000 
     95 CA         -4.5714  -20.6932  -52.3992 C.3       17 UNK         0.1400 
     96 CB         -5.5381  -19.5053  -52.2690 C.3       17 UNK        -0.1800 
     97 C          -5.0750  -21.6784  -53.4727 C.2       17 UNK         0.5000 
     98 O          -5.7448  -22.6631  -53.1503 O.2       17 UNK        -0.5000 
     99 N          -4.7753  -21.3650  -54.7353 N.am      18 UNK        -0.5000 
    100 CA        -5.1484  -22.1449  -55.9119 C.3       18 UNK         0.1400 
    101 CB        -3.9542  -23.0140  -56.3475 C.3       18 UNK        -0.1800 
    102 C         -5.6061  -21.1564  -56.9908 C.2       18 UNK         0.5000 
    103 O         -4.9073  -20.9518  -57.9853 O.2       18 UNK        -0.5000 
    104 N         -6.7333  -20.4849  -56.7118 N.am      19 UNK        -0.5000 
    105 CA        -7.3113  -19.3242  -57.4067 C.3       19 UNK         0.1400 
    106 CB        -7.5959  -19.6080  -58.8947 C.3       19 UNK        -0.1800 
    107 C         -6.4683  -18.0494  -57.2102 C.2       19 UNK         0.5000 
    108 O         -6.9916  -17.0383  -56.7403 O.2       19 UNK        -0.5000 
    109 N         -5.1690  -18.1415  -57.5115 N.am      20 UNK        -0.5000 
    110 CA        -4.1419  -17.2025  -57.0772 C.3       20 UNK         0.1400 
    111 CB        -2.9001  -17.3823  -57.9628 C.3       20 UNK        -0.1800 
    112 C         -3.7874  -17.4645  -55.6029 C.2       20 UNK         0.5000 
    113 O         -3.8277  -18.6163  -55.1534 O.2       20 UNK        -0.5000 
    114 N         -3.4091  -16.4006  -54.8856 N.am      21 UNK        -0.5000 
    115 CA        -2.9969  -16.4217  -53.4806 C.3       21 UNK         0.1400 
    116 CB        -3.1727  -15.0087  -52.8931 C.3       21 UNK        -0.1800 
    117 C         -1.5644  -16.9715  -53.3051 C.2       21 UNK         0.5000 
    118 O         -0.6799  -16.2620  -52.8226 O.2       21 UNK        -0.5000 
    119 N         -1.3778  -18.2326  -53.7078 N.am      22 UNK        -0.5000 
    120 CA        -0.1226  -19.0014  -53.6823 C.3       22 UNK         0.1400 
    121 C          0.9431  -18.4785  -54.6963 C.2       22 UNK         0.5000 
    122 N          2.1792  -18.9576  -54.6335 N.am      22 UNK        -0.7600 
    123 O          0.6574  -17.6745  -55.5817 O.2       22 UNK        -0.5000 
    124 C124        0.4412  -19.2136  -52.2448 C.3       23 UNK        -0.0398 
    125 S125       -0.8078  -19.8756  -51.0878 S.3       23 UNK        -0.2404 
    126 C126       -0.9372  -18.5257  -49.8808 C.3       23 UNK        -0.0205 
    127 H127       -1.4748  -16.1499  -44.0532 H         1 UNK         0.0600 
    128 H128       -2.1822  -17.0707  -45.3819 H         1 UNK         0.0600 
    129 H129       -3.1246  -16.7703  -43.9152 H         1 UNK         0.0600 
    130 H130       -3.2103  -15.9101  -47.0159 H         1 UNK         0.3000 
    131 H131       -4.5128  -13.4075  -46.6588 H         1 UNK         0.0600 
    132 H132       -3.5307  -14.7778  -49.2099 H         1 UNK         0.0800 
    133 H133       -4.4661  -13.3056  -49.2016 H         1 UNK         0.0800 
    134 H134       -6.5199  -17.0809  -49.7304 H         1 UNK         0.0800 
    135 H135       -5.3044  -16.1863  -50.6032 H         1 UNK         0.0800 
    136 H136       -3.0325  -16.9244  -50.5059 H         1 UNK         0.1150 
    137 H137       -1.8717  -20.0283  -47.7994 H         1 UNK         0.1150 
    138 H138       -5.7990  -18.3280  -47.5493 H         1 UNK         0.1150 
    139 H139       -5.2343  -20.1744  -46.1190 H         1 UNK         0.0800 
    140 H140       -3.9781  -21.2386  -46.7043 H         1 UNK         0.0800 
    141 H141       -2.6152  -21.1162  -43.0563 H         1 UNK         0.0800 
    142 H142       -4.1508  -21.6059  -43.7135 H         1 UNK         0.0800 
    143 H143       -3.1492  -22.9310  -45.4495 H         1 UNK         0.0600 
    144 H144       -0.7474  -21.3613  -45.1499 H         1 UNK         0.3000 
    145 H145        1.3427  -23.5990  -46.9625 H         1 UNK         0.0600 
    146 H146        1.7726  -21.6660  -48.4411 H         1 UNK         0.0600 
    147 H147        0.2424  -22.4272  -48.8490 H         1 UNK         0.0600 
    148 H148        0.2577  -20.9170  -47.9569 H         1 UNK         0.0600 
    149 H149        1.6380  -20.9299  -45.8621 H         1 UNK         0.3000 
    150 H150        2.6617  -22.0551  -42.6190 H         1 UNK         0.0600 
    151 H151        4.7307  -22.3352  -43.9846 H         1 UNK         0.0600 
    152 H152        4.7181  -20.7852  -43.1572 H         1 UNK         0.0600 
    153 H153        4.3542  -20.8683  -44.8795 H         1 UNK         0.0600 
    154 H154        2.6451  -19.4503  -43.7056 H         1 UNK         0.3000 
    155 H155       -0.8229  -18.7083  -43.2952 H         1 UNK         0.0600 
    156 H156        0.1643  -16.8142  -42.0087 H         1 UNK         0.0600 
    157 H157        1.6567  -17.7263  -41.7885 H         1 UNK         0.0600 
    158 H158        0.1613  -18.2923  -41.0569 H         1 UNK         0.0600 
    159 H159        1.2379  -17.0470  -44.2258 H         1 UNK         0.3000 
    160 H160        1.2942  -18.1253  -47.6507 H         1 UNK         0.0600 
    161 H161        0.3143  -15.5916  -46.2280 H         1 UNK         0.0600 
    162 H162       -0.5846  -16.5257  -47.4101 H         1 UNK         0.0600 
    163 H163        0.8759  -15.6849  -47.8973 H         1 UNK         0.0600 
    164 H164        2.7602  -16.2410  -45.9900 H         1 UNK         0.3000 
    165 H165        5.5336  -18.4058  -45.5150 H         1 UNK         0.0600 
    166 H166        5.3346  -15.9963  -47.4051 H         1 UNK         0.0600 
    167 H167        6.8095  -16.6034  -46.6510 H         1 UNK         0.0600 
    168 H168        5.9613  -17.5829  -47.8365 H         1 UNK         0.0600 
    169 H169        5.1166  -15.6276  -44.9689 H         1 UNK         0.3000 
    170 H170        3.3610  -15.9778  -41.9062 H         1 UNK         0.0600 
    171 H171        5.7473  -16.3514  -41.2686 H         1 UNK         0.0600 
    172 H172        6.2639  -15.1478  -42.4436 H         1 UNK         0.0600 
    173 H173        5.2861  -14.6704  -41.0552 H         1 UNK         0.0600 
    174 H174        4.4032  -13.7004  -43.2477 H         1 UNK         0.3000 
    175 H175        3.0663  -12.2310  -44.2419 H         1 UNK         0.0600 
    176 H176        2.5987  -12.1513  -46.6701 H         1 UNK         0.0600 
    177 H177        3.7043  -13.4723  -46.3266 H         1 UNK         0.0600 
    178 H178        2.0074  -13.8087  -46.6506 H         1 UNK         0.0600 
    179 H179        0.3776  -12.6572  -45.2654 H         1 UNK         0.3000 
    180 H180       -1.4824  -12.3720  -42.9305 H         1 UNK         0.0600 
    181 H181       -0.9385  -10.4992  -41.4386 H         1 UNK         0.0600 
    182 H182       -0.6631   -9.4251  -42.8020 H         1 UNK         0.0600 
    183 H183       -2.2816  -10.0417  -42.4703 H         1 UNK         0.0600 
    184 H184       -2.2683  -11.9932  -44.9323 H         1 UNK         0.3000 
    185 H185       -2.6640   -9.5393  -46.8665 H         1 UNK         0.0600 
    186 H186       -0.3509  -10.9602  -48.2804 H         1 UNK         0.0600 
    187 H187       -1.7138  -10.2022  -49.1051 H         1 UNK         0.0600 
    188 H188       -0.6118   -9.2305  -48.1449 H         1 UNK         0.0600 
    189 H189       -3.8812  -11.3576  -46.9564 H         1 UNK         0.3000 
    190 H190       -0.5889  -22.7563  -42.9475 H         1 UNK         0.3000 
    191 H191       -1.5964  -24.7450  -41.2223 H         1 UNK         0.0600 
    192 H192        0.7029  -24.7365  -40.2787 H         1 UNK         0.0600 
    193 H193        0.1638  -23.0946  -40.6002 H         1 UNK         0.0600 
    194 H194        1.3057  -23.8786  -41.6901 H         1 UNK         0.0600 
    195 H195        0.5417  -25.0502  -44.0611 H         1 UNK         0.3000 
    196 H196        0.9478  -27.8897  -43.8810 H         1 UNK         0.0600 
    197 H197        1.8276  -27.5908  -46.1966 H         1 UNK         0.0600 
    198 H198        2.4608  -26.3485  -45.1297 H         1 UNK         0.0600 
    199 H199        1.1615  -25.9641  -46.2588 H         1 UNK         0.0600 
    200 H200       -1.8589  -26.1380  -44.6403 H         1 UNK         0.3000 
    201 H201       -3.8321  -26.5151  -45.5037 H         1 UNK         0.0600 
    202 H202       -3.7872  -28.5821  -44.0817 H         1 UNK         0.0600 
    203 H203       -3.2002  -29.5107  -45.4614 H         1 UNK         0.0600 
    204 H204       -4.7923  -28.7692  -45.5086 H         1 UNK         0.0600 
    205 H205       -1.6187  -25.9720  -47.2825 H         1 UNK         0.3000 
    206 H206       -2.3146  -27.2780  -49.8490 H         1 UNK         0.0600 
    207 H207        0.0782  -26.8700  -49.3743 H         1 UNK         0.0600 
    208 H208       -0.4479  -25.8701  -50.7206 H         1 UNK         0.0600 
    209 H209       -0.2200  -25.1519  -49.1312 H         1 UNK         0.0600 
    210 H210       -2.1492  -24.0335  -48.3936 H         1 UNK         0.3000 
    211 H211       -3.1028  -22.0893  -48.7157 H         1 UNK         0.0600 
    212 H212       -5.6320  -23.6510  -49.4698 H         1 UNK         0.0600 
    213 H213       -5.5647  -22.0457  -48.7485 H         1 UNK         0.0600 
    214 H214       -5.0554  -23.4390  -47.8190 H         1 UNK         0.0600 
    215 H215       -5.0895  -21.0401  -50.3840 H         1 UNK         0.3000 
    216 H216       -3.5932  -20.3170  -52.7066 H         1 UNK         0.0600 
    217 H217       -5.6925  -19.0108  -53.2286 H         1 UNK         0.0600 
    218 H218       -5.1472  -18.7565  -51.5829 H         1 UNK         0.0600 
    219 H219       -6.5161  -19.8200  -51.9031 H         1 UNK         0.0600 
    220 H220       -4.3085  -20.4806  -54.9255 H         1 UNK         0.3000 
    221 H221       -5.9937  -22.8008  -55.6929 H         1 UNK         0.0600 
    222 H222       -3.0736  -22.4090  -56.5670 H         1 UNK         0.0600 
    223 H223       -3.6832  -23.7261  -55.5679 H         1 UNK         0.0600 
    224 H224       -4.1944  -23.5872  -57.2437 H         1 UNK         0.0600 
    225 H225       -7.1926  -20.7165  -55.8418 H         1 UNK         0.3000 
    226 H226       -8.2732  -19.1427  -56.9244 H         1 UNK         0.0600 
    227 H227       -8.2074  -20.5022  -59.0148 H         1 UNK         0.0600 
    228 H228       -8.1408  -18.7784  -59.3468 H         1 UNK         0.0600 
    229 H229       -6.6826  -19.7456  -59.4736 H         1 UNK         0.0600 
    230 H230       -4.8416  -19.0469  -57.8362 H         1 UNK         0.3000 
    231 H231       -4.5141  -16.1818  -57.1869 H         1 UNK         0.0600 
    232 H232       -2.1087  -16.6892  -57.6740 H         1 UNK         0.0600 
    233 H233       -3.1326  -17.1928  -59.0108 H         1 UNK         0.0600 
    234 H234       -2.4947  -18.3924  -57.8867 H         1 UNK         0.0600 
    235 H235       -3.3629  -15.5015  -55.3428 H         1 UNK         0.3000 
    236 H236       -3.6649  -17.0898  -52.9330 H         1 UNK         0.0600 
    237 H237       -2.5630  -14.2749  -53.4215 H         1 UNK         0.0600 
    238 H238       -4.2122  -14.6853  -52.9506 H         1 UNK         0.0600 
    239 H239       -2.8835  -14.9766  -51.8423 H         1 UNK         0.0600 
    240 H240       -2.1641  -18.6883  -54.1579 H         1 UNK         0.3000 
    241 H241       -0.4010  -19.9840  -54.0646 H         1 UNK         0.0600 
    242 H242        2.4549  -19.6456  -53.9510 H         1 UNK         0.3800 
    243 H243        2.8589  -18.6304  -55.3028 H         1 UNK         0.3800 
    244 H244        1.2625  -19.9305  -52.2599 H         1 UNK         0.0800 
    245 H245        0.8633  -18.2855  -51.8574 H         1 UNK         0.0800 
    246 H246       -0.1746  -18.6774  -49.1226 H         1 UNK         0.0800 
    247 H247       -0.7233  -17.5655  -50.3515 H         1 UNK         0.0800 
@<TRIPOS>BOND
     1    1    2 1    
     2    1  127 1    
     3    1  128 1    
     4    1  129 1    
     5    2    3 2    
     6    2    4 am   BACKBONE|DICT|INTERRES
     7    4    5 1    
     8    4  130 1    
     9    5    6 1    
    10    5   65 1    
    11    5  131 1    
    12    6    7 1    
    13    6  132 1    
    14    6  133 1    
    15    7    8 1    
    16    8    9 1    
    17    8  134 1    
    18    8  135 1    
    19    9   10 ar   
    20    9   14 ar   
    21   10   11 ar   
    22   10  136 1    
    23   11   12 ar   
    24   11  126 1    
    25   12   13 ar   
    26   12  137 1    
    27   13   14 ar   
    28   13   15 1    
    29   14  138 1    
    30   15   16 1    
    31   15  139 1    
    32   15  140 1    
    33   16   17 1    
    34   17   18 1    
    35   17  141 1    
    36   17  142 1    
    37   18   19 1    
    38   18   67 1    
    39   18  143 1    
    40   19   20 am   BACKBONE|DICT|INTERRES
    41   19  144 1    
    42   20   21 2    
    43   20   22 1    
    44   22   23 1    
    45   22   24 1    
    46   22  145 1    
    47   23  146 1    
    48   23  147 1    
    49   23  148 1    
    50   24   25 am   BACKBONE|DICT|INTERRES
    51   24  149 1    
    52   25   26 2    
    53   25   27 1    
    54   27   28 1    
    55   27   29 1    
    56   27  150 1    
    57   28  151 1    
    58   28  152 1    
    59   28  153 1    
    60   29   30 am   BACKBONE|DICT|INTERRES
    61   29  154 1    
    62   30   31 2    
    63   30   32 1    
    64   32   33 1    
    65   32   34 1    
    66   32  155 1    
    67   33  156 1    
    68   33  157 1    
    69   33  158 1    
    70   34   35 am   BACKBONE|DICT|INTERRES
    71   34  159 1    
    72   35   36 2    
    73   35   37 1    
    74   37   38 1    
    75   37   39 1    
    76   37  160 1    
    77   38  161 1    
    78   38  162 1    
    79   38  163 1    
    80   39   40 am   BACKBONE|DICT|INTERRES
    81   39  164 1    
    82   40   41 2    
    83   40   42 1    
    84   42   43 1    
    85   42   44 1    
    86   42  165 1    
    87   43  166 1    
    88   43  167 1    
    89   43  168 1    
    90   44   45 am   BACKBONE|DICT|INTERRES
    91   44  169 1    
    92   45   46 2    
    93   45   47 1    
    94   47   48 1    
    95   47   49 1    
    96   47  170 1    
    97   48  171 1    
    98   48  172 1    
    99   48  173 1    
   100   49   50 am   BACKBONE|DICT|INTERRES
   101   49  174 1    
   102   50   51 2    
   103   50   52 1    
   104   52   53 1    
   105   52   54 1    
   106   52  175 1    
   107   53  176 1    
   108   53  177 1    
   109   53  178 1    
   110   54   55 am   BACKBONE|DICT|INTERRES
   111   54  179 1    
   112   55   56 2    
   113   55   57 1    
   114   57   58 1    
   115   57   59 1    
   116   57  180 1    
   117   58  181 1    
   118   58  182 1    
   119   58  183 1    
   120   59   60 am   BACKBONE|DICT|INTERRES
   121   59  184 1    
   122   60   61 2    
   123   60   62 1    
   124   62   63 1    
   125   62   64 1    
   126   62  185 1    
   127   63  186 1    
   128   63  187 1    
   129   63  188 1    
   130   64   65 am   BACKBONE|DICT|INTERRES
   131   64  189 1    
   132   65   66 2    
   133   67   68 2    
   134   67   69 am   BACKBONE|DICT|INTERRES
   135   69   70 1    
   136   69  190 1    
   137   70   71 1    
   138   70   72 1    
   139   70  191 1    
   140   71  192 1    
   141   71  193 1    
   142   71  194 1    
   143   72   73 2    
   144   72   74 am   BACKBONE|DICT|INTERRES
   145   74   75 1    
   146   74  195 1    
   147   75   76 1    
   148   75   77 1    
   149   75  196 1    
   150   76  197 1    
   151   76  198 1    
   152   76  199 1    
   153   77   78 2    
   154   77   79 am   BACKBONE|DICT|INTERRES
   155   79   80 1    
   156   79  200 1    
   157   80   81 1    
   158   80   82 1    
   159   80  201 1    
   160   81  202 1    
   161   81  203 1    
   162   81  204 1    
   163   82   83 2    
   164   82   84 am   BACKBONE|DICT|INTERRES
   165   84   85 1    
   166   84  205 1    
   167   85   86 1    
   168   85   87 1    
   169   85  206 1    
   170   86  207 1    
   171   86  208 1    
   172   86  209 1    
   173   87   88 2    
   174   87   89 am   BACKBONE|DICT|INTERRES
   175   89   90 1    
   176   89  210 1    
   177   90   91 1    
   178   90   92 1    
   179   90  211 1    
   180   91  212 1    
   181   91  213 1    
   182   91  214 1    
   183   92   93 2    
   184   92   94 am   BACKBONE|DICT|INTERRES
   185   94   95 1    
   186   94  215 1    
   187   95   96 1    
   188   95   97 1    
   189   95  216 1    
   190   96  217 1    
   191   96  218 1    
   192   96  219 1    
   193   97   98 2    
   194   97   99 am   BACKBONE|DICT|INTERRES
   195   99  100 1    
   196   99  220 1    
   197  100  101 1    
   198  100  102 1    
   199  100  221 1    
   200  101  222 1    
   201  101  223 1    
   202  101  224 1    
   203  102  103 2    
   204  102  104 am   BACKBONE|DICT|INTERRES
   205  104  105 1    
   206  104  225 1    
   207  105  106 1    
   208  105  107 1    
   209  105  226 1    
   210  106  227 1    
   211  106  228 1    
   212  106  229 1    
   213  107  108 2    
   214  107  109 am   BACKBONE|DICT|INTERRES
   215  109  110 1    
   216  109  230 1    
   217  110  111 1    
   218  110  112 1    
   219  110  231 1    
   220  111  232 1    
   221  111  233 1    
   222  111  234 1    
   223  112  113 2    
   224  112  114 am   BACKBONE|DICT|INTERRES
   225  114  115 1    
   226  114  235 1    
   227  115  116 1    
   228  115  117 1    
   229  115  236 1    
   230  116  237 1    
   231  116  238 1    
   232  116  239 1    
   233  117  118 2    
   234  117  119 am   BACKBONE|DICT|INTERRES
   235  119  120 1    
   236  119  240 1    
   237  120  121 1    
   238  120  124 1    
   239  120  241 1    
   240  121  122 am   BACKBONE|DICT|INTERRES
   241  121  123 2    
   242  122  242 1    
   243  122  243 1    
   244  124  125 1    
   245  124  244 1    
   246  124  245 1    
   247  125  126 1    
   248  126  246 1    
   249  126  247 1    
@<TRIPOS>SUBSTRUCTURE
     1 UNK         1 GROUP             0       ****    0 ROOT    
