@<TRIPOS>MOLECULE
3R540
247   249    1
SMALL
USER_CHARGES


@<TRIPOS>ATOM
      1 CA          3.7739  -10.7004  -48.6768 C.3       0 UNK        -0.1800 
      2 C           3.2179  -11.7533  -47.7303 C.2       0 UNK         0.5000 
      3 O           3.1282  -11.5106  -46.5265 O.2       0 UNK        -0.5000 
      4 N           2.8226  -12.9164  -48.2651 N.am      1 UNK        -0.5000 
      5 CA          2.2615  -14.0375  -47.5002 C.3       1 UNK         0.1400 
      6 C6          2.1278  -15.3348  -48.3394 C.3       23 UNK        -0.0398 
      7 S7          1.1576  -15.1383  -49.8795 S.3       23 UNK        -0.2404 
      8 C8          2.4527  -15.2709  -51.1586 C.3       23 UNK        -0.0205 
      9 C9          2.5774  -16.6690  -51.7583 C.ar      23 UNK        -0.0193 
     10 C10         2.5996  -16.8213  -53.1493 C.ar      23 UNK        -0.1150 
     11 C11         2.7295  -18.0865  -53.7297 C.ar      23 UNK        -0.0193 
     12 C12         2.8523  -19.2073  -52.9066 C.ar      23 UNK        -0.1150 
     13 C13         2.8189  -19.0744  -51.5160 C.ar      23 UNK        -0.0193 
     14 C14         2.6900  -17.8045  -50.9465 C.ar      23 UNK        -0.1150 
     15 C15         2.9089  -20.3127  -50.6410 C.3       23 UNK        -0.0205 
     16 S16         1.2826  -21.1195  -50.5105 S.3       23 UNK        -0.2404 
     17 C17         0.7281  -20.6997  -48.8224 C.3       23 UNK        -0.0398 
     18 CA          0.3155  -21.9671  -48.0328 C.3       11 UNK         0.1400 
     19 N           0.3598  -21.7693  -46.5821 N.am      11 UNK        -0.5000 
     20 C           0.2308  -22.7505  -45.6764 C.2       10 UNK         0.5000 
     21 O           0.0856  -23.9379  -45.9683 O.2       10 UNK        -0.5000 
     22 CA          0.2233  -22.3349  -44.1946 C.3       10 UNK         0.1400 
     23 CB          1.6484  -22.0523  -43.6966 C.3       10 UNK        -0.1800 
     24 N          -0.6285  -21.1734  -43.9409 N.am      10 UNK        -0.5000 
     25 C          -1.9574  -21.1539  -44.1180 C.2       9 UNK         0.5000 
     26 O          -2.6162  -22.1325  -44.4715 O.2       9 UNK        -0.5000 
     27 CA         -2.6609  -19.7979  -43.9206 C.3       9 UNK         0.1400 
     28 CB         -2.8544  -19.4856  -42.4294 C.3       9 UNK        -0.1800 
     29 N          -1.9471  -18.6964  -44.5692 N.am      9 UNK        -0.5000 
     30 C          -1.7234  -18.6196  -45.8886 C.2       8 UNK         0.5000 
     31 O          -2.1356  -19.4459  -46.6982 O.2       8 UNK        -0.5000 
     32 CA         -0.8576  -17.4525  -46.3857 C.3       8 UNK         0.1400 
     33 CB         -1.6995  -16.1761  -46.5276 C.3       8 UNK        -0.1800 
     34 N           0.3054  -17.2117  -45.5283 N.am      8 UNK        -0.5000 
     35 C           1.3025  -18.0928  -45.3556 C.2       7 UNK         0.5000 
     36 O           1.3753  -19.1656  -45.9515 O.2       7 UNK        -0.5000 
     37 CA          2.3737  -17.7447  -44.3088 C.3       7 UNK         0.1400 
     38 CB          3.3899  -16.7443  -44.8724 C.3       7 UNK        -0.1800 
     39 N           1.7908  -17.2093  -43.0807 N.am      7 UNK        -0.5000 
     40 C           1.0226  -17.9130  -42.2371 C.2       6 UNK         0.5000 
     41 O           0.7613  -19.1068  -42.3812 O.2       6 UNK        -0.5000 
     42 CA          0.4043  -17.1336  -41.0627 C.3       6 UNK         0.1400 
     43 CB          1.3735  -17.0863  -39.8728 C.3       6 UNK        -0.1800 
     44 N           0.0268  -15.7691  -41.4336 N.am      6 UNK        -0.5000 
     45 C          -0.9044  -15.4486  -42.3397 C.2       5 UNK         0.5000 
     46 O          -1.5735  -16.2835  -42.9487 O.2       5 UNK        -0.5000 
     47 CA         -1.0897  -13.9554  -42.6561 C.3       5 UNK         0.1400 
     48 CB         -1.9138  -13.2416  -41.5691 C.3       5 UNK        -0.1800 
     49 N           0.1639  -13.2487  -42.9416 N.am      5 UNK        -0.5000 
     50 C           1.1785  -12.9236  -42.1273 C.2       4 UNK         0.5000 
     51 O           1.2386  -13.2396  -40.9386 O.2       4 UNK        -0.5000 
     52 CA          2.3263  -12.1087  -42.7577 C.3       4 UNK         0.1400 
     53 CB          3.4188  -13.0436  -43.2963 C.3       4 UNK        -0.1800 
     54 N           1.8682  -11.2364  -43.8414 N.am      4 UNK        -0.5000 
     55 C           1.0934  -10.1545  -43.6721 C.2       3 UNK         0.5000 
     56 O           0.7795   -9.7003  -42.5714 O.2       3 UNK        -0.5000 
     57 CA          0.5396   -9.5002  -44.9500 C.3       3 UNK         0.1400 
     58 CB          1.5614   -8.5332  -45.5683 C.3       3 UNK        -0.1800 
     59 N           0.1453  -10.5067  -45.9378 N.am      3 UNK        -0.5000 
     60 C          -0.9633  -11.2567  -45.8487 C.2       2 UNK         0.5000 
     61 O          -1.8068  -11.1257  -44.9622 O.2       2 UNK        -0.5000 
     62 CA         -1.1575  -12.3538  -46.9114 C.3       2 UNK         0.1400 
     63 CB         -2.0209  -11.8406  -48.0728 C.3       2 UNK        -0.1800 
     64 N           0.1066  -12.8609  -47.4445 N.am      2 UNK        -0.5000 
     65 C           0.9431  -13.6739  -46.7848 C.2       1 UNK         0.5000 
     66 O           0.7293  -14.1010  -45.6497 O.2       1 UNK        -0.5000 
     67 C          -1.0516  -22.5142  -48.4932 C.2       11 UNK         0.5000 
     68 O          -1.0871  -23.4922  -49.2383 O.2       11 UNK        -0.5000 
     69 N          -2.1470  -21.9200  -47.9974 N.am      12 UNK        -0.5000 
     70 CA         -3.5195  -22.3585  -48.2453 C.3       12 UNK         0.1400 
     71 CB         -4.5104  -21.3942  -47.5797 C.3       12 UNK        -0.1800 
     72 C          -3.7790  -23.7972  -47.7765 C.2       12 UNK         0.5000 
     73 O          -4.3768  -24.5684  -48.5251 O.2       12 UNK        -0.5000 
     74 N          -3.3016  -24.1416  -46.5721 N.am      13 UNK        -0.5000 
     75 CA         -3.3832  -25.4877  -46.0060 C.3       13 UNK         0.1400 
     76 CB         -2.9079  -25.4683  -44.5455 C.3       13 UNK        -0.1800 
     77 C          -2.5979  -26.5236  -46.8302 C.2       13 UNK         0.5000 
     78 O          -3.1457  -27.5782  -47.1541 O.2       13 UNK        -0.5000 
     79 N          -1.3515  -26.1883  -47.1943 N.am      14 UNK        -0.5000 
     80 CA         -0.4725  -27.0168  -48.0250 C.3       14 UNK         0.1400 
     81 CB          0.9237  -26.3787  -48.0824 C.3       14 UNK        -0.1800 
     82 C          -1.0206  -27.2493  -49.4464 C.2       14 UNK         0.5000 
     83 O          -0.8738  -28.3462  -49.9862 O.2       14 UNK        -0.5000 
     84 N          -1.6699  -26.2233  -50.0085 N.am      15 UNK        -0.5000 
     85 CA         -2.3164  -26.2390  -51.3202 C.3       15 UNK         0.1400 
     86 CB         -2.3327  -24.8036  -51.8601 C.3       15 UNK        -0.1800 
     87 C          -3.7364  -26.8470  -51.3120 C.2       15 UNK         0.5000 
     88 O          -4.3848  -26.8492  -52.3590 O.2       15 UNK        -0.5000 
     89 N          -4.1911  -27.3550  -50.1561 N.am      16 UNK        -0.5000 
     90 CA         -5.4796  -28.0111  -49.9158 C.3       16 UNK         0.1400 
     91 CB         -5.6062  -29.3110  -50.7390 C.3       16 UNK        -0.1800 
     92 C          -6.6777  -27.0550  -50.0885 C.2       16 UNK         0.5000 
     93 O          -7.5843  -27.3208  -50.8799 O.2       16 UNK        -0.5000 
     94 N          -6.6501  -25.9662  -49.3100 N.am      17 UNK        -0.5000 
     95 CA         -7.6570  -24.9093  -49.1886 C.3       17 UNK         0.1400 
     96 CB         -9.0327  -25.4721  -48.7700 C.3       17 UNK        -0.1800 
     97 C          -7.7099  -23.9920  -50.4241 C.2       17 UNK         0.5000 
     98 O          -8.7934  -23.6818  -50.9243 O.2       17 UNK        -0.5000 
     99 N          -6.5301  -23.5496  -50.8798 N.am      18 UNK        -0.5000 
    100 CA        -6.3897  -22.4927  -51.8848 C.3       18 UNK         0.1400 
    101 CB        -4.9633  -22.5113  -52.4517 C.3       18 UNK        -0.1800 
    102 C         -6.7070  -21.1061  -51.2931 C.2       18 UNK         0.5000 
    103 O         -6.6431  -20.9194  -50.0751 O.2       18 UNK        -0.5000 
    104 N         -7.0086  -20.1425  -52.1705 N.am      19 UNK        -0.5000 
    105 CA        -7.2951  -18.7487  -51.8283 C.3       19 UNK         0.1400 
    106 CB        -8.0691  -18.1055  -52.9931 C.3       19 UNK        -0.1800 
    107 C         -6.0057  -17.9772  -51.4773 C.2       19 UNK         0.5000 
    108 O         -5.5371  -17.1638  -52.2739 O.2       19 UNK        -0.5000 
    109 N         -5.4355  -18.2886  -50.3050 N.am      20 UNK        -0.5000 
    110 CA        -4.2133  -17.7472  -49.6884 C.3       20 UNK         0.1400 
    111 CB        -4.2818  -16.2126  -49.5442 C.3       20 UNK        -0.1800 
    112 C         -2.8936  -18.1798  -50.3590 C.2       20 UNK         0.5000 
    113 O         -1.8734  -18.2370  -49.6756 O.2       20 UNK        -0.5000 
    114 N         -2.9213  -18.4800  -51.6600 N.am      21 UNK        -0.5000 
    115 CA        -1.7812  -18.8564  -52.4882 C.3       21 UNK         0.1400 
    116 CB        -0.8745  -17.6258  -52.6840 C.3       21 UNK        -0.1800 
    117 C         -2.3114  -19.3737  -53.8425 C.2       21 UNK         0.5000 
    118 O         -3.4752  -19.1189  -54.1594 O.2       21 UNK        -0.5000 
    119 N         -1.5197  -20.0698  -54.6679 N.am      22 UNK        -0.5000 
    120 CA        -0.1696  -20.6000  -54.4249 C.3       22 UNK         0.1400 
    121 C         -0.2551  -22.1368  -54.2333 C.2       22 UNK         0.5000 
    122 N          0.4265  -22.6913  -53.2429 N.am      22 UNK        -0.7600 
    123 O         -0.9010  -22.8388  -55.0084 O.2       22 UNK        -0.5000 
    124 C124        0.7916  -20.2882  -55.6040 C.3       23 UNK        -0.0398 
    125 S125        1.0554  -18.5057  -55.9063 S.3       23 UNK        -0.2404 
    126 C126        2.7332  -18.2385  -55.2437 C.3       23 UNK        -0.0205 
    127 H127        4.7991  -10.4541  -48.4009 H         1 UNK         0.0600 
    128 H128        3.1761   -9.7909  -48.6175 H         1 UNK         0.0600 
    129 H129        3.7718  -11.0436  -49.7116 H         1 UNK         0.0600 
    130 H130        2.8974  -13.0580  -49.2620 H         1 UNK         0.3000 
    131 H131        2.9842  -14.2448  -46.7102 H         1 UNK         0.0600 
    132 H132        1.6683  -16.1286  -47.7497 H         1 UNK         0.0800 
    133 H133        3.1242  -15.7052  -48.5817 H         1 UNK         0.0800 
    134 H134        3.4204  -14.9617  -50.7626 H         1 UNK         0.0800 
    135 H135        2.2078  -14.5520  -51.9420 H         1 UNK         0.0800 
    136 H136        2.5081  -15.9531  -53.7869 H         1 UNK         0.1150 
    137 H137        2.9547  -20.1888  -53.3472 H         1 UNK         0.1150 
    138 H138        2.6657  -17.7057  -49.8714 H         1 UNK         0.1150 
    139 H139        3.6133  -21.0184  -51.0840 H         1 UNK         0.0800 
    140 H140        3.3135  -20.0662  -49.6589 H         1 UNK         0.0800 
    141 H141       -0.0859  -19.9756  -48.8726 H         1 UNK         0.0800 
    142 H142        1.5422  -20.1932  -48.3064 H         1 UNK         0.0800 
    143 H143        1.0552  -22.7427  -48.2444 H         1 UNK         0.0600 
    144 H144        0.5177  -20.8180  -46.2595 H         1 UNK         0.3000 
    145 H145       -0.1763  -23.1720  -43.6184 H         1 UNK         0.0600 
    146 H146        1.6565  -21.8419  -42.6270 H         1 UNK         0.0600 
    147 H147        2.2987  -22.9117  -43.8645 H         1 UNK         0.0600 
    148 H148        2.0931  -21.1979  -44.2074 H         1 UNK         0.0600 
    149 H149       -0.1649  -20.3340  -43.6055 H         1 UNK         0.3000 
    150 H150       -3.6481  -19.8671  -44.3820 H         1 UNK         0.0600 
    151 H151       -3.4277  -20.2727  -41.9383 H         1 UNK         0.0600 
    152 H152       -3.3974  -18.5507  -42.2897 H         1 UNK         0.0600 
    153 H153       -1.9019  -19.3995  -41.9072 H         1 UNK         0.0600 
    154 H154       -1.6215  -17.9419  -43.9719 H         1 UNK         0.3000 
    155 H155       -0.4933  -17.7248  -47.3786 H         1 UNK         0.0600 
    156 H156       -1.8207  -15.6563  -45.5777 H         1 UNK         0.0600 
    157 H157       -2.6979  -16.4012  -46.9028 H         1 UNK         0.0600 
    158 H158       -1.2424  -15.4906  -47.2388 H         1 UNK         0.0600 
    159 H159        0.3170  -16.3422  -45.0128 H         1 UNK         0.3000 
    160 H160        2.9058  -18.6654  -44.0597 H         1 UNK         0.0600 
    161 H161        2.9239  -15.7809  -45.0655 H         1 UNK         0.0600 
    162 H162        3.8180  -17.1017  -45.8099 H         1 UNK         0.0600 
    163 H163        4.2137  -16.5841  -44.1767 H         1 UNK         0.0600 
    164 H164        1.9411  -16.2307  -42.8885 H         1 UNK         0.3000 
    165 H165       -0.4992  -17.6608  -40.7505 H         1 UNK         0.0600 
    166 H166        0.9146  -16.6020  -39.0106 H         1 UNK         0.0600 
    167 H167        1.6631  -18.0918  -39.5646 H         1 UNK         0.0600 
    168 H168        2.2858  -16.5406  -40.1172 H         1 UNK         0.0600 
    169 H169        0.5372  -15.0052  -40.9982 H         1 UNK         0.3000 
    170 H170       -1.6646  -13.9039  -43.5822 H         1 UNK         0.0600 
    171 H171       -2.8870  -13.7180  -41.4457 H         1 UNK         0.0600 
    172 H172       -1.4179  -13.2594  -40.5984 H         1 UNK         0.0600 
    173 H173       -2.0928  -12.1998  -41.8358 H         1 UNK         0.0600 
    174 H174        0.2992  -13.0411  -43.9240 H         1 UNK         0.3000 
    175 H175        2.7617  -11.4861  -41.9735 H         1 UNK         0.0600 
    176 H176        3.0522  -13.6488  -44.1245 H         1 UNK         0.0600 
    177 H177        4.2782  -12.4771  -43.6553 H         1 UNK         0.0600 
    178 H178        3.7758  -13.7225  -42.5208 H         1 UNK         0.0600 
    179 H179        2.1437  -11.4930  -44.7845 H         1 UNK         0.3000 
    180 H180       -0.3442   -8.9209  -44.6738 H         1 UNK         0.0600 
    181 H181        2.4851   -9.0385  -45.8497 H         1 UNK         0.0600 
    182 H182        1.8242   -7.7448  -44.8620 H         1 UNK         0.0600 
    183 H183        1.1585   -8.0502  -46.4586 H         1 UNK         0.0600 
    184 H184        0.8080  -10.7047  -46.6729 H         1 UNK         0.3000 
    185 H185       -1.6887  -13.1793  -46.4336 H         1 UNK         0.0600 
    186 H186       -2.9838  -11.4762  -47.7124 H         1 UNK         0.0600 
    187 H187       -1.5365  -11.0201  -48.6037 H         1 UNK         0.0600 
    188 H188       -2.2237  -12.6342  -48.7924 H         1 UNK         0.0600 
    189 H189        0.3593  -12.5690  -48.3775 H         1 UNK         0.3000 
    190 H190       -2.0412  -21.0918  -47.4128 H         1 UNK         0.3000 
    191 H191       -3.6861  -22.3259  -49.3231 H         1 UNK         0.0600 
    192 H192       -4.3365  -21.3122  -46.5066 H         1 UNK         0.0600 
    193 H193       -5.5389  -21.7283  -47.7210 H         1 UNK         0.0600 
    194 H194       -4.4325  -20.3968  -48.0087 H         1 UNK         0.0600 
    195 H195       -2.8538  -23.4327  -45.9992 H         1 UNK         0.3000 
    196 H196       -4.4334  -25.7868  -46.0139 H         1 UNK         0.0600 
    197 H197       -2.9684  -26.4624  -44.1011 H         1 UNK         0.0600 
    198 H198       -3.5249  -24.8035  -43.9407 H         1 UNK         0.0600 
    199 H199       -1.8745  -25.1317  -44.4605 H         1 UNK         0.0600 
    200 H200       -0.9666  -25.3047  -46.8704 H         1 UNK         0.3000 
    201 H201       -0.3821  -27.9920  -47.5424 H         1 UNK         0.0600 
    202 H202        1.3558  -26.2864  -47.0858 H         1 UNK         0.0600 
    203 H203        0.8919  -25.3828  -48.5258 H         1 UNK         0.0600 
    204 H204        1.6071  -26.9837  -48.6793 H         1 UNK         0.0600 
    205 H205       -1.6833  -25.3331  -49.5176 H         1 UNK         0.3000 
    206 H206       -1.7141  -26.8448  -51.9999 H         1 UNK         0.0600 
    207 H207       -1.3281  -24.3845  -51.8877 H         1 UNK         0.0600 
    208 H208       -2.7277  -24.7629  -52.8755 H         1 UNK         0.0600 
    209 H209       -2.9419  -24.1577  -51.2291 H         1 UNK         0.0600 
    210 H210       -3.5925  -27.2736  -49.3436 H         1 UNK         0.3000 
    211 H211       -5.4740  -28.3006  -48.8638 H         1 UNK         0.0600 
    212 H212       -5.6593  -29.1156  -51.8102 H         1 UNK         0.0600 
    213 H213       -6.5092  -29.8571  -50.4640 H         1 UNK         0.0600 
    214 H214       -4.7595  -29.9737  -50.5603 H         1 UNK         0.0600 
    215 H215       -5.7895  -25.7772  -48.8019 H         1 UNK         0.3000 
    216 H216       -7.3150  -24.2744  -48.3698 H         1 UNK         0.0600 
    217 H217       -9.7247  -24.6642  -48.5298 H         1 UNK         0.0600 
    218 H218       -8.9489  -26.1005  -47.8834 H         1 UNK         0.0600 
    219 H219       -9.4912  -26.0654  -49.5613 H         1 UNK         0.0600 
    220 H220       -5.6921  -23.8405  -50.3956 H         1 UNK         0.3000 
    221 H221       -7.0887  -22.6911  -52.7001 H         1 UNK         0.0600 
    222 H222       -4.2213  -22.2772  -51.6884 H         1 UNK         0.0600 
    223 H223       -4.7282  -23.4857  -52.8781 H         1 UNK         0.0600 
    224 H224       -4.8468  -21.7766  -53.2496 H         1 UNK         0.0600 
    225 H225       -7.0003  -20.3611  -53.1564 H         1 UNK         0.3000 
    226 H226       -7.9433  -18.7259  -50.9494 H         1 UNK         0.0600 
    227 H227       -9.0118  -18.6226  -53.1727 H         1 UNK         0.0600 
    228 H228       -8.3079  -17.0638  -52.7748 H         1 UNK         0.0600 
    229 H229       -7.4947  -18.1240  -53.9203 H         1 UNK         0.0600 
    230 H230       -5.8647  -19.0565  -49.7977 H         1 UNK         0.3000 
    231 H231       -4.1847  -18.1598  -48.6792 H         1 UNK         0.0600 
    232 H232       -3.3986  -15.8274  -49.0351 H         1 UNK         0.0600 
    233 H233       -5.1525  -15.9089  -48.9633 H         1 UNK         0.0600 
    234 H234       -4.3279  -15.7097  -50.5098 H         1 UNK         0.0600 
    235 H235       -3.7917  -18.3763  -52.1725 H         1 UNK         0.3000 
    236 H236       -1.2408  -19.6552  -51.9778 H         1 UNK         0.0600 
    237 H237       -1.4255  -16.7842  -53.1047 H         1 UNK         0.0600 
    238 H238       -0.4294  -17.2996  -51.7441 H         1 UNK         0.0600 
    239 H239       -0.0527  -17.8431  -53.3595 H         1 UNK         0.0600 
    240 H240       -1.9287  -20.3981  -55.5299 H         1 UNK         0.3000 
    241 H241        0.2628  -20.1685  -53.5239 H         1 UNK         0.0600 
    242 H242        0.3948  -23.6923  -53.1375 H         1 UNK         0.3800 
    243 H243        0.9305  -22.1409  -52.5619 H         1 UNK         0.3800 
    244 H244        1.7594  -20.7653  -55.4414 H         1 UNK         0.0800 
    245 H245        0.4048  -20.7198  -56.5290 H         1 UNK         0.0800 
    246 H246        3.1447  -17.3365  -55.6991 H         1 UNK         0.0800 
    247 H247        3.3938  -19.0523  -55.5464 H         1 UNK         0.0800 
@<TRIPOS>BOND
     1    1    2 1    
     2    1  127 1    
     3    1  128 1    
     4    1  129 1    
     5    2    3 2    
     6    2    4 am   BACKBONE|DICT|INTERRES
     7    4    5 1    
     8    4  130 1    
     9    5    6 1    
    10    5   65 1    
    11    5  131 1    
    12    6    7 1    
    13    6  132 1    
    14    6  133 1    
    15    7    8 1    
    16    8    9 1    
    17    8  134 1    
    18    8  135 1    
    19    9   10 ar   
    20    9   14 ar   
    21   10   11 ar   
    22   10  136 1    
    23   11   12 ar   
    24   11  126 1    
    25   12   13 ar   
    26   12  137 1    
    27   13   14 ar   
    28   13   15 1    
    29   14  138 1    
    30   15   16 1    
    31   15  139 1    
    32   15  140 1    
    33   16   17 1    
    34   17   18 1    
    35   17  141 1    
    36   17  142 1    
    37   18   19 1    
    38   18   67 1    
    39   18  143 1    
    40   19   20 am   BACKBONE|DICT|INTERRES
    41   19  144 1    
    42   20   21 2    
    43   20   22 1    
    44   22   23 1    
    45   22   24 1    
    46   22  145 1    
    47   23  146 1    
    48   23  147 1    
    49   23  148 1    
    50   24   25 am   BACKBONE|DICT|INTERRES
    51   24  149 1    
    52   25   26 2    
    53   25   27 1    
    54   27   28 1    
    55   27   29 1    
    56   27  150 1    
    57   28  151 1    
    58   28  152 1    
    59   28  153 1    
    60   29   30 am   BACKBONE|DICT|INTERRES
    61   29  154 1    
    62   30   31 2    
    63   30   32 1    
    64   32   33 1    
    65   32   34 1    
    66   32  155 1    
    67   33  156 1    
    68   33  157 1    
    69   33  158 1    
    70   34   35 am   BACKBONE|DICT|INTERRES
    71   34  159 1    
    72   35   36 2    
    73   35   37 1    
    74   37   38 1    
    75   37   39 1    
    76   37  160 1    
    77   38  161 1    
    78   38  162 1    
    79   38  163 1    
    80   39   40 am   BACKBONE|DICT|INTERRES
    81   39  164 1    
    82   40   41 2    
    83   40   42 1    
    84   42   43 1    
    85   42   44 1    
    86   42  165 1    
    87   43  166 1    
    88   43  167 1    
    89   43  168 1    
    90   44   45 am   BACKBONE|DICT|INTERRES
    91   44  169 1    
    92   45   46 2    
    93   45   47 1    
    94   47   48 1    
    95   47   49 1    
    96   47  170 1    
    97   48  171 1    
    98   48  172 1    
    99   48  173 1    
   100   49   50 am   BACKBONE|DICT|INTERRES
   101   49  174 1    
   102   50   51 2    
   103   50   52 1    
   104   52   53 1    
   105   52   54 1    
   106   52  175 1    
   107   53  176 1    
   108   53  177 1    
   109   53  178 1    
   110   54   55 am   BACKBONE|DICT|INTERRES
   111   54  179 1    
   112   55   56 2    
   113   55   57 1    
   114   57   58 1    
   115   57   59 1    
   116   57  180 1    
   117   58  181 1    
   118   58  182 1    
   119   58  183 1    
   120   59   60 am   BACKBONE|DICT|INTERRES
   121   59  184 1    
   122   60   61 2    
   123   60   62 1    
   124   62   63 1    
   125   62   64 1    
   126   62  185 1    
   127   63  186 1    
   128   63  187 1    
   129   63  188 1    
   130   64   65 am   BACKBONE|DICT|INTERRES
   131   64  189 1    
   132   65   66 2    
   133   67   68 2    
   134   67   69 am   BACKBONE|DICT|INTERRES
   135   69   70 1    
   136   69  190 1    
   137   70   71 1    
   138   70   72 1    
   139   70  191 1    
   140   71  192 1    
   141   71  193 1    
   142   71  194 1    
   143   72   73 2    
   144   72   74 am   BACKBONE|DICT|INTERRES
   145   74   75 1    
   146   74  195 1    
   147   75   76 1    
   148   75   77 1    
   149   75  196 1    
   150   76  197 1    
   151   76  198 1    
   152   76  199 1    
   153   77   78 2    
   154   77   79 am   BACKBONE|DICT|INTERRES
   155   79   80 1    
   156   79  200 1    
   157   80   81 1    
   158   80   82 1    
   159   80  201 1    
   160   81  202 1    
   161   81  203 1    
   162   81  204 1    
   163   82   83 2    
   164   82   84 am   BACKBONE|DICT|INTERRES
   165   84   85 1    
   166   84  205 1    
   167   85   86 1    
   168   85   87 1    
   169   85  206 1    
   170   86  207 1    
   171   86  208 1    
   172   86  209 1    
   173   87   88 2    
   174   87   89 am   BACKBONE|DICT|INTERRES
   175   89   90 1    
   176   89  210 1    
   177   90   91 1    
   178   90   92 1    
   179   90  211 1    
   180   91  212 1    
   181   91  213 1    
   182   91  214 1    
   183   92   93 2    
   184   92   94 am   BACKBONE|DICT|INTERRES
   185   94   95 1    
   186   94  215 1    
   187   95   96 1    
   188   95   97 1    
   189   95  216 1    
   190   96  217 1    
   191   96  218 1    
   192   96  219 1    
   193   97   98 2    
   194   97   99 am   BACKBONE|DICT|INTERRES
   195   99  100 1    
   196   99  220 1    
   197  100  101 1    
   198  100  102 1    
   199  100  221 1    
   200  101  222 1    
   201  101  223 1    
   202  101  224 1    
   203  102  103 2    
   204  102  104 am   BACKBONE|DICT|INTERRES
   205  104  105 1    
   206  104  225 1    
   207  105  106 1    
   208  105  107 1    
   209  105  226 1    
   210  106  227 1    
   211  106  228 1    
   212  106  229 1    
   213  107  108 2    
   214  107  109 am   BACKBONE|DICT|INTERRES
   215  109  110 1    
   216  109  230 1    
   217  110  111 1    
   218  110  112 1    
   219  110  231 1    
   220  111  232 1    
   221  111  233 1    
   222  111  234 1    
   223  112  113 2    
   224  112  114 am   BACKBONE|DICT|INTERRES
   225  114  115 1    
   226  114  235 1    
   227  115  116 1    
   228  115  117 1    
   229  115  236 1    
   230  116  237 1    
   231  116  238 1    
   232  116  239 1    
   233  117  118 2    
   234  117  119 am   BACKBONE|DICT|INTERRES
   235  119  120 1    
   236  119  240 1    
   237  120  121 1    
   238  120  124 1    
   239  120  241 1    
   240  121  122 am   BACKBONE|DICT|INTERRES
   241  121  123 2    
   242  122  242 1    
   243  122  243 1    
   244  124  125 1    
   245  124  244 1    
   246  124  245 1    
   247  125  126 1    
   248  126  246 1    
   249  126  247 1    
@<TRIPOS>SUBSTRUCTURE
     1 UNK         1 GROUP             0       ****    0 ROOT    
