@<TRIPOS>MOLECULE
3R540
247   249    1
SMALL
USER_CHARGES


@<TRIPOS>ATOM
      1 CA          0.9497   -8.8783  -46.2109 C.3       0 UNK        -0.1800 
      2 C           2.1056   -9.7154  -46.7381 C.2       0 UNK         0.5000 
      3 O           3.1440   -9.8167  -46.0848 O.2       0 UNK        -0.5000 
      4 N           1.9198  -10.3350  -47.9101 N.am      1 UNK        -0.5000 
      5 CA          2.9142  -11.1431  -48.6332 C.3       1 UNK         0.1400 
      6 C6          2.4697  -11.4186  -50.0945 C.3       23 UNK        -0.0398 
      7 S7          0.8308  -12.2196  -50.2308 S.3       23 UNK        -0.2404 
      8 C8          1.1952  -13.6719  -51.2662 C.3       23 UNK        -0.0205 
      9 C9          0.1887  -14.7773  -50.9965 C.ar      23 UNK        -0.0193 
     10 C10        -0.9463  -14.9425  -51.7990 C.ar      23 UNK        -0.1150 
     11 C11        -1.8870  -15.9361  -51.4984 C.ar      23 UNK        -0.0193 
     12 C12        -1.6794  -16.7657  -50.3916 C.ar      23 UNK        -0.1150 
     13 C13        -0.5449  -16.6118  -49.5936 C.ar      23 UNK        -0.0193 
     14 C14         0.3863  -15.6210  -49.9030 C.ar      23 UNK        -0.1150 
     15 C15        -0.3475  -17.4709  -48.3625 C.3       23 UNK        -0.0205 
     16 S16         0.8260  -18.8288  -48.6526 S.3       23 UNK        -0.2404 
     17 C17         0.8520  -19.5638  -46.9778 C.3       23 UNK        -0.0398 
     18 CA          0.0282  -20.8623  -46.7476 C.3       11 UNK         0.1400 
     19 N          -0.2231  -21.0652  -45.3201 N.am      11 UNK        -0.5000 
     20 C          -0.7636  -22.1571  -44.7643 C.2       10 UNK         0.5000 
     21 O          -1.0840  -23.1653  -45.3924 O.2       10 UNK        -0.5000 
     22 CA         -1.0325  -22.0842  -43.2527 C.3       10 UNK         0.1400 
     23 CB          0.2469  -22.3740  -42.4536 C.3       10 UNK        -0.1800 
     24 N          -1.5704  -20.7819  -42.8590 N.am      10 UNK        -0.5000 
     25 C          -2.7954  -20.3422  -43.1774 C.2       9 UNK         0.5000 
     26 O          -3.6140  -20.9981  -43.8233 O.2       9 UNK        -0.5000 
     27 CA         -3.1440  -18.9113  -42.7283 C.3       9 UNK         0.1400 
     28 CB         -3.4765  -18.8729  -41.2291 C.3       9 UNK        -0.1800 
     29 N          -2.0763  -17.9507  -43.0142 N.am      9 UNK        -0.5000 
     30 C          -1.6822  -17.6136  -44.2496 C.2       8 UNK         0.5000 
     31 O          -2.1618  -18.0903  -45.2762 O.2       8 UNK        -0.5000 
     32 CA         -0.5339  -16.5993  -44.3709 C.3       8 UNK         0.1400 
     33 CB         -1.0733  -15.1663  -44.2476 C.3       8 UNK        -0.1800 
     34 N           0.5699  -16.7883  -43.4308 N.am      8 UNK        -0.5000 
     35 C           1.2115  -17.9313  -43.1494 C.2       7 UNK         0.5000 
     36 O           0.9225  -19.0238  -43.6394 O.2       7 UNK        -0.5000 
     37 CA          2.3723  -17.8464  -42.1405 C.3       7 UNK         0.1400 
     38 CB          3.7167  -17.8259  -42.8823 C.3       7 UNK        -0.1800 
     39 N           2.3078  -16.6933  -41.2371 N.am      7 UNK        -0.5000 
     40 C           1.3361  -16.4629  -40.3397 C.2       6 UNK         0.5000 
     41 O           0.3510  -17.1922  -40.2052 O.2       6 UNK        -0.5000 
     42 CA          1.4961  -15.2061  -39.4538 C.3       6 UNK         0.1400 
     43 CB          0.6216  -15.2468  -38.1835 C.3       6 UNK        -0.1800 
     44 N           2.8931  -14.9134  -39.1145 N.am      6 UNK        -0.5000 
     45 C           3.7616  -15.7162  -38.4762 C.2       5 UNK         0.5000 
     46 O           3.4505  -16.8028  -37.9856 O.2       5 UNK        -0.5000 
     47 CA          5.2274  -15.2305  -38.3738 C.3       5 UNK         0.1400 
     48 CB          6.2349  -16.3970  -38.4524 C.3       5 UNK        -0.1800 
     49 N           5.5864  -14.1802  -39.3375 N.am      5 UNK        -0.5000 
     50 C           5.5442  -14.2579  -40.6754 C.2       4 UNK         0.5000 
     51 O           5.1952  -15.2592  -41.3037 O.2       4 UNK        -0.5000 
     52 CA          5.8881  -12.9651  -41.4371 C.3       4 UNK         0.1400 
     53 CB          7.0933  -13.1792  -42.3659 C.3       4 UNK        -0.1800 
     54 N           4.7540  -12.4848  -42.2270 N.am      4 UNK        -0.5000 
     55 C           3.5304  -12.1985  -41.7575 C.2       3 UNK         0.5000 
     56 O           3.2182  -12.2674  -40.5671 O.2       3 UNK        -0.5000 
     57 CA          2.4702  -11.7707  -42.7914 C.3       3 UNK         0.1400 
     58 CB          2.3509  -10.2403  -42.8292 C.3       3 UNK        -0.1800 
     59 N           2.7313  -12.2759  -44.1447 N.am      3 UNK        -0.5000 
     60 C           2.6435  -13.5710  -44.4877 C.2       2 UNK         0.5000 
     61 O           2.3137  -14.4504  -43.6906 O.2       2 UNK        -0.5000 
     62 CA          2.9671  -13.9375  -45.9500 C.3       2 UNK         0.1400 
     63 CB          2.2698  -15.2255  -46.4208 C.3       2 UNK        -0.1800 
     64 N           2.6278  -12.8382  -46.8541 N.am      2 UNK        -0.5000 
     65 C           3.3642  -12.4301  -47.8960 C.2       1 UNK         0.5000 
     66 O           4.3869  -13.0064  -48.2695 O.2       1 UNK        -0.5000 
     67 C          -1.2805  -20.9517  -47.5645 C.2       11 UNK         0.5000 
     68 O          -1.3246  -21.6910  -48.5470 O.2       11 UNK        -0.5000 
     69 N          -2.3301  -20.2405  -47.1261 N.am      12 UNK        -0.5000 
     70 CA         -3.6461  -20.2390  -47.7649 C.3       12 UNK         0.1400 
     71 CB         -4.5399  -19.1700  -47.1205 C.3       12 UNK        -0.1800 
     72 C          -4.3253  -21.6171  -47.7243 C.2       12 UNK         0.5000 
     73 O          -4.8872  -22.0397  -48.7345 O.2       12 UNK        -0.5000 
     74 N          -4.2224  -22.3099  -46.5804 N.am      13 UNK        -0.5000 
     75 CA         -4.7073  -23.6788  -46.4029 C.3       13 UNK         0.1400 
     76 CB         -4.5802  -24.0885  -44.9281 C.3       13 UNK        -0.1800 
     77 C          -3.9845  -24.6809  -47.3212 C.2       13 UNK         0.5000 
     78 O          -4.6461  -25.4853  -47.9775 O.2       13 UNK        -0.5000 
     79 N          -2.6487  -24.5846  -47.3867 N.am      14 UNK        -0.5000 
     80 CA         -1.8012  -25.3895  -48.2666 C.3       14 UNK         0.1400 
     81 CB         -0.3224  -25.1408  -47.9344 C.3       14 UNK        -0.1800 
     82 C          -2.0791  -25.1339  -49.7582 C.2       14 UNK         0.5000 
     83 O          -2.1625  -26.0913  -50.5262 O.2       14 UNK        -0.5000 
     84 N          -2.2541  -23.8592  -50.1355 N.am      15 UNK        -0.5000 
     85 CA         -2.6139  -23.4352  -51.4881 C.3       15 UNK         0.1400 
     86 CB         -2.5556  -21.9032  -51.5958 C.3       15 UNK        -0.1800 
     87 C          -3.9924  -23.9609  -51.9188 C.2       15 UNK         0.5000 
     88 O          -4.1094  -24.5021  -53.0181 O.2       15 UNK        -0.5000 
     89 N          -4.9946  -23.8267  -51.0377 N.am      16 UNK        -0.5000 
     90 CA         -6.3619  -24.3108  -51.2410 C.3       16 UNK         0.1400 
     91 CB         -7.2632  -23.7941  -50.1101 C.3       16 UNK        -0.1800 
     92 C          -6.4570  -25.8431  -51.3511 C.2       16 UNK         0.5000 
     93 O          -7.2480  -26.3423  -52.1515 O.2       16 UNK        -0.5000 
     94 N          -5.6409  -26.5588  -50.5648 N.am      17 UNK        -0.5000 
     95 CA         -5.5094  -28.0166  -50.6158 C.3       17 UNK         0.1400 
     96 CB         -4.7577  -28.4989  -49.3656 C.3       17 UNK        -0.1800 
     97 C          -4.8081  -28.5178  -51.8946 C.2       17 UNK         0.5000 
     98 O          -5.0429  -29.6559  -52.3039 O.2       17 UNK        -0.5000 
     99 N          -3.9625  -27.6682  -52.4904 N.am      18 UNK        -0.5000 
    100 CA        -3.2551  -27.9039  -53.7428 C.3       18 UNK         0.1400 
    101 CB        -1.8545  -27.2643  -53.6454 C.3       18 UNK        -0.1800 
    102 C         -4.0987  -27.4019  -54.9344 C.2       18 UNK         0.5000 
    103 O         -5.2229  -27.8685  -55.1267 O.2       18 UNK        -0.5000 
    104 N         -3.5362  -26.4918  -55.7396 N.am      19 UNK        -0.5000 
    105 CA        -4.1220  -25.9934  -56.9848 C.3       19 UNK         0.1400 
    106 CB        -2.9939  -25.4050  -57.8484 C.3       19 UNK        -0.1800 
    107 C         -5.2385  -24.9489  -56.7935 C.2       19 UNK         0.5000 
    108 O         -5.9789  -24.6985  -57.7456 O.2       19 UNK        -0.5000 
    109 N         -5.3195  -24.3335  -55.6027 N.am      20 UNK        -0.5000 
    110 CA        -6.2012  -23.2133  -55.2479 C.3       20 UNK         0.1400 
    111 CB        -7.6790  -23.6536  -55.2251 C.3       20 UNK        -0.1800 
    112 C         -5.9439  -21.9622  -56.1153 C.2       20 UNK         0.5000 
    113 O         -6.8824  -21.2617  -56.5003 O.2       20 UNK        -0.5000 
    114 N         -4.6578  -21.7054  -56.4007 N.am      21 UNK        -0.5000 
    115 CA        -4.1600  -20.6513  -57.2922 C.3       21 UNK         0.1400 
    116 CB        -2.6348  -20.7904  -57.4161 C.3       21 UNK        -0.1800 
    117 C         -4.5398  -19.2161  -56.8750 C.2       21 UNK         0.5000 
    118 O         -4.6044  -18.3343  -57.7327 O.2       21 UNK        -0.5000 
    119 N         -4.8053  -19.0148  -55.5790 N.am      22 UNK        -0.5000 
    120 CA        -5.3512  -17.7716  -55.0133 C.3       22 UNK         0.1400 
    121 C         -6.8468  -17.5067  -55.3679 C.2       22 UNK         0.5000 
    122 N         -7.5940  -18.4607  -55.9128 N.am      22 UNK        -0.7600 
    123 O         -7.3395  -16.4037  -55.1478 O.2       22 UNK        -0.5000 
    124 C124       -5.1397  -17.7061  -53.4800 C.3       23 UNK        -0.0398 
    125 S125       -3.3787  -17.7537  -52.9963 S.3       23 UNK        -0.2404 
    126 C126       -3.1628  -16.0747  -52.3180 C.3       23 UNK        -0.0205 
    127 H127        0.2991   -8.5442  -47.0195 H         1 UNK         0.0600 
    128 H128        1.3255   -7.9954  -45.6938 H         1 UNK         0.0600 
    129 H129        0.3521   -9.4597  -45.5094 H         1 UNK         0.0600 
    130 H130        1.0306  -10.2394  -48.3812 H         1 UNK         0.3000 
    131 H131        3.8135  -10.5264  -48.6950 H         1 UNK         0.0600 
    132 H132        3.2258  -12.0025  -50.6218 H         1 UNK         0.0800 
    133 H133        2.4138  -10.4726  -50.6346 H         1 UNK         0.0800 
    134 H134        1.1828  -13.3840  -52.3185 H         1 UNK         0.0800 
    135 H135        2.1993  -14.0437  -51.0556 H         1 UNK         0.0800 
    136 H136       -1.1086  -14.2809  -52.6384 H         1 UNK         0.1150 
    137 H137       -2.4113  -17.5220  -50.1435 H         1 UNK         0.1150 
    138 H138        1.2567  -15.4886  -49.2771 H         1 UNK         0.1150 
    139 H139        0.0279  -16.8395  -47.5610 H         1 UNK         0.0800 
    140 H140       -1.3041  -17.8670  -48.0212 H         1 UNK         0.0800 
    141 H141        0.5234  -18.7969  -46.2781 H         1 UNK         0.0800 
    142 H142        1.8933  -19.7527  -46.7141 H         1 UNK         0.0800 
    143 H143        0.6487  -21.6972  -47.0799 H         1 UNK         0.0600 
    144 H144        0.0398  -20.2999  -44.7037 H         1 UNK         0.3000 
    145 H145       -1.7708  -22.8501  -43.0058 H         1 UNK         0.0600 
    146 H146        0.0476  -22.3852  -41.3819 H         1 UNK         0.0600 
    147 H147        1.0208  -21.6291  -42.6428 H         1 UNK         0.0600 
    148 H148        0.6582  -23.3491  -42.7178 H         1 UNK         0.0600 
    149 H149       -0.9376  -20.1520  -42.3869 H         1 UNK         0.3000 
    150 H150       -4.0331  -18.6000  -43.2811 H         1 UNK         0.0600 
    151 H151       -4.2720  -19.5790  -40.9871 H         1 UNK         0.0600 
    152 H152       -3.8190  -17.8829  -40.9274 H         1 UNK         0.0600 
    153 H153       -2.6112  -19.1287  -40.6162 H         1 UNK         0.0600 
    154 H154       -1.6013  -17.5372  -42.2237 H         1 UNK         0.3000 
    155 H155       -0.1117  -16.7146  -45.3654 H         1 UNK         0.0600 
    156 H156       -1.9022  -14.9987  -44.9369 H         1 UNK         0.0600 
    157 H157       -0.3067  -14.4298  -44.4849 H         1 UNK         0.0600 
    158 H158       -1.4356  -14.9593  -43.2400 H         1 UNK         0.0600 
    159 H159        0.9717  -15.9400  -43.0486 H         1 UNK         0.3000 
    160 H160        2.3327  -18.7491  -41.5279 H         1 UNK         0.0600 
    161 H161        4.5521  -17.8800  -42.1840 H         1 UNK         0.0600 
    162 H162        3.8334  -16.9163  -43.4733 H         1 UNK         0.0600 
    163 H163        3.8054  -18.6749  -43.5614 H         1 UNK         0.0600 
    164 H164        3.0890  -16.0492  -41.2854 H         1 UNK         0.3000 
    165 H165        1.1526  -14.3679  -40.0616 H         1 UNK         0.0600 
    166 H166        0.7463  -14.3409  -37.5903 H         1 UNK         0.0600 
    167 H167       -0.4359  -15.3224  -38.4389 H         1 UNK         0.0600 
    168 H168        0.8661  -16.0997  -37.5499 H         1 UNK         0.0600 
    169 H169        3.2437  -14.0345  -39.4815 H         1 UNK         0.3000 
    170 H170        5.3228  -14.7793  -37.3852 H         1 UNK         0.0600 
    171 H171        6.1441  -16.9474  -39.3894 H         1 UNK         0.0600 
    172 H172        7.2610  -16.0386  -38.3718 H         1 UNK         0.0600 
    173 H173        6.0779  -17.1079  -37.6404 H         1 UNK         0.0600 
    174 H174        5.8455  -13.2949  -38.9241 H         1 UNK         0.3000 
    175 H175        6.1455  -12.1840  -40.7190 H         1 UNK         0.0600 
    176 H176        6.8806  -13.9210  -43.1371 H         1 UNK         0.0600 
    177 H177        7.3802  -12.2518  -42.8618 H         1 UNK         0.0600 
    178 H178        7.9606  -13.5290  -41.8045 H         1 UNK         0.0600 
    179 H179        4.9002  -12.4175  -43.2226 H         1 UNK         0.3000 
    180 H180        1.5124  -12.1754  -42.4572 H         1 UNK         0.0600 
    181 H181        1.5186   -9.9265  -43.4574 H         1 UNK         0.0600 
    182 H182        3.2589   -9.7746  -43.2142 H         1 UNK         0.0600 
    183 H183        2.1708   -9.8356  -41.8323 H         1 UNK         0.0600 
    184 H184        3.0208  -11.5939  -44.8367 H         1 UNK         0.3000 
    185 H185        4.0447  -14.1111  -45.9705 H         1 UNK         0.0600 
    186 H186        1.1929  -15.0802  -46.4948 H         1 UNK         0.0600 
    187 H187        2.6372  -15.5301  -47.4001 H         1 UNK         0.0600 
    188 H188        2.4535  -16.0575  -45.7399 H         1 UNK         0.0600 
    189 H189        1.7996  -12.3085  -46.6215 H         1 UNK         0.3000 
    190 H190       -2.2201  -19.6252  -46.3234 H         1 UNK         0.3000 
    191 H191       -3.5044  -19.9712  -48.8141 H         1 UNK         0.0600 
    192 H192       -4.6692  -19.3452  -46.0516 H         1 UNK         0.0600 
    193 H193       -5.5307  -19.1606  -47.5764 H         1 UNK         0.0600 
    194 H194       -4.1148  -18.1743  -47.2477 H         1 UNK         0.0600 
    195 H195       -3.7661  -21.8793  -45.7842 H         1 UNK         0.3000 
    196 H196       -5.7666  -23.6927  -46.6674 H         1 UNK         0.0600 
    197 H197       -5.1585  -23.4253  -44.2847 H         1 UNK         0.0600 
    198 H198       -3.5448  -24.0625  -44.5882 H         1 UNK         0.0600 
    199 H199       -4.9528  -25.1015  -44.7711 H         1 UNK         0.0600 
    200 H200       -2.1727  -23.9149  -46.7880 H         1 UNK         0.3000 
    201 H201       -2.0201  -26.4402  -48.0658 H         1 UNK         0.0600 
    202 H202       -0.1018  -25.4057  -46.9002 H         1 UNK         0.0600 
    203 H203       -0.0472  -24.0955  -48.0767 H         1 UNK         0.0600 
    204 H204        0.3278  -25.7424  -48.5706 H         1 UNK         0.0600 
    205 H205       -2.1074  -23.1203  -49.4512 H         1 UNK         0.3000 
    206 H206       -1.8721  -23.8500  -52.1735 H         1 UNK         0.0600 
    207 H207       -1.5557  -21.5305  -51.3726 H         1 UNK         0.0600 
    208 H208       -2.8086  -21.5704  -52.6033 H         1 UNK         0.0600 
    209 H209       -3.2504  -21.4222  -50.9072 H         1 UNK         0.0600 
    210 H210       -4.8171  -23.3378  -50.1638 H         1 UNK         0.3000 
    211 H211       -6.7275  -23.8920  -52.1798 H         1 UNK         0.0600 
    212 H212       -6.9221  -24.1422  -49.1343 H         1 UNK         0.0600 
    213 H213       -8.2912  -24.1340  -50.2411 H         1 UNK         0.0600 
    214 H214       -7.2815  -22.7043  -50.0884 H         1 UNK         0.0600 
    215 H215       -5.0718  -26.0745  -49.8776 H         1 UNK         0.3000 
    216 H216       -6.5115  -28.4500  -50.5981 H         1 UNK         0.0600 
    217 H217       -4.6589  -29.5850  -49.3621 H         1 UNK         0.0600 
    218 H218       -5.2866  -28.2177  -48.4547 H         1 UNK         0.0600 
    219 H219       -3.7537  -28.0766  -49.3135 H         1 UNK         0.0600 
    220 H220       -3.8305  -26.7560  -52.0729 H         1 UNK         0.3000 
    221 H221       -3.1148  -28.9771  -53.8858 H         1 UNK         0.0600 
    222 H222       -1.9063  -26.1851  -53.4966 H         1 UNK         0.0600 
    223 H223       -1.2984  -27.6805  -52.8050 H         1 UNK         0.0600 
    224 H224       -1.2638  -27.4573  -54.5417 H         1 UNK         0.0600 
    225 H225       -2.6175  -26.1464  -55.5036 H         1 UNK         0.3000 
    226 H226       -4.5566  -26.8375  -57.5246 H         1 UNK         0.0600 
    227 H227       -2.2301  -26.1525  -58.0635 H         1 UNK         0.0600 
    228 H228       -3.3768  -25.0509  -58.8066 H         1 UNK         0.0600 
    229 H229       -2.5095  -24.5601  -57.3572 H         1 UNK         0.0600 
    230 H230       -4.6883  -24.6257  -54.8610 H         1 UNK         0.3000 
    231 H231       -5.9345  -22.9225  -54.2321 H         1 UNK         0.0600 
    232 H232       -8.3156  -22.8628  -54.8270 H         1 UNK         0.0600 
    233 H233       -7.8172  -24.5304  -54.5920 H         1 UNK         0.0600 
    234 H234       -8.0466  -23.8978  -56.2219 H         1 UNK         0.0600 
    235 H235       -3.9627  -22.3368  -56.0310 H         1 UNK         0.3000 
    236 H236       -4.5997  -20.8255  -58.2763 H         1 UNK         0.0600 
    237 H237       -2.1405  -20.6618  -56.4523 H         1 UNK         0.0600 
    238 H238       -2.3576  -21.7687  -57.8095 H         1 UNK         0.0600 
    239 H239       -2.2273  -20.0416  -58.0966 H         1 UNK         0.0600 
    240 H240       -4.7106  -19.7923  -54.9440 H         1 UNK         0.3000 
    241 H241       -4.7939  -16.9426  -55.4539 H         1 UNK         0.0600 
    242 H242       -7.2202  -19.3844  -56.1098 H         1 UNK         0.3800 
    243 H243       -8.5561  -18.2621  -56.1366 H         1 UNK         0.3800 
    244 H244       -5.5966  -16.8034  -53.0711 H         1 UNK         0.0800 
    245 H245       -5.6475  -18.5407  -52.9937 H         1 UNK         0.0800 
    246 H246       -4.0051  -15.8299  -51.6695 H         1 UNK         0.0800 
    247 H247       -3.1807  -15.3563  -53.1390 H         1 UNK         0.0800 
@<TRIPOS>BOND
     1    1    2 1    
     2    1  127 1    
     3    1  128 1    
     4    1  129 1    
     5    2    3 2    
     6    2    4 am   BACKBONE|DICT|INTERRES
     7    4    5 1    
     8    4  130 1    
     9    5    6 1    
    10    5   65 1    
    11    5  131 1    
    12    6    7 1    
    13    6  132 1    
    14    6  133 1    
    15    7    8 1    
    16    8    9 1    
    17    8  134 1    
    18    8  135 1    
    19    9   10 ar   
    20    9   14 ar   
    21   10   11 ar   
    22   10  136 1    
    23   11   12 ar   
    24   11  126 1    
    25   12   13 ar   
    26   12  137 1    
    27   13   14 ar   
    28   13   15 1    
    29   14  138 1    
    30   15   16 1    
    31   15  139 1    
    32   15  140 1    
    33   16   17 1    
    34   17   18 1    
    35   17  141 1    
    36   17  142 1    
    37   18   19 1    
    38   18   67 1    
    39   18  143 1    
    40   19   20 am   BACKBONE|DICT|INTERRES
    41   19  144 1    
    42   20   21 2    
    43   20   22 1    
    44   22   23 1    
    45   22   24 1    
    46   22  145 1    
    47   23  146 1    
    48   23  147 1    
    49   23  148 1    
    50   24   25 am   BACKBONE|DICT|INTERRES
    51   24  149 1    
    52   25   26 2    
    53   25   27 1    
    54   27   28 1    
    55   27   29 1    
    56   27  150 1    
    57   28  151 1    
    58   28  152 1    
    59   28  153 1    
    60   29   30 am   BACKBONE|DICT|INTERRES
    61   29  154 1    
    62   30   31 2    
    63   30   32 1    
    64   32   33 1    
    65   32   34 1    
    66   32  155 1    
    67   33  156 1    
    68   33  157 1    
    69   33  158 1    
    70   34   35 am   BACKBONE|DICT|INTERRES
    71   34  159 1    
    72   35   36 2    
    73   35   37 1    
    74   37   38 1    
    75   37   39 1    
    76   37  160 1    
    77   38  161 1    
    78   38  162 1    
    79   38  163 1    
    80   39   40 am   BACKBONE|DICT|INTERRES
    81   39  164 1    
    82   40   41 2    
    83   40   42 1    
    84   42   43 1    
    85   42   44 1    
    86   42  165 1    
    87   43  166 1    
    88   43  167 1    
    89   43  168 1    
    90   44   45 am   BACKBONE|DICT|INTERRES
    91   44  169 1    
    92   45   46 2    
    93   45   47 1    
    94   47   48 1    
    95   47   49 1    
    96   47  170 1    
    97   48  171 1    
    98   48  172 1    
    99   48  173 1    
   100   49   50 am   BACKBONE|DICT|INTERRES
   101   49  174 1    
   102   50   51 2    
   103   50   52 1    
   104   52   53 1    
   105   52   54 1    
   106   52  175 1    
   107   53  176 1    
   108   53  177 1    
   109   53  178 1    
   110   54   55 am   BACKBONE|DICT|INTERRES
   111   54  179 1    
   112   55   56 2    
   113   55   57 1    
   114   57   58 1    
   115   57   59 1    
   116   57  180 1    
   117   58  181 1    
   118   58  182 1    
   119   58  183 1    
   120   59   60 am   BACKBONE|DICT|INTERRES
   121   59  184 1    
   122   60   61 2    
   123   60   62 1    
   124   62   63 1    
   125   62   64 1    
   126   62  185 1    
   127   63  186 1    
   128   63  187 1    
   129   63  188 1    
   130   64   65 am   BACKBONE|DICT|INTERRES
   131   64  189 1    
   132   65   66 2    
   133   67   68 2    
   134   67   69 am   BACKBONE|DICT|INTERRES
   135   69   70 1    
   136   69  190 1    
   137   70   71 1    
   138   70   72 1    
   139   70  191 1    
   140   71  192 1    
   141   71  193 1    
   142   71  194 1    
   143   72   73 2    
   144   72   74 am   BACKBONE|DICT|INTERRES
   145   74   75 1    
   146   74  195 1    
   147   75   76 1    
   148   75   77 1    
   149   75  196 1    
   150   76  197 1    
   151   76  198 1    
   152   76  199 1    
   153   77   78 2    
   154   77   79 am   BACKBONE|DICT|INTERRES
   155   79   80 1    
   156   79  200 1    
   157   80   81 1    
   158   80   82 1    
   159   80  201 1    
   160   81  202 1    
   161   81  203 1    
   162   81  204 1    
   163   82   83 2    
   164   82   84 am   BACKBONE|DICT|INTERRES
   165   84   85 1    
   166   84  205 1    
   167   85   86 1    
   168   85   87 1    
   169   85  206 1    
   170   86  207 1    
   171   86  208 1    
   172   86  209 1    
   173   87   88 2    
   174   87   89 am   BACKBONE|DICT|INTERRES
   175   89   90 1    
   176   89  210 1    
   177   90   91 1    
   178   90   92 1    
   179   90  211 1    
   180   91  212 1    
   181   91  213 1    
   182   91  214 1    
   183   92   93 2    
   184   92   94 am   BACKBONE|DICT|INTERRES
   185   94   95 1    
   186   94  215 1    
   187   95   96 1    
   188   95   97 1    
   189   95  216 1    
   190   96  217 1    
   191   96  218 1    
   192   96  219 1    
   193   97   98 2    
   194   97   99 am   BACKBONE|DICT|INTERRES
   195   99  100 1    
   196   99  220 1    
   197  100  101 1    
   198  100  102 1    
   199  100  221 1    
   200  101  222 1    
   201  101  223 1    
   202  101  224 1    
   203  102  103 2    
   204  102  104 am   BACKBONE|DICT|INTERRES
   205  104  105 1    
   206  104  225 1    
   207  105  106 1    
   208  105  107 1    
   209  105  226 1    
   210  106  227 1    
   211  106  228 1    
   212  106  229 1    
   213  107  108 2    
   214  107  109 am   BACKBONE|DICT|INTERRES
   215  109  110 1    
   216  109  230 1    
   217  110  111 1    
   218  110  112 1    
   219  110  231 1    
   220  111  232 1    
   221  111  233 1    
   222  111  234 1    
   223  112  113 2    
   224  112  114 am   BACKBONE|DICT|INTERRES
   225  114  115 1    
   226  114  235 1    
   227  115  116 1    
   228  115  117 1    
   229  115  236 1    
   230  116  237 1    
   231  116  238 1    
   232  116  239 1    
   233  117  118 2    
   234  117  119 am   BACKBONE|DICT|INTERRES
   235  119  120 1    
   236  119  240 1    
   237  120  121 1    
   238  120  124 1    
   239  120  241 1    
   240  121  122 am   BACKBONE|DICT|INTERRES
   241  121  123 2    
   242  122  242 1    
   243  122  243 1    
   244  124  125 1    
   245  124  244 1    
   246  124  245 1    
   247  125  126 1    
   248  126  246 1    
   249  126  247 1    
@<TRIPOS>SUBSTRUCTURE
     1 UNK         1 GROUP             0       ****    0 ROOT    
