@<TRIPOS>MOLECULE
3R540
247   249    1
SMALL
USER_CHARGES


@<TRIPOS>ATOM
      1 CA         -2.8990  -18.3630  -46.5381 C.3       0 UNK        -0.1800 
      2 C          -2.5332  -17.2607  -47.5203 C.2       0 UNK         0.5000 
      3 O          -3.4109  -16.7212  -48.1933 O.2       0 UNK        -0.5000 
      4 N          -1.2395  -16.9389  -47.6160 N.am      1 UNK        -0.5000 
      5 CA         -0.6750  -15.9835  -48.5757 C.3       1 UNK         0.1400 
      6 C6          0.8505  -16.1814  -48.7472 C.3       23 UNK        -0.0398 
      7 S7          1.2400  -17.8237  -49.4381 S.3       23 UNK        -0.2404 
      8 C8          2.8207  -17.4965  -50.2685 C.3       23 UNK        -0.0205 
      9 C9          3.2747  -18.7096  -51.0632 C.ar      23 UNK        -0.0193 
     10 C10         2.7740  -18.9227  -52.3519 C.ar      23 UNK        -0.1150 
     11 C11         3.1901  -20.0271  -53.0989 C.ar      23 UNK        -0.0193 
     12 C12         4.1118  -20.9198  -52.5480 C.ar      23 UNK        -0.1150 
     13 C13         4.6065  -20.7300  -51.2547 C.ar      23 UNK        -0.0193 
     14 C14         4.1911  -19.6163  -50.5180 C.ar      23 UNK        -0.1150 
     15 C15         5.5779  -21.7466  -50.6663 C.3       23 UNK        -0.0205 
     16 S16         4.8741  -22.7608  -49.3162 S.3       23 UNK        -0.2404 
     17 C17         3.1777  -23.1744  -49.8843 C.3       23 UNK        -0.0398 
     18 CA          2.0752  -22.9617  -48.8074 C.3       11 UNK         0.1400 
     19 N           2.3809  -21.8671  -47.8753 N.am      11 UNK        -0.5000 
     20 C           1.6621  -21.4809  -46.8138 C.2       10 UNK         0.5000 
     21 O           0.4975  -21.8324  -46.6104 O.2       10 UNK        -0.5000 
     22 CA          2.4008  -20.5648  -45.8167 C.3       10 UNK         0.1400 
     23 CB          2.8378  -19.2446  -46.4680 C.3       10 UNK        -0.1800 
     24 N           1.6152  -20.2755  -44.6155 N.am      10 UNK        -0.5000 
     25 C           1.4354  -21.1366  -43.6025 C.2       9 UNK         0.5000 
     26 O           1.9100  -22.2741  -43.5943 O.2       9 UNK        -0.5000 
     27 CA          0.6322  -20.6615  -42.3725 C.3       9 UNK         0.1400 
     28 CB          1.5096  -20.6968  -41.1097 C.3       9 UNK        -0.1800 
     29 N           0.1091  -19.3052  -42.5189 N.am      9 UNK        -0.5000 
     30 C          -1.1115  -18.9828  -42.9639 C.2       8 UNK         0.5000 
     31 O          -1.9750  -19.8077  -43.2578 O.2       8 UNK        -0.5000 
     32 CA         -1.4131  -17.4787  -43.1206 C.3       8 UNK         0.1400 
     33 CB         -2.1656  -16.9460  -41.8924 C.3       8 UNK        -0.1800 
     34 N          -0.2106  -16.6724  -43.3286 N.am      8 UNK        -0.5000 
     35 C           0.6018  -16.7494  -44.3883 C.2       7 UNK         0.5000 
     36 O           0.3927  -17.4892  -45.3477 O.2       7 UNK        -0.5000 
     37 CA          1.8808  -15.8981  -44.3478 C.3       7 UNK         0.1400 
     38 CB          1.6135  -14.4852  -44.8773 C.3       7 UNK        -0.1800 
     39 N           2.4263  -15.8048  -42.9950 N.am      7 UNK        -0.5000 
     40 C           3.1554  -16.7573  -42.3997 C.2       6 UNK         0.5000 
     41 O           3.4612  -17.8210  -42.9375 O.2       6 UNK        -0.5000 
     42 CA          3.6063  -16.4786  -40.9534 C.3       6 UNK         0.1400 
     43 CB          4.9379  -15.7128  -40.9426 C.3       6 UNK        -0.1800 
     44 N           2.6127  -15.7273  -40.1836 N.am      6 UNK        -0.5000 
     45 C           1.4476  -16.2380  -39.7635 C.2       5 UNK         0.5000 
     46 O           1.1020  -17.4029  -39.9612 O.2       5 UNK        -0.5000 
     47 CA          0.4926  -15.2764  -39.0282 C.3       5 UNK         0.1400 
     48 CB          0.8370  -15.2183  -37.5323 C.3       5 UNK        -0.1800 
     49 N           0.4446  -13.9102  -39.5674 N.am      5 UNK        -0.5000 
     50 C           0.1544  -13.5957  -40.8367 C.2       4 UNK         0.5000 
     51 O           0.0613  -14.4260  -41.7389 O.2       4 UNK        -0.5000 
     52 CA         -0.0438  -12.1077  -41.1740 C.3       4 UNK         0.1400 
     53 CB          1.2483  -11.5184  -41.7597 C.3       4 UNK        -0.1800 
     54 N          -1.1303  -11.9268  -42.1407 N.am      4 UNK        -0.5000 
     55 C          -2.4209  -12.2053  -41.9033 C.2       3 UNK         0.5000 
     56 O          -2.8500  -12.5480  -40.8003 O.2       3 UNK        -0.5000 
     57 CA         -3.4104  -12.0644  -43.0787 C.3       3 UNK         0.1400 
     58 CB         -4.2369  -10.7770  -42.9304 C.3       3 UNK        -0.1800 
     59 N          -2.7802  -12.0672  -44.4025 N.am      3 UNK        -0.5000 
     60 C          -2.2858  -13.1523  -45.0116 C.2       2 UNK         0.5000 
     61 O          -2.2806  -14.2793  -44.5103 O.2       2 UNK        -0.5000 
     62 CA         -1.7076  -12.9379  -46.4203 C.3       2 UNK         0.1400 
     63 CB         -0.5384  -11.9294  -46.4139 C.3       2 UNK        -0.1800 
     64 N          -1.2874  -14.2321  -46.9506 N.am      2 UNK        -0.5000 
     65 C          -1.0081  -14.5157  -48.2283 C.2       1 UNK         0.5000 
     66 O          -1.0166  -13.6757  -49.1287 O.2       1 UNK        -0.5000 
     67 C           0.6886  -22.8756  -49.4781 C.2       11 UNK         0.5000 
     68 O           0.1049  -23.9138  -49.7856 O.2       11 UNK        -0.5000 
     69 N           0.1679  -21.6563  -49.6729 N.am      12 UNK        -0.5000 
     70 CA         -1.1554  -21.4200  -50.2490 C.3       12 UNK         0.1400 
     71 CB         -1.2943  -19.9415  -50.6218 C.3       12 UNK        -0.1800 
     72 C          -2.3157  -21.8784  -49.3424 C.2       12 UNK         0.5000 
     73 O          -3.3891  -22.1870  -49.8565 O.2       12 UNK        -0.5000 
     74 N          -2.0890  -21.9672  -48.0223 N.am      13 UNK        -0.5000 
     75 CA         -3.0358  -22.5773  -47.0867 C.3       13 UNK         0.1400 
     76 CB         -2.6589  -22.2174  -45.6430 C.3       13 UNK        -0.1800 
     77 C          -3.0976  -24.1030  -47.2747 C.2       13 UNK         0.5000 
     78 O          -4.1906  -24.6656  -47.3421 O.2       13 UNK        -0.5000 
     79 N          -1.9211  -24.7319  -47.4155 N.am      14 UNK        -0.5000 
     80 CA         -1.7581  -26.1656  -47.6739 C.3       14 UNK         0.1400 
     81 CB         -0.2816  -26.5509  -47.4941 C.3       14 UNK        -0.1800 
     82 C          -2.2750  -26.5954  -49.0614 C.2       14 UNK         0.5000 
     83 O          -2.7140  -27.7350  -49.2176 O.2       14 UNK        -0.5000 
     84 N          -2.2546  -25.6667  -50.0285 N.am      15 UNK        -0.5000 
     85 CA         -2.8314  -25.8163  -51.3672 C.3       15 UNK         0.1400 
     86 CB         -2.3369  -24.6668  -52.2594 C.3       15 UNK        -0.1800 
     87 C          -4.3749  -25.8981  -51.3807 C.2       15 UNK         0.5000 
     88 O          -4.9330  -26.3061  -52.3991 O.2       15 UNK        -0.5000 
     89 N          -5.0196  -25.5453  -50.2564 N.am      16 UNK        -0.5000 
     90 CA         -6.4502  -25.6480  -49.9581 C.3       16 UNK         0.1400 
     91 CB         -6.8989  -27.1248  -49.9589 C.3       16 UNK        -0.1800 
     92 C          -7.3226  -24.7640  -50.8806 C.2       16 UNK         0.5000 
     93 O          -7.8784  -25.2675  -51.8568 O.2       16 UNK        -0.5000 
     94 N          -7.4631  -23.4609  -50.6100 N.am      17 UNK        -0.5000 
     95 CA         -6.8905  -22.6799  -49.5174 C.3       17 UNK         0.1400 
     96 CB         -7.7637  -22.8192  -48.2538 C.3       17 UNK        -0.1800 
     97 C          -6.8375  -21.2090  -49.9588 C.2       17 UNK         0.5000 
     98 O          -7.5491  -20.8286  -50.8938 O.2       17 UNK        -0.5000 
     99 N          -6.0269  -20.4181  -49.2430 N.am      18 UNK        -0.5000 
    100 CA        -5.7205  -18.9985  -49.4587 C.3       18 UNK         0.1400 
    101 CB        -6.9961  -18.1314  -49.4329 C.3       18 UNK        -0.1800 
    102 C         -4.8835  -18.7451  -50.7283 C.2       18 UNK         0.5000 
    103 O         -4.7308  -19.6345  -51.5646 O.2       18 UNK        -0.5000 
    104 N         -4.3428  -17.5231  -50.8395 N.am      19 UNK        -0.5000 
    105 CA        -3.4025  -17.0488  -51.8653 C.3       19 UNK         0.1400 
    106 CB        -3.2704  -15.5228  -51.7456 C.3       19 UNK        -0.1800 
    107 C         -3.7461  -17.4342  -53.3176 C.2       19 UNK         0.5000 
    108 O         -2.8437  -17.7659  -54.0866 O.2       19 UNK        -0.5000 
    109 N         -5.0452  -17.4272  -53.6472 N.am      20 UNK        -0.5000 
    110 CA        -5.5978  -17.8222  -54.9435 C.3       20 UNK         0.1400 
    111 CB        -7.1113  -17.5608  -54.9393 C.3       20 UNK        -0.1800 
    112 C         -5.3070  -19.2846  -55.3384 C.2       20 UNK         0.5000 
    113 O         -5.1735  -19.5656  -56.5302 O.2       20 UNK        -0.5000 
    114 N         -5.1698  -20.1832  -54.3512 N.am      21 UNK        -0.5000 
    115 CA        -4.8444  -21.5980  -54.5573 C.3       21 UNK         0.1400 
    116 CB        -5.1500  -22.3880  -53.2756 C.3       21 UNK        -0.1800 
    117 C         -3.3901  -21.8329  -55.0130 C.2       21 UNK         0.5000 
    118 O         -3.0915  -22.9157  -55.5178 O.2       21 UNK        -0.5000 
    119 N         -2.5274  -20.8208  -54.8546 N.am      22 UNK        -0.5000 
    120 CA        -1.1475  -20.7855  -55.3590 C.3       22 UNK         0.1400 
    121 C         -0.9477  -19.7173  -56.4777 C.2       22 UNK         0.5000 
    122 N         -2.0034  -19.1870  -57.0867 N.am      22 UNK        -0.7600 
    123 O          0.1784  -19.3730  -56.8240 O.2       22 UNK        -0.5000 
    124 C124       -0.1305  -20.6658  -54.1901 C.3       23 UNK        -0.0398 
    125 S125        1.4089  -21.5893  -54.5212 S.3       23 UNK        -0.2404 
    126 C126        2.6590  -20.2671  -54.5030 C.3       23 UNK        -0.0205 
    127 H127       -3.3494  -19.2025  -47.0664 H         1 UNK         0.0600 
    128 H128       -3.6145  -17.9948  -45.8033 H         1 UNK         0.0600 
    129 H129       -2.0220  -18.7372  -46.0099 H         1 UNK         0.0600 
    130 H130       -0.5719  -17.3696  -46.9809 H         1 UNK         0.3000 
    131 H131       -1.1390  -16.1830  -49.5435 H         1 UNK         0.0600 
    132 H132        1.2595  -15.4196  -49.4135 H         1 UNK         0.0800 
    133 H133        1.3692  -16.0727  -47.7938 H         1 UNK         0.0800 
    134 H134        3.5709  -17.2229  -49.5249 H         1 UNK         0.0800 
    135 H135        2.7161  -16.6405  -50.9368 H         1 UNK         0.0800 
    136 H136        2.0598  -18.2277  -52.7707 H         1 UNK         0.1150 
    137 H137        4.4270  -21.7783  -53.1247 H         1 UNK         0.1150 
    138 H138        4.5753  -19.4617  -49.5200 H         1 UNK         0.1150 
    139 H139        5.9412  -22.4188  -51.4452 H         1 UNK         0.0800 
    140 H140        6.4573  -21.2228  -50.2895 H         1 UNK         0.0800 
    141 H141        3.1773  -24.2183  -50.2018 H         1 UNK         0.0800 
    142 H142        2.9412  -22.6106  -50.7847 H         1 UNK         0.0800 
    143 H143        2.0554  -23.8613  -48.1888 H         1 UNK         0.0600 
    144 H144        3.3193  -21.5055  -47.9717 H         1 UNK         0.3000 
    145 H145        3.3054  -21.0920  -45.5062 H         1 UNK         0.0600 
    146 H146        3.3482  -18.6017  -45.7512 H         1 UNK         0.0600 
    147 H147        3.5277  -19.4126  -47.2947 H         1 UNK         0.0600 
    148 H148        1.9851  -18.6984  -46.8626 H         1 UNK         0.0600 
    149 H149        1.1510  -19.3772  -44.5882 H         1 UNK         0.3000 
    150 H150       -0.1933  -21.3624  -42.2332 H         1 UNK         0.0600 
    151 H151        1.8918  -21.7007  -40.9212 H         1 UNK         0.0600 
    152 H152        0.9432  -20.3954  -40.2282 H         1 UNK         0.0600 
    153 H153        2.3671  -20.0283  -41.1991 H         1 UNK         0.0600 
    154 H154        0.7376  -18.5536  -42.2701 H         1 UNK         0.3000 
    155 H155       -2.0546  -17.3497  -43.9926 H         1 UNK         0.0600 
    156 H156       -1.5670  -17.0374  -40.9858 H         1 UNK         0.0600 
    157 H157       -3.0936  -17.4961  -41.7330 H         1 UNK         0.0600 
    158 H158       -2.4266  -15.8945  -42.0173 H         1 UNK         0.0600 
    159 H159       -0.0217  -15.9563  -42.6289 H         1 UNK         0.3000 
    160 H160        2.6221  -16.3685  -44.9969 H         1 UNK         0.0600 
    161 H161        0.8330  -13.9860  -44.3025 H         1 UNK         0.0600 
    162 H162        1.2939  -14.5143  -45.9181 H         1 UNK         0.0600 
    163 H163        2.5110  -13.8682  -44.8327 H         1 UNK         0.0600 
    164 H164        2.1433  -15.0015  -42.4513 H         1 UNK         0.3000 
    165 H165        3.7643  -17.4423  -40.4639 H         1 UNK         0.0600 
    166 H166        5.3048  -15.5743  -39.9254 H         1 UNK         0.0600 
    167 H167        5.7059  -16.2583  -41.4926 H         1 UNK         0.0600 
    168 H168        4.8413  -14.7285  -41.4025 H         1 UNK         0.0600 
    169 H169        2.8186  -14.7600  -39.9816 H         1 UNK         0.3000 
    170 H170       -0.5128  -15.6910  -39.1244 H         1 UNK         0.0600 
    171 H171        0.8605  -16.2184  -37.0969 H         1 UNK         0.0600 
    172 H172        1.8131  -14.7627  -37.3613 H         1 UNK         0.0600 
    173 H173        0.0953  -14.6428  -36.9780 H         1 UNK         0.0600 
    174 H174        0.5306  -13.1646  -38.8918 H         1 UNK         0.3000 
    175 H175       -0.3003  -11.5651  -40.2618 H         1 UNK         0.0600 
    176 H176        1.5384  -12.0207  -42.6836 H         1 UNK         0.0600 
    177 H177        1.1341  -10.4563  -41.9773 H         1 UNK         0.0600 
    178 H178        2.0772  -11.6178  -41.0578 H         1 UNK         0.0600 
    179 H179       -0.8642  -11.6772  -43.0804 H         1 UNK         0.3000 
    180 H180       -4.0949  -12.9138  -43.0254 H         1 UNK         0.0600 
    181 H181       -3.6092   -9.8869  -42.9887 H         1 UNK         0.0600 
    182 H182       -4.7537  -10.7515  -41.9700 H         1 UNK         0.0600 
    183 H183       -4.9979  -10.7043  -43.7076 H         1 UNK         0.0600 
    184 H184       -2.7506  -11.1794  -44.8829 H         1 UNK         0.3000 
    185 H185       -2.5107  -12.5544  -47.0528 H         1 UNK         0.0600 
    186 H186       -0.8772  -10.9370  -46.1159 H         1 UNK         0.0600 
    187 H187        0.2509  -12.2206  -45.7236 H         1 UNK         0.0600 
    188 H188       -0.0913  -11.8226  -47.4018 H         1 UNK         0.0600 
    189 H189       -1.3320  -14.9830  -46.2718 H         1 UNK         0.3000 
    190 H190        0.6976  -20.8466  -49.3822 H         1 UNK         0.3000 
    191 H191       -1.2169  -22.0005  -51.1708 H         1 UNK         0.0600 
    192 H192       -1.3972  -19.3061  -49.7415 H         1 UNK         0.0600 
    193 H193       -2.1733  -19.7968  -51.2458 H         1 UNK         0.0600 
    194 H194       -0.4375  -19.5927  -51.1982 H         1 UNK         0.0600 
    195 H195       -1.1695  -21.7382  -47.6544 H         1 UNK         0.3000 
    196 H196       -4.0298  -22.1712  -47.2838 H         1 UNK         0.0600 
    197 H197       -3.3997  -22.5999  -44.9401 H         1 UNK         0.0600 
    198 H198       -2.6107  -21.1381  -45.5076 H         1 UNK         0.0600 
    199 H199       -1.6924  -22.6320  -45.3554 H         1 UNK         0.0600 
    200 H200       -1.0759  -24.1803  -47.3812 H         1 UNK         0.3000 
    201 H201       -2.3425  -26.7063  -46.9264 H         1 UNK         0.0600 
    202 H202        0.0745  -26.2968  -46.4956 H         1 UNK         0.0600 
    203 H203        0.3602  -26.0487  -48.2178 H         1 UNK         0.0600 
    204 H204       -0.1418  -27.6247  -47.6248 H         1 UNK         0.0600 
    205 H205       -1.7763  -24.7944  -49.8351 H         1 UNK         0.3000 
    206 H206       -2.4555  -26.7522  -51.7852 H         1 UNK         0.0600 
    207 H207       -1.2483  -24.6074  -52.2679 H         1 UNK         0.0600 
    208 H208       -2.6623  -24.8060  -53.2911 H         1 UNK         0.0600 
    209 H209       -2.7245  -23.7060  -51.9255 H         1 UNK         0.0600 
    210 H210       -4.4539  -25.2070  -49.4880 H         1 UNK         0.3000 
    211 H211       -6.5643  -25.3036  -48.9329 H         1 UNK         0.0600 
    212 H212       -6.8070  -27.5844  -50.9434 H         1 UNK         0.0600 
    213 H213       -7.9428  -27.2120  -49.6557 H         1 UNK         0.0600 
    214 H214       -6.3066  -27.7150  -49.2594 H         1 UNK         0.0600 
    215 H215       -7.9850  -22.8817  -51.2558 H         1 UNK         0.3000 
    216 H216       -5.8728  -23.0161  -49.3139 H         1 UNK         0.0600 
    217 H217       -7.3265  -22.2738  -47.4166 H         1 UNK         0.0600 
    218 H218       -7.8796  -23.8527  -47.9329 H         1 UNK         0.0600 
    219 H219       -8.7641  -22.4162  -48.4172 H         1 UNK         0.0600 
    220 H220       -5.4636  -20.8621  -48.5340 H         1 UNK         0.3000 
    221 H221       -5.1068  -18.7060  -48.6084 H         1 UNK         0.0600 
    222 H222       -7.6096  -18.2785  -50.3221 H         1 UNK         0.0600 
    223 H223       -7.6091  -18.3567  -48.5603 H         1 UNK         0.0600 
    224 H224       -6.7468  -17.0709  -49.3854 H         1 UNK         0.0600 
    225 H225       -4.4553  -16.9002  -50.0481 H         1 UNK         0.3000 
    226 H226       -2.4304  -17.4852  -51.6336 H         1 UNK         0.0600 
    227 H227       -2.9669  -15.2252  -50.7424 H         1 UNK         0.0600 
    228 H228       -2.5205  -15.1390  -52.4386 H         1 UNK         0.0600 
    229 H229       -4.2125  -15.0203  -51.9683 H         1 UNK         0.0600 
    230 H230       -5.7105  -17.1697  -52.9335 H         1 UNK         0.3000 
    231 H231       -5.1418  -17.1834  -55.7026 H         1 UNK         0.0600 
    232 H232       -7.5558  -17.8202  -55.9012 H         1 UNK         0.0600 
    233 H233       -7.6179  -18.1501  -54.1737 H         1 UNK         0.0600 
    234 H234       -7.3306  -16.5090  -54.7549 H         1 UNK         0.0600 
    235 H235       -5.2164  -19.8745  -53.3822 H         1 UNK         0.3000 
    236 H236       -5.4952  -21.9800  -55.3465 H         1 UNK         0.0600 
    237 H237       -4.5044  -22.0877  -52.4503 H         1 UNK         0.0600 
    238 H238       -6.1834  -22.2432  -52.9628 H         1 UNK         0.0600 
    239 H239       -5.0063  -23.4579  -53.4308 H         1 UNK         0.0600 
    240 H240       -2.8649  -19.9504  -54.4606 H         1 UNK         0.3000 
    241 H241       -0.9516  -21.7302  -55.8685 H         1 UNK         0.0600 
    242 H242       -1.8578  -18.5017  -57.8109 H         1 UNK         0.3800 
    243 H243       -2.9440  -19.4635  -56.8422 H         1 UNK         0.3800 
    244 H244        0.0755  -19.6234  -53.9416 H         1 UNK         0.0800 
    245 H245       -0.5501  -21.1045  -53.2854 H         1 UNK         0.0800 
    246 H246        2.2501  -19.3511  -54.9321 H         1 UNK         0.0800 
    247 H247        3.4854  -20.5600  -55.1522 H         1 UNK         0.0800 
@<TRIPOS>BOND
     1    1    2 1    
     2    1  127 1    
     3    1  128 1    
     4    1  129 1    
     5    2    3 2    
     6    2    4 am   BACKBONE|DICT|INTERRES
     7    4    5 1    
     8    4  130 1    
     9    5    6 1    
    10    5   65 1    
    11    5  131 1    
    12    6    7 1    
    13    6  132 1    
    14    6  133 1    
    15    7    8 1    
    16    8    9 1    
    17    8  134 1    
    18    8  135 1    
    19    9   10 ar   
    20    9   14 ar   
    21   10   11 ar   
    22   10  136 1    
    23   11   12 ar   
    24   11  126 1    
    25   12   13 ar   
    26   12  137 1    
    27   13   14 ar   
    28   13   15 1    
    29   14  138 1    
    30   15   16 1    
    31   15  139 1    
    32   15  140 1    
    33   16   17 1    
    34   17   18 1    
    35   17  141 1    
    36   17  142 1    
    37   18   19 1    
    38   18   67 1    
    39   18  143 1    
    40   19   20 am   BACKBONE|DICT|INTERRES
    41   19  144 1    
    42   20   21 2    
    43   20   22 1    
    44   22   23 1    
    45   22   24 1    
    46   22  145 1    
    47   23  146 1    
    48   23  147 1    
    49   23  148 1    
    50   24   25 am   BACKBONE|DICT|INTERRES
    51   24  149 1    
    52   25   26 2    
    53   25   27 1    
    54   27   28 1    
    55   27   29 1    
    56   27  150 1    
    57   28  151 1    
    58   28  152 1    
    59   28  153 1    
    60   29   30 am   BACKBONE|DICT|INTERRES
    61   29  154 1    
    62   30   31 2    
    63   30   32 1    
    64   32   33 1    
    65   32   34 1    
    66   32  155 1    
    67   33  156 1    
    68   33  157 1    
    69   33  158 1    
    70   34   35 am   BACKBONE|DICT|INTERRES
    71   34  159 1    
    72   35   36 2    
    73   35   37 1    
    74   37   38 1    
    75   37   39 1    
    76   37  160 1    
    77   38  161 1    
    78   38  162 1    
    79   38  163 1    
    80   39   40 am   BACKBONE|DICT|INTERRES
    81   39  164 1    
    82   40   41 2    
    83   40   42 1    
    84   42   43 1    
    85   42   44 1    
    86   42  165 1    
    87   43  166 1    
    88   43  167 1    
    89   43  168 1    
    90   44   45 am   BACKBONE|DICT|INTERRES
    91   44  169 1    
    92   45   46 2    
    93   45   47 1    
    94   47   48 1    
    95   47   49 1    
    96   47  170 1    
    97   48  171 1    
    98   48  172 1    
    99   48  173 1    
   100   49   50 am   BACKBONE|DICT|INTERRES
   101   49  174 1    
   102   50   51 2    
   103   50   52 1    
   104   52   53 1    
   105   52   54 1    
   106   52  175 1    
   107   53  176 1    
   108   53  177 1    
   109   53  178 1    
   110   54   55 am   BACKBONE|DICT|INTERRES
   111   54  179 1    
   112   55   56 2    
   113   55   57 1    
   114   57   58 1    
   115   57   59 1    
   116   57  180 1    
   117   58  181 1    
   118   58  182 1    
   119   58  183 1    
   120   59   60 am   BACKBONE|DICT|INTERRES
   121   59  184 1    
   122   60   61 2    
   123   60   62 1    
   124   62   63 1    
   125   62   64 1    
   126   62  185 1    
   127   63  186 1    
   128   63  187 1    
   129   63  188 1    
   130   64   65 am   BACKBONE|DICT|INTERRES
   131   64  189 1    
   132   65   66 2    
   133   67   68 2    
   134   67   69 am   BACKBONE|DICT|INTERRES
   135   69   70 1    
   136   69  190 1    
   137   70   71 1    
   138   70   72 1    
   139   70  191 1    
   140   71  192 1    
   141   71  193 1    
   142   71  194 1    
   143   72   73 2    
   144   72   74 am   BACKBONE|DICT|INTERRES
   145   74   75 1    
   146   74  195 1    
   147   75   76 1    
   148   75   77 1    
   149   75  196 1    
   150   76  197 1    
   151   76  198 1    
   152   76  199 1    
   153   77   78 2    
   154   77   79 am   BACKBONE|DICT|INTERRES
   155   79   80 1    
   156   79  200 1    
   157   80   81 1    
   158   80   82 1    
   159   80  201 1    
   160   81  202 1    
   161   81  203 1    
   162   81  204 1    
   163   82   83 2    
   164   82   84 am   BACKBONE|DICT|INTERRES
   165   84   85 1    
   166   84  205 1    
   167   85   86 1    
   168   85   87 1    
   169   85  206 1    
   170   86  207 1    
   171   86  208 1    
   172   86  209 1    
   173   87   88 2    
   174   87   89 am   BACKBONE|DICT|INTERRES
   175   89   90 1    
   176   89  210 1    
   177   90   91 1    
   178   90   92 1    
   179   90  211 1    
   180   91  212 1    
   181   91  213 1    
   182   91  214 1    
   183   92   93 2    
   184   92   94 am   BACKBONE|DICT|INTERRES
   185   94   95 1    
   186   94  215 1    
   187   95   96 1    
   188   95   97 1    
   189   95  216 1    
   190   96  217 1    
   191   96  218 1    
   192   96  219 1    
   193   97   98 2    
   194   97   99 am   BACKBONE|DICT|INTERRES
   195   99  100 1    
   196   99  220 1    
   197  100  101 1    
   198  100  102 1    
   199  100  221 1    
   200  101  222 1    
   201  101  223 1    
   202  101  224 1    
   203  102  103 2    
   204  102  104 am   BACKBONE|DICT|INTERRES
   205  104  105 1    
   206  104  225 1    
   207  105  106 1    
   208  105  107 1    
   209  105  226 1    
   210  106  227 1    
   211  106  228 1    
   212  106  229 1    
   213  107  108 2    
   214  107  109 am   BACKBONE|DICT|INTERRES
   215  109  110 1    
   216  109  230 1    
   217  110  111 1    
   218  110  112 1    
   219  110  231 1    
   220  111  232 1    
   221  111  233 1    
   222  111  234 1    
   223  112  113 2    
   224  112  114 am   BACKBONE|DICT|INTERRES
   225  114  115 1    
   226  114  235 1    
   227  115  116 1    
   228  115  117 1    
   229  115  236 1    
   230  116  237 1    
   231  116  238 1    
   232  116  239 1    
   233  117  118 2    
   234  117  119 am   BACKBONE|DICT|INTERRES
   235  119  120 1    
   236  119  240 1    
   237  120  121 1    
   238  120  124 1    
   239  120  241 1    
   240  121  122 am   BACKBONE|DICT|INTERRES
   241  121  123 2    
   242  122  242 1    
   243  122  243 1    
   244  124  125 1    
   245  124  244 1    
   246  124  245 1    
   247  125  126 1    
   248  126  246 1    
   249  126  247 1    
@<TRIPOS>SUBSTRUCTURE
     1 UNK         1 GROUP             0       ****    0 ROOT    
