@<TRIPOS>MOLECULE
3R540
247   249    1
SMALL
USER_CHARGES


@<TRIPOS>ATOM
      1 CA          5.7751  -11.6144  -50.9223 C.3       0 UNK        -0.1800 
      2 C           5.2897  -13.0247  -51.2533 C.2       0 UNK         0.5000 
      3 O           5.4626  -13.4721  -52.3854 O.2       0 UNK        -0.5000 
      4 N           4.6958  -13.7677  -50.3102 N.am      1 UNK        -0.5000 
      5 CA          4.3253  -13.3512  -48.9537 C.3       1 UNK         0.1400 
      6 C6          4.1394  -14.5638  -48.0024 C.3       23 UNK        -0.0398 
      7 S7          2.9922  -15.8569  -48.6002 S.3       23 UNK        -0.2404 
      8 C8          4.1744  -17.0808  -49.2500 C.3       23 UNK        -0.0205 
      9 C9          3.4801  -18.3021  -49.8346 C.ar      23 UNK        -0.0193 
     10 C10         2.6249  -18.1715  -50.9333 C.ar      23 UNK        -0.1150 
     11 C11         2.0208  -19.2968  -51.4996 C.ar      23 UNK        -0.0193 
     12 C12         2.2749  -20.5593  -50.9555 C.ar      23 UNK        -0.1150 
     13 C13         3.1228  -20.7076  -49.8551 C.ar      23 UNK        -0.0193 
     14 C14         3.7288  -19.5719  -49.3049 C.ar      23 UNK        -0.1150 
     15 C15         3.3943  -22.1073  -49.3086 C.3       23 UNK        -0.0205 
     16 S16         3.5352  -22.2047  -47.4911 S.3       23 UNK        -0.2404 
     17 C17         1.9326  -21.5336  -46.9364 C.3       23 UNK        -0.0398 
     18 CA          0.8903  -22.6351  -46.6308 C.3       11 UNK         0.1400 
     19 N          -0.0614  -22.2136  -45.6022 N.am      11 UNK        -0.5000 
     20 C          -0.9637  -23.0144  -45.0195 C.2       10 UNK         0.5000 
     21 O          -1.0573  -24.2215  -45.2462 O.2       10 UNK        -0.5000 
     22 CA         -1.9621  -22.3400  -44.0609 C.3       10 UNK         0.1400 
     23 CB         -1.3332  -22.1225  -42.6768 C.3       10 UNK        -0.1800 
     24 N          -2.4693  -21.0670  -44.5780 N.am      10 UNK        -0.5000 
     25 C          -3.1868  -20.9440  -45.7047 C.2       9 UNK         0.5000 
     26 O          -3.5142  -21.8962  -46.4107 O.2       9 UNK        -0.5000 
     27 CA         -3.5654  -19.5178  -46.1370 C.3       9 UNK         0.1400 
     28 CB         -4.6970  -18.9758  -45.2510 C.3       9 UNK        -0.1800 
     29 N          -2.4309  -18.5940  -46.0978 N.am      9 UNK        -0.5000 
     30 C          -1.2975  -18.7191  -46.8041 C.2       8 UNK         0.5000 
     31 O          -1.0961  -19.6143  -47.6214 O.2       8 UNK        -0.5000 
     32 CA         -0.1706  -17.7150  -46.4953 C.3       8 UNK         0.1400 
     33 CB         -0.4190  -16.3700  -47.1919 C.3       8 UNK        -0.1800 
     34 N           0.0032  -17.5001  -45.0582 N.am      8 UNK        -0.5000 
     35 C           0.3423  -18.4575  -44.1824 C.2       7 UNK         0.5000 
     36 O           0.5900  -19.6206  -44.4975 O.2       7 UNK        -0.5000 
     37 CA          0.3468  -18.0625  -42.6978 C.3       7 UNK         0.1400 
     38 CB          1.6447  -17.3311  -42.3242 C.3       7 UNK        -0.1800 
     39 N          -0.8116  -17.2337  -42.3661 N.am      7 UNK        -0.5000 
     40 C          -2.0684  -17.6969  -42.3057 C.2       6 UNK         0.5000 
     41 O          -2.3677  -18.8797  -42.4715 O.2       6 UNK        -0.5000 
     42 CA         -3.1790  -16.6594  -42.0553 C.3       6 UNK         0.1400 
     43 CB         -3.3456  -16.3975  -40.5512 C.3       6 UNK        -0.1800 
     44 N          -2.9362  -15.3907  -42.7448 N.am      6 UNK        -0.5000 
     45 C          -2.9434  -15.2407  -44.0769 C.2       5 UNK         0.5000 
     46 O          -3.1849  -16.1518  -44.8649 O.2       5 UNK        -0.5000 
     47 CA         -2.5696  -13.8535  -44.6267 C.3       5 UNK         0.1400 
     48 CB         -3.8141  -12.9614  -44.7393 C.3       5 UNK        -0.1800 
     49 N          -1.5469  -13.1640  -43.8380 N.am      5 UNK        -0.5000 
     50 C          -0.3049  -13.6123  -43.6142 C.2       4 UNK         0.5000 
     51 O           0.1004  -14.7075  -44.0089 O.2       4 UNK        -0.5000 
     52 CA          0.6302  -12.6618  -42.8379 C.3       4 UNK         0.1400 
     53 CB          2.0134  -13.2798  -42.5689 C.3       4 UNK        -0.1800 
     54 N           0.8131  -11.4019  -43.5574 N.am      4 UNK        -0.5000 
     55 C          -0.0525  -10.3837  -43.6096 C.2       3 UNK         0.5000 
     56 O          -1.1193  -10.3725  -42.9934 O.2       3 UNK        -0.5000 
     57 CA          0.2993   -9.2061  -44.5403 C.3       3 UNK         0.1400 
     58 CB          1.3247   -8.2597  -43.8869 C.3       3 UNK        -0.1800 
     59 N           0.7128   -9.6117  -45.8935 N.am      3 UNK        -0.5000 
     60 C           1.8209  -10.2611  -46.2756 C.2       2 UNK         0.5000 
     61 O           2.7136  -10.6240  -45.5030 O.2       2 UNK        -0.5000 
     62 CA          1.9432  -10.5680  -47.7747 C.3       2 UNK         0.1400 
     63 CB          2.2674   -9.2985  -48.5833 C.3       2 UNK        -0.1800 
     64 N           3.0035  -11.5517  -47.9617 N.am      2 UNK        -0.5000 
     65 C           3.0917  -12.4222  -48.9703 C.2       1 UNK         0.5000 
     66 O           2.2664  -12.4956  -49.8844 O.2       1 UNK        -0.5000 
     67 C           0.1688  -23.1078  -47.9091 C.2       11 UNK         0.5000 
     68 O           0.4922  -24.1752  -48.4283 O.2       11 UNK        -0.5000 
     69 N          -0.8266  -22.3350  -48.3650 N.am      12 UNK        -0.5000 
     70 CA         -1.6698  -22.6567  -49.5137 C.3       12 UNK         0.1400 
     71 CB         -2.5950  -21.4773  -49.8228 C.3       12 UNK        -0.1800 
     72 C          -2.4917  -23.9379  -49.3150 C.2       12 UNK         0.5000 
     73 O          -2.5818  -24.7395  -50.2418 O.2       12 UNK        -0.5000 
     74 N          -3.0469  -24.1286  -48.1113 N.am      13 UNK        -0.5000 
     75 CA         -3.7693  -25.3368  -47.7160 C.3       13 UNK         0.1400 
     76 CB         -4.4155  -25.1269  -46.3387 C.3       13 UNK        -0.1800 
     77 C          -2.8714  -26.5874  -47.7220 C.2       13 UNK         0.5000 
     78 O          -3.2926  -27.6290  -48.2254 O.2       13 UNK        -0.5000 
     79 N          -1.6392  -26.4513  -47.2105 N.am      14 UNK        -0.5000 
     80 CA         -0.6147  -27.4980  -47.2267 C.3       14 UNK         0.1400 
     81 CB          0.5581  -27.0804  -46.3264 C.3       14 UNK        -0.1800 
     82 C          -0.1240  -27.8344  -48.6491 C.2       14 UNK         0.5000 
     83 O           0.0859  -29.0076  -48.9588 O.2       14 UNK        -0.5000 
     84 N           0.0247  -26.8047  -49.4931 N.am      15 UNK        -0.5000 
     85 CA          0.4172  -26.9141  -50.9003 C.3       15 UNK         0.1400 
     86 CB          0.9032  -25.5370  -51.3828 C.3       15 UNK        -0.1800 
     87 C          -0.7033  -27.4345  -51.8253 C.2       15 UNK         0.5000 
     88 O          -0.4126  -27.7927  -52.9673 O.2       15 UNK        -0.5000 
     89 N          -1.9512  -27.4429  -51.3328 N.am      16 UNK        -0.5000 
     90 CA         -3.1971  -27.7324  -52.0522 C.3       16 UNK         0.1400 
     91 CB         -3.2366  -29.1950  -52.5423 C.3       16 UNK        -0.1800 
     92 C          -3.4852  -26.6999  -53.1654 C.2       16 UNK         0.5000 
     93 O          -3.9511  -27.0584  -54.2492 O.2       16 UNK        -0.5000 
     94 N          -3.1922  -25.4306  -52.8628 N.am      17 UNK        -0.5000 
     95 CA         -3.4438  -24.2579  -53.6932 C.3       17 UNK         0.1400 
     96 CB         -2.2071  -23.3395  -53.6142 C.3       17 UNK        -0.1800 
     97 C          -4.7423  -23.5610  -53.2329 C.2       17 UNK         0.5000 
     98 O          -5.6367  -24.2140  -52.6877 O.2       17 UNK        -0.5000 
     99 N          -4.8383  -22.2441  -53.4616 N.am      18 UNK        -0.5000 
    100 CA        -5.9487  -21.3876  -53.0427 C.3       18 UNK         0.1400 
    101 CB        -5.9021  -20.0796  -53.8520 C.3       18 UNK        -0.1800 
    102 C         -5.9084  -21.1357  -51.5226 C.2       18 UNK         0.5000 
    103 O         -5.4490  -20.0808  -51.0811 O.2       18 UNK        -0.5000 
    104 N         -6.3705  -22.1283  -50.7520 N.am      19 UNK        -0.5000 
    105 CA        -6.3200  -22.2463  -49.2877 C.3       19 UNK         0.1400 
    106 CB        -7.0421  -23.5437  -48.8910 C.3       19 UNK        -0.1800 
    107 C         -6.8641  -21.0569  -48.4648 C.2       19 UNK         0.5000 
    108 O         -6.6469  -21.0196  -47.2550 O.2       19 UNK        -0.5000 
    109 N         -7.5616  -20.1157  -49.1117 N.am      20 UNK        -0.5000 
    110 CA        -8.0526  -18.8768  -48.5165 C.3       20 UNK         0.1400 
    111 CB        -9.0267  -18.2030  -49.4950 C.3       20 UNK        -0.1800 
    112 C         -6.9313  -17.8977  -48.1139 C.2       20 UNK         0.5000 
    113 O         -7.0680  -17.2513  -47.0754 O.2       20 UNK        -0.5000 
    114 N         -5.8675  -17.7931  -48.9297 N.am      21 UNK        -0.5000 
    115 CA        -4.7571  -16.8409  -48.7436 C.3       21 UNK         0.1400 
    116 CB        -5.2737  -15.3820  -48.8025 C.3       21 UNK        -0.1800 
    117 C         -3.6014  -17.0133  -49.7554 C.2       21 UNK         0.5000 
    118 O         -2.6746  -16.2037  -49.7378 O.2       21 UNK        -0.5000 
    119 N         -3.6692  -18.0103  -50.6470 N.am      22 UNK        -0.5000 
    120 CA        -2.7868  -18.1817  -51.8159 C.3       22 UNK         0.1400 
    121 C         -3.0241  -17.1548  -52.9677 C.2       22 UNK         0.5000 
    122 N         -4.1425  -16.4393  -52.9924 N.am      22 UNK        -0.7600 
    123 O         -2.2034  -17.0185  -53.8706 O.2       22 UNK        -0.5000 
    124 C124       -1.2816  -18.3727  -51.4562 C.3       23 UNK        -0.0398 
    125 S125       -0.5603  -19.7538  -52.4121 S.3       23 UNK        -0.2404 
    126 C126        1.1294  -19.1611  -52.7253 C.3       23 UNK        -0.0205 
    127 H127        6.2963  -11.1810  -51.7762 H         1 UNK         0.0600 
    128 H128        6.4716  -11.6264  -50.0843 H         1 UNK         0.0600 
    129 H129        4.9389  -10.9594  -50.6791 H         1 UNK         0.0600 
    130 H130        4.3405  -14.6747  -50.5731 H         1 UNK         0.3000 
    131 H131        5.1547  -12.7693  -48.5480 H         1 UNK         0.0600 
    132 H132        5.1124  -15.0192  -47.8140 H         1 UNK         0.0800 
    133 H133        3.7913  -14.2315  -47.0228 H         1 UNK         0.0800 
    134 H134        4.8527  -17.3757  -48.4477 H         1 UNK         0.0800 
    135 H135        4.7924  -16.6250  -50.0240 H         1 UNK         0.0800 
    136 H136        2.4417  -17.1923  -51.3531 H         1 UNK         0.1150 
    137 H137        1.8124  -21.4300  -51.3994 H         1 UNK         0.1150 
    138 H138        4.4030  -19.6773  -48.4670 H         1 UNK         0.1150 
    139 H139        2.6154  -22.7993  -49.6318 H         1 UNK         0.0800 
    140 H140        4.3244  -22.4711  -49.7465 H         1 UNK         0.0800 
    141 H141        1.5468  -20.7895  -47.6353 H         1 UNK         0.0800 
    142 H142        2.1589  -20.9798  -46.0255 H         1 UNK         0.0800 
    143 H143        1.4162  -23.4987  -46.2176 H         1 UNK         0.0600 
    144 H144       -0.0260  -21.2363  -45.3242 H         1 UNK         0.3000 
    145 H145       -2.8139  -23.0131  -43.9444 H         1 UNK         0.0600 
    146 H146       -2.0614  -21.7195  -41.9728 H         1 UNK         0.0600 
    147 H147       -0.9653  -23.0622  -42.2630 H         1 UNK         0.0600 
    148 H148       -0.4922  -21.4300  -42.7193 H         1 UNK         0.0600 
    149 H149       -2.2647  -20.2378  -44.0305 H         1 UNK         0.3000 
    150 H150       -3.9252  -19.5624  -47.1669 H         1 UNK         0.0600 
    151 H151       -5.5722  -19.6240  -45.2896 H         1 UNK         0.0600 
    152 H152       -5.0132  -17.9855  -45.5744 H         1 UNK         0.0600 
    153 H153       -4.3955  -18.9003  -44.2072 H         1 UNK         0.0600 
    154 H154       -2.5349  -17.7877  -45.4866 H         1 UNK         0.3000 
    155 H155        0.7639  -18.1283  -46.8814 H         1 UNK         0.0600 
    156 H156       -1.3904  -15.9498  -46.9321 H         1 UNK         0.0600 
    157 H157        0.3445  -15.6381  -46.9278 H         1 UNK         0.0600 
    158 H158       -0.3925  -16.4896  -48.2755 H         1 UNK         0.0600 
    159 H159       -0.1460  -16.5572  -44.7122 H         1 UNK         0.3000 
    160 H160        0.2939  -18.9781  -42.1047 H         1 UNK         0.0600 
    161 H161        1.7951  -16.4356  -42.9266 H         1 UNK         0.0600 
    162 H162        2.5097  -17.9762  -42.4823 H         1 UNK         0.0600 
    163 H163        1.6460  -17.0364  -41.2747 H         1 UNK         0.0600 
    164 H164       -0.6522  -16.2401  -42.2861 H         1 UNK         0.3000 
    165 H165       -4.1144  -17.0766  -42.4340 H         1 UNK         0.0600 
    166 H166       -4.1813  -15.7245  -40.3584 H         1 UNK         0.0600 
    167 H167       -3.5465  -17.3254  -40.0140 H         1 UNK         0.0600 
    168 H168       -2.4491  -15.9538  -40.1164 H         1 UNK         0.0600 
    169 H169       -2.7254  -14.5877  -42.1708 H         1 UNK         0.3000 
    170 H170       -2.1650  -13.9982  -45.6303 H         1 UNK         0.0600 
    171 H171       -4.5847  -13.4411  -45.3446 H         1 UNK         0.0600 
    172 H172       -4.2476  -12.7496  -43.7611 H         1 UNK         0.0600 
    173 H173       -3.5751  -12.0094  -45.2138 H         1 UNK         0.0600 
    174 H174       -1.7777  -12.2375  -43.4949 H         1 UNK         0.3000 
    175 H175        0.1625  -12.4551  -41.8732 H         1 UNK         0.0600 
    176 H176        2.5294  -13.5339  -43.4958 H         1 UNK         0.0600 
    177 H177        2.6494  -12.5932  -42.0099 H         1 UNK         0.0600 
    178 H178        1.9253  -14.1912  -41.9771 H         1 UNK         0.0600 
    179 H179        1.6479  -11.3226  -44.1325 H         1 UNK         0.3000 
    180 H180       -0.6209   -8.6356  -44.6769 H         1 UNK         0.0600 
    181 H181        2.2722   -8.7578  -43.6800 H         1 UNK         0.0600 
    182 H182        0.9475   -7.8767  -42.9380 H         1 UNK         0.0600 
    183 H183        1.5300   -7.4004  -44.5253 H         1 UNK         0.0600 
    184 H184        0.0407   -9.3855  -46.6138 H         1 UNK         0.3000 
    185 H185        0.9928  -10.9874  -48.1120 H         1 UNK         0.0600 
    186 H186        1.4888   -8.5442  -48.4651 H         1 UNK         0.0600 
    187 H187        3.2100   -8.8512  -48.2652 H         1 UNK         0.0600 
    188 H188        2.3445   -9.5170  -49.6485 H         1 UNK         0.0600 
    189 H189        3.6734  -11.5715  -47.2020 H         1 UNK         0.3000 
    190 H190       -1.0083  -21.4415  -47.9125 H         1 UNK         0.3000 
    191 H191       -1.0115  -22.8063  -50.3714 H         1 UNK         0.0600 
    192 H192       -3.2800  -21.2640  -49.0041 H         1 UNK         0.0600 
    193 H193       -3.1825  -21.6675  -50.7198 H         1 UNK         0.0600 
    194 H194       -2.0186  -20.5762  -49.9969 H         1 UNK         0.0600 
    195 H195       -2.9850  -23.3849  -47.4193 H         1 UNK         0.3000 
    196 H196       -4.5665  -25.4984  -48.4440 H         1 UNK         0.0600 
    197 H197       -5.0004  -25.9992  -46.0449 H         1 UNK         0.0600 
    198 H198       -5.0884  -24.2694  -46.3448 H         1 UNK         0.0600 
    199 H199       -3.6680  -24.9556  -45.5640 H         1 UNK         0.0600 
    200 H200       -1.3817  -25.5673  -46.7833 H         1 UNK         0.3000 
    201 H201       -1.0561  -28.4041  -46.8065 H         1 UNK         0.0600 
    202 H202        0.2263  -26.9088  -45.3023 H         1 UNK         0.0600 
    203 H203        1.0337  -26.1653  -46.6798 H         1 UNK         0.0600 
    204 H204        1.3228  -27.8574  -46.2957 H         1 UNK         0.0600 
    205 H205       -0.0902  -25.8617  -49.1303 H         1 UNK         0.3000 
    206 H206        1.2517  -27.6145  -50.9712 H         1 UNK         0.0600 
    207 H207        1.7347  -25.1764  -50.7770 H         1 UNK         0.0600 
    208 H208        1.2499  -25.5816  -52.4158 H         1 UNK         0.0600 
    209 H209        0.1072  -24.7933  -51.3364 H         1 UNK         0.0600 
    210 H210       -2.0717  -27.0864  -50.3937 H         1 UNK         0.3000 
    211 H211       -3.9969  -27.6130  -51.3198 H         1 UNK         0.0600 
    212 H212       -2.5108  -29.3802  -53.3344 H         1 UNK         0.0600 
    213 H213       -4.2211  -29.4454  -52.9387 H         1 UNK         0.0600 
    214 H214       -3.0294  -29.8886  -51.7274 H         1 UNK         0.0600 
    215 H215       -2.8835  -25.2326  -51.9116 H         1 UNK         0.3000 
    216 H216       -3.5829  -24.5592  -54.7331 H         1 UNK         0.0600 
    217 H217       -2.2702  -22.5161  -54.3262 H         1 UNK         0.0600 
    218 H218       -1.2960  -23.8902  -53.8497 H         1 UNK         0.0600 
    219 H219       -2.0833  -22.9116  -52.6192 H         1 UNK         0.0600 
    220 H220       -4.0587  -21.7760  -53.8996 H         1 UNK         0.3000 
    221 H221       -6.8910  -21.8881  -53.2758 H         1 UNK         0.0600 
    222 H222       -4.9557  -19.5546  -53.7262 H         1 UNK         0.0600 
    223 H223       -6.0357  -20.2724  -54.9166 H         1 UNK         0.0600 
    224 H224       -6.6976  -19.3999  -53.5440 H         1 UNK         0.0600 
    225 H225       -6.6556  -22.9700  -51.2387 H         1 UNK         0.3000 
    226 H226       -5.2721  -22.3577  -49.0117 H         1 UNK         0.0600 
    227 H227       -6.5912  -24.4103  -49.3748 H         1 UNK         0.0600 
    228 H228       -6.9914  -23.7119  -47.8147 H         1 UNK         0.0600 
    229 H229       -8.0962  -23.5146  -49.1693 H         1 UNK         0.0600 
    230 H230       -7.6769  -20.2194  -50.1085 H         1 UNK         0.3000 
    231 H231       -8.6064  -19.1359  -47.6115 H         1 UNK         0.0600 
    232 H232       -9.4294  -17.2815  -49.0723 H         1 UNK         0.0600 
    233 H233       -9.8727  -18.8527  -49.7199 H         1 UNK         0.0600 
    234 H234       -8.5396  -17.9467  -50.4368 H         1 UNK         0.0600 
    235 H235       -5.8324  -18.3931  -49.7436 H         1 UNK         0.3000 
    236 H236       -4.3269  -17.0132  -47.7557 H         1 UNK         0.0600 
    237 H237       -5.9634  -15.1541  -47.9913 H         1 UNK         0.0600 
    238 H238       -4.4587  -14.6628  -48.7126 H         1 UNK         0.0600 
    239 H239       -5.7859  -15.1800  -49.7437 H         1 UNK         0.0600 
    240 H240       -4.4223  -18.6914  -50.6139 H         1 UNK         0.3000 
    241 H241       -3.1435  -19.1211  -52.2376 H         1 UNK         0.0600 
    242 H242       -4.8375  -16.5442  -52.2722 H         1 UNK         0.3800 
    243 H243       -4.2932  -15.7852  -53.7442 H         1 UNK         0.3800 
    244 H244       -0.7147  -17.4550  -51.6218 H         1 UNK         0.0800 
    245 H245       -1.1495  -18.5944  -50.3971 H         1 UNK         0.0800 
    246 H246        1.5601  -19.7515  -53.5349 H         1 UNK         0.0800 
    247 H247        1.0964  -18.1309  -53.0833 H         1 UNK         0.0800 
@<TRIPOS>BOND
     1    1    2 1    
     2    1  127 1    
     3    1  128 1    
     4    1  129 1    
     5    2    3 2    
     6    2    4 am   BACKBONE|DICT|INTERRES
     7    4    5 1    
     8    4  130 1    
     9    5    6 1    
    10    5   65 1    
    11    5  131 1    
    12    6    7 1    
    13    6  132 1    
    14    6  133 1    
    15    7    8 1    
    16    8    9 1    
    17    8  134 1    
    18    8  135 1    
    19    9   10 ar   
    20    9   14 ar   
    21   10   11 ar   
    22   10  136 1    
    23   11   12 ar   
    24   11  126 1    
    25   12   13 ar   
    26   12  137 1    
    27   13   14 ar   
    28   13   15 1    
    29   14  138 1    
    30   15   16 1    
    31   15  139 1    
    32   15  140 1    
    33   16   17 1    
    34   17   18 1    
    35   17  141 1    
    36   17  142 1    
    37   18   19 1    
    38   18   67 1    
    39   18  143 1    
    40   19   20 am   BACKBONE|DICT|INTERRES
    41   19  144 1    
    42   20   21 2    
    43   20   22 1    
    44   22   23 1    
    45   22   24 1    
    46   22  145 1    
    47   23  146 1    
    48   23  147 1    
    49   23  148 1    
    50   24   25 am   BACKBONE|DICT|INTERRES
    51   24  149 1    
    52   25   26 2    
    53   25   27 1    
    54   27   28 1    
    55   27   29 1    
    56   27  150 1    
    57   28  151 1    
    58   28  152 1    
    59   28  153 1    
    60   29   30 am   BACKBONE|DICT|INTERRES
    61   29  154 1    
    62   30   31 2    
    63   30   32 1    
    64   32   33 1    
    65   32   34 1    
    66   32  155 1    
    67   33  156 1    
    68   33  157 1    
    69   33  158 1    
    70   34   35 am   BACKBONE|DICT|INTERRES
    71   34  159 1    
    72   35   36 2    
    73   35   37 1    
    74   37   38 1    
    75   37   39 1    
    76   37  160 1    
    77   38  161 1    
    78   38  162 1    
    79   38  163 1    
    80   39   40 am   BACKBONE|DICT|INTERRES
    81   39  164 1    
    82   40   41 2    
    83   40   42 1    
    84   42   43 1    
    85   42   44 1    
    86   42  165 1    
    87   43  166 1    
    88   43  167 1    
    89   43  168 1    
    90   44   45 am   BACKBONE|DICT|INTERRES
    91   44  169 1    
    92   45   46 2    
    93   45   47 1    
    94   47   48 1    
    95   47   49 1    
    96   47  170 1    
    97   48  171 1    
    98   48  172 1    
    99   48  173 1    
   100   49   50 am   BACKBONE|DICT|INTERRES
   101   49  174 1    
   102   50   51 2    
   103   50   52 1    
   104   52   53 1    
   105   52   54 1    
   106   52  175 1    
   107   53  176 1    
   108   53  177 1    
   109   53  178 1    
   110   54   55 am   BACKBONE|DICT|INTERRES
   111   54  179 1    
   112   55   56 2    
   113   55   57 1    
   114   57   58 1    
   115   57   59 1    
   116   57  180 1    
   117   58  181 1    
   118   58  182 1    
   119   58  183 1    
   120   59   60 am   BACKBONE|DICT|INTERRES
   121   59  184 1    
   122   60   61 2    
   123   60   62 1    
   124   62   63 1    
   125   62   64 1    
   126   62  185 1    
   127   63  186 1    
   128   63  187 1    
   129   63  188 1    
   130   64   65 am   BACKBONE|DICT|INTERRES
   131   64  189 1    
   132   65   66 2    
   133   67   68 2    
   134   67   69 am   BACKBONE|DICT|INTERRES
   135   69   70 1    
   136   69  190 1    
   137   70   71 1    
   138   70   72 1    
   139   70  191 1    
   140   71  192 1    
   141   71  193 1    
   142   71  194 1    
   143   72   73 2    
   144   72   74 am   BACKBONE|DICT|INTERRES
   145   74   75 1    
   146   74  195 1    
   147   75   76 1    
   148   75   77 1    
   149   75  196 1    
   150   76  197 1    
   151   76  198 1    
   152   76  199 1    
   153   77   78 2    
   154   77   79 am   BACKBONE|DICT|INTERRES
   155   79   80 1    
   156   79  200 1    
   157   80   81 1    
   158   80   82 1    
   159   80  201 1    
   160   81  202 1    
   161   81  203 1    
   162   81  204 1    
   163   82   83 2    
   164   82   84 am   BACKBONE|DICT|INTERRES
   165   84   85 1    
   166   84  205 1    
   167   85   86 1    
   168   85   87 1    
   169   85  206 1    
   170   86  207 1    
   171   86  208 1    
   172   86  209 1    
   173   87   88 2    
   174   87   89 am   BACKBONE|DICT|INTERRES
   175   89   90 1    
   176   89  210 1    
   177   90   91 1    
   178   90   92 1    
   179   90  211 1    
   180   91  212 1    
   181   91  213 1    
   182   91  214 1    
   183   92   93 2    
   184   92   94 am   BACKBONE|DICT|INTERRES
   185   94   95 1    
   186   94  215 1    
   187   95   96 1    
   188   95   97 1    
   189   95  216 1    
   190   96  217 1    
   191   96  218 1    
   192   96  219 1    
   193   97   98 2    
   194   97   99 am   BACKBONE|DICT|INTERRES
   195   99  100 1    
   196   99  220 1    
   197  100  101 1    
   198  100  102 1    
   199  100  221 1    
   200  101  222 1    
   201  101  223 1    
   202  101  224 1    
   203  102  103 2    
   204  102  104 am   BACKBONE|DICT|INTERRES
   205  104  105 1    
   206  104  225 1    
   207  105  106 1    
   208  105  107 1    
   209  105  226 1    
   210  106  227 1    
   211  106  228 1    
   212  106  229 1    
   213  107  108 2    
   214  107  109 am   BACKBONE|DICT|INTERRES
   215  109  110 1    
   216  109  230 1    
   217  110  111 1    
   218  110  112 1    
   219  110  231 1    
   220  111  232 1    
   221  111  233 1    
   222  111  234 1    
   223  112  113 2    
   224  112  114 am   BACKBONE|DICT|INTERRES
   225  114  115 1    
   226  114  235 1    
   227  115  116 1    
   228  115  117 1    
   229  115  236 1    
   230  116  237 1    
   231  116  238 1    
   232  116  239 1    
   233  117  118 2    
   234  117  119 am   BACKBONE|DICT|INTERRES
   235  119  120 1    
   236  119  240 1    
   237  120  121 1    
   238  120  124 1    
   239  120  241 1    
   240  121  122 am   BACKBONE|DICT|INTERRES
   241  121  123 2    
   242  122  242 1    
   243  122  243 1    
   244  124  125 1    
   245  124  244 1    
   246  124  245 1    
   247  125  126 1    
   248  126  246 1    
   249  126  247 1    
@<TRIPOS>SUBSTRUCTURE
     1 UNK         1 GROUP             0       ****    0 ROOT    
