@<TRIPOS>MOLECULE
3R540
247   249    1
SMALL
USER_CHARGES


@<TRIPOS>ATOM
      1 CA         -1.4832   -9.2104  -44.4506 C.3       0 UNK        -0.1800 
      2 C          -2.3317   -9.8834  -45.5205 C.2       0 UNK         0.5000 
      3 O          -3.1573   -9.2242  -46.1535 O.2       0 UNK        -0.5000 
      4 N          -2.1381  -11.1926  -45.7167 N.am      1 UNK        -0.5000 
      5 CA         -2.7902  -11.9950  -46.7553 C.3       1 UNK         0.1400 
      6 C6         -2.7083  -13.5104  -46.4472 C.3       23 UNK        -0.0398 
      7 S7         -1.0195  -14.1454  -46.1421 S.3       23 UNK        -0.2404 
      8 C8         -1.3782  -15.7957  -45.4550 C.3       23 UNK        -0.0205 
      9 C9         -1.6320  -16.8143  -46.5545 C.ar      23 UNK        -0.0193 
     10 C10        -2.8651  -16.8521  -47.2096 C.ar      23 UNK        -0.1150 
     11 C11        -3.0669  -17.7053  -48.2954 C.ar      23 UNK        -0.0193 
     12 C12        -2.0422  -18.5676  -48.6894 C.ar      23 UNK        -0.1150 
     13 C13        -0.8164  -18.5727  -48.0161 C.ar      23 UNK        -0.0193 
     14 C14        -0.6193  -17.6948  -46.9455 C.ar      23 UNK        -0.1150 
     15 C15         0.3122  -19.4778  -48.4884 C.3       23 UNK        -0.0205 
     16 S16        -0.0691  -21.2387  -48.2572 S.3       23 UNK        -0.2404 
     17 C17         0.0058  -21.3817  -46.4461 C.3       23 UNK        -0.0398 
     18 CA         -0.2071  -22.8403  -45.9808 C.3       11 UNK         0.1400 
     19 N           0.3485  -23.0691  -44.6477 N.am      11 UNK        -0.5000 
     20 C           0.4492  -24.2653  -44.0526 C.2       10 UNK         0.5000 
     21 O           0.1230  -25.3264  -44.5830 O.2       10 UNK        -0.5000 
     22 CA          0.9485  -24.2662  -42.5990 C.3       10 UNK         0.1400 
     23 CB          2.4806  -24.1867  -42.5468 C.3       10 UNK        -0.1800 
     24 N           0.3687  -23.1661  -41.8283 N.am      10 UNK        -0.5000 
     25 C          -0.9256  -23.0879  -41.4884 C.2       9 UNK         0.5000 
     26 O          -1.7575  -23.9546  -41.7565 O.2       9 UNK        -0.5000 
     27 CA         -1.3710  -21.8057  -40.7644 C.3       9 UNK         0.1400 
     28 CB         -1.0565  -21.8910  -39.2635 C.3       9 UNK        -0.1800 
     29 N          -0.7592  -20.5987  -41.3231 N.am      9 UNK        -0.5000 
     30 C          -1.0037  -20.1274  -42.5539 C.2       8 UNK         0.5000 
     31 O          -1.7560  -20.6722  -43.3605 O.2       8 UNK        -0.5000 
     32 CA         -0.2506  -18.8504  -42.9630 C.3       8 UNK         0.1400 
     33 CB         -0.9229  -17.6138  -42.3469 C.3       8 UNK        -0.1800 
     34 N           1.1656  -18.8566  -42.5925 N.am      8 UNK        -0.5000 
     35 C           2.0769  -19.7638  -42.9665 C.2       7 UNK         0.5000 
     36 O           1.7987  -20.7798  -43.6058 O.2       7 UNK        -0.5000 
     37 CA          3.5404  -19.4705  -42.5684 C.3       7 UNK         0.1400 
     38 CB          4.5352  -20.4640  -43.1945 C.3       7 UNK        -0.1800 
     39 N           3.9519  -18.1126  -42.9336 N.am      7 UNK        -0.5000 
     40 C           3.6748  -16.9960  -42.2470 C.2       6 UNK         0.5000 
     41 O           3.0038  -16.9849  -41.2142 O.2       6 UNK        -0.5000 
     42 CA          4.2146  -15.6715  -42.8193 C.3       6 UNK         0.1400 
     43 CB          5.5738  -15.3304  -42.1897 C.3       6 UNK        -0.1800 
     44 N           4.3508  -15.6809  -44.2789 N.am      6 UNK        -0.5000 
     45 C           3.3181  -15.6519  -45.1307 C.2       5 UNK         0.5000 
     46 O           2.1381  -15.6480  -44.7759 O.2       5 UNK        -0.5000 
     47 CA          3.6619  -15.6508  -46.6289 C.3       5 UNK         0.1400 
     48 CB          3.4672  -17.0477  -47.2356 C.3       5 UNK        -0.1800 
     49 N           2.8165  -14.6951  -47.3407 N.am      5 UNK        -0.5000 
     50 C           3.0796  -13.3865  -47.4453 C.2       4 UNK         0.5000 
     51 O           4.0983  -12.8687  -46.9828 O.2       4 UNK        -0.5000 
     52 CA          2.0377  -12.4984  -48.1626 C.3       4 UNK         0.1400 
     53 CB          2.6939  -11.3728  -48.9883 C.3       4 UNK        -0.1800 
     54 N           1.0522  -13.2198  -48.9765 N.am      4 UNK        -0.5000 
     55 C           1.2610  -13.9766  -50.0651 C.2       3 UNK         0.5000 
     56 O           2.3735  -14.2316  -50.5263 O.2       3 UNK        -0.5000 
     57 CA          0.0070  -14.5534  -50.7543 C.3       3 UNK         0.1400 
     58 CB         -0.2519  -15.9834  -50.2660 C.3       3 UNK        -0.1800 
     59 N          -1.1947  -13.7511  -50.5136 N.am      3 UNK        -0.5000 
     60 C          -1.4408  -12.5662  -51.0899 C.2       2 UNK         0.5000 
     61 O          -0.7192  -12.0611  -51.9503 O.2       2 UNK        -0.5000 
     62 CA         -2.6918  -11.8044  -50.6084 C.3       2 UNK         0.1400 
     63 CB         -3.9082  -12.1712  -51.4708 C.3       2 UNK        -0.1800 
     64 N          -3.0203  -12.0278  -49.1967 N.am      2 UNK        -0.5000 
     65 C          -2.2428  -11.6734  -48.1632 C.2       1 UNK         0.5000 
     66 O          -1.1331  -11.1516  -48.2933 O.2       1 UNK        -0.5000 
     67 C          -1.6889  -23.2635  -46.0646 C.2       11 UNK         0.5000 
     68 O          -2.0630  -23.9776  -46.9948 O.2       11 UNK        -0.5000 
     69 N          -2.4895  -22.8678  -45.0644 N.am      12 UNK        -0.5000 
     70 CA         -3.8975  -23.2419  -44.9284 C.3       12 UNK         0.1400 
     71 CB         -4.5294  -22.4486  -43.7750 C.3       12 UNK        -0.1800 
     72 C          -4.1053  -24.7547  -44.7274 C.2       12 UNK         0.5000 
     73 O          -5.0441  -25.3131  -45.2957 O.2       12 UNK        -0.5000 
     74 N          -3.2213  -25.3914  -43.9453 N.am      13 UNK        -0.5000 
     75 CA         -3.2108  -26.8371  -43.7177 C.3       13 UNK         0.1400 
     76 CB         -2.2645  -27.1717  -42.5546 C.3       13 UNK        -0.1800 
     77 C          -2.8323  -27.6345  -44.9798 C.2       13 UNK         0.5000 
     78 O          -3.4557  -28.6606  -45.2555 O.2       13 UNK        -0.5000 
     79 N          -1.8316  -27.1468  -45.7270 N.am      14 UNK        -0.5000 
     80 CA         -1.3924  -27.7187  -47.0007 C.3       14 UNK         0.1400 
     81 CB         -0.0474  -27.0952  -47.4040 C.3       14 UNK        -0.1800 
     82 C          -2.4295  -27.5331  -48.1228 C.2       14 UNK         0.5000 
     83 O          -2.6272  -28.4488  -48.9227 O.2       14 UNK        -0.5000 
     84 N          -3.0588  -26.3496  -48.1610 N.am      15 UNK        -0.5000 
     85 CA         -4.0950  -25.8663  -49.0813 C.3       15 UNK         0.1400 
     86 CB         -5.3575  -26.7464  -49.0277 C.3       15 UNK        -0.1800 
     87 C          -3.6040  -25.6645  -50.5270 C.2       15 UNK         0.5000 
     88 O          -3.7876  -24.5840  -51.0861 O.2       15 UNK        -0.5000 
     89 N          -2.9512  -26.6841  -51.0971 N.am      16 UNK        -0.5000 
     90 CA         -2.3652  -26.6826  -52.4406 C.3       16 UNK         0.1400 
     91 CB         -1.9701  -28.1218  -52.8049 C.3       16 UNK        -0.1800 
     92 C          -1.1554  -25.7366  -52.5875 C.2       16 UNK         0.5000 
     93 O          -0.7928  -25.3840  -53.7099 O.2       16 UNK        -0.5000 
     94 N          -0.5572  -25.3420  -51.4558 N.am      17 UNK        -0.5000 
     95 CA          0.5560  -24.3980  -51.3694 C.3       17 UNK         0.1400 
     96 CB          1.2050  -24.5443  -49.9832 C.3       17 UNK        -0.1800 
     97 C           0.1460  -22.9303  -51.6113 C.2       17 UNK         0.5000 
     98 O           1.0256  -22.0979  -51.8382 O.2       17 UNK        -0.5000 
     99 N          -1.1574  -22.6263  -51.5232 N.am      18 UNK        -0.5000 
    100 CA        -1.7016  -21.2735  -51.6193 C.3       18 UNK         0.1400 
    101 CB        -3.1783  -21.2926  -51.1958 C.3       18 UNK        -0.1800 
    102 C         -1.5488  -20.6444  -53.0144 C.2       18 UNK         0.5000 
    103 O         -1.5931  -21.3491  -54.0261 O.2       18 UNK        -0.5000 
    104 N         -1.4115  -19.3129  -53.0319 N.am      19 UNK        -0.5000 
    105 CA        -1.4299  -18.4900  -54.2388 C.3       19 UNK         0.1400 
    106 CB        -0.9408  -17.0777  -53.8782 C.3       19 UNK        -0.1800 
    107 C         -2.8485  -18.4200  -54.8285 C.2       19 UNK         0.5000 
    108 O         -3.8255  -18.4923  -54.0795 O.2       19 UNK        -0.5000 
    109 N         -2.9467  -18.2113  -56.1475 N.am      20 UNK        -0.5000 
    110 CA        -4.2090  -18.1244  -56.8964 C.3       20 UNK         0.1400 
    111 CB        -3.8881  -17.9847  -58.3927 C.3       20 UNK        -0.1800 
    112 C         -5.1563  -16.9924  -56.4403 C.2       20 UNK         0.5000 
    113 O         -6.3534  -17.0502  -56.7233 O.2       20 UNK        -0.5000 
    114 N         -4.6074  -15.9965  -55.7333 N.am      21 UNK        -0.5000 
    115 CA        -5.3349  -14.8869  -55.1253 C.3       21 UNK         0.1400 
    116 CB        -4.3276  -13.7858  -54.7623 C.3       21 UNK        -0.1800 
    117 C         -6.1699  -15.2800  -53.8879 C.2       21 UNK         0.5000 
    118 O         -7.0709  -14.5199  -53.5290 O.2       21 UNK        -0.5000 
    119 N         -5.8755  -16.4227  -53.2487 N.am      22 UNK        -0.5000 
    120 CA        -6.5756  -16.8747  -52.0320 C.3       22 UNK         0.1400 
    121 C         -6.6983  -18.4135  -51.8483 C.2       22 UNK         0.5000 
    122 N         -6.0039  -19.2510  -52.6052 N.am      22 UNK        -0.7600 
    123 O         -7.4741  -18.8647  -51.0100 O.2       22 UNK        -0.5000 
    124 C124       -6.0742  -16.1595  -50.7483 C.3       23 UNK        -0.0398 
    125 S125       -4.2994  -16.4057  -50.3843 S.3       23 UNK        -0.2404 
    126 C126       -4.3775  -17.6568  -49.0617 C.3       23 UNK        -0.0205 
    127 H127       -0.8838   -8.4148  -44.8934 H         1 UNK         0.0600 
    128 H128       -2.1227   -8.7716  -43.6847 H         1 UNK         0.0600 
    129 H129       -0.8072   -9.9156  -43.9663 H         1 UNK         0.0600 
    130 H130       -1.4246  -11.6760  -45.1899 H         1 UNK         0.3000 
    131 H131       -3.8479  -11.7223  -46.7597 H         1 UNK         0.0600 
    132 H132       -3.1590  -14.0779  -47.2608 H         1 UNK         0.0800 
    133 H133       -3.3149  -13.7229  -45.5659 H         1 UNK         0.0800 
    134 H134       -2.2268  -15.7517  -44.7713 H         1 UNK         0.0800 
    135 H135       -0.5195  -16.1044  -44.8596 H         1 UNK         0.0800 
    136 H136       -3.6614  -16.1920  -46.9007 H         1 UNK         0.1150 
    137 H137       -2.1960  -19.2220  -49.5313 H         1 UNK         0.1150 
    138 H138        0.3298  -17.6726  -46.4308 H         1 UNK         0.1150 
    139 H139        0.4948  -19.2929  -49.5476 H         1 UNK         0.0800 
    140 H140        1.2455  -19.2465  -47.9747 H         1 UNK         0.0800 
    141 H141        0.9925  -21.0323  -46.1399 H         1 UNK         0.0800 
    142 H142       -0.7149  -20.7024  -45.9871 H         1 UNK         0.0800 
    143 H143        0.3530  -23.4946  -46.6528 H         1 UNK         0.0600 
    144 H144        0.6871  -22.2492  -44.1516 H         1 UNK         0.3000 
    145 H145        0.6405  -25.2066  -42.1370 H         1 UNK         0.0600 
    146 H146        2.8440  -24.2013  -41.5192 H         1 UNK         0.0600 
    147 H147        2.9306  -25.0352  -43.0638 H         1 UNK         0.0600 
    148 H148        2.8517  -23.2803  -43.0240 H         1 UNK         0.0600 
    149 H149        0.9751  -22.3889  -41.6133 H         1 UNK         0.3000 
    150 H150       -2.4535  -21.7195  -40.8806 H         1 UNK         0.0600 
    151 H151       -1.5147  -22.7755  -38.8190 H         1 UNK         0.0600 
    152 H152       -1.4440  -21.0230  -38.7297 H         1 UNK         0.0600 
    153 H153        0.0167  -21.9485  -39.0774 H         1 UNK         0.0600 
    154 H154       -0.1170  -20.0925  -40.7313 H         1 UNK         0.3000 
    155 H155       -0.3027  -18.7660  -44.0503 H         1 UNK         0.0600 
    156 H156       -0.3992  -16.6980  -42.6200 H         1 UNK         0.0600 
    157 H157       -0.9434  -17.6661  -41.2576 H         1 UNK         0.0600 
    158 H158       -1.9535  -17.5186  -42.6914 H         1 UNK         0.0600 
    159 H159        1.5003  -18.0615  -42.0592 H         1 UNK         0.3000 
    160 H160        3.6043  -19.5775  -41.4836 H         1 UNK         0.0600 
    161 H161        4.4865  -20.4512  -44.2841 H         1 UNK         0.0600 
    162 H162        4.3309  -21.4827  -42.8660 H         1 UNK         0.0600 
    163 H163        5.5598  -20.2343  -42.9015 H         1 UNK         0.0600 
    164 H164        4.4757  -18.0205  -43.7910 H         1 UNK         0.3000 
    165 H165        3.5077  -14.8846  -42.5470 H         1 UNK         0.0600 
    166 H166        6.3325  -16.0728  -42.4406 H         1 UNK         0.0600 
    167 H167        5.9313  -14.3569  -42.5259 H         1 UNK         0.0600 
    168 H168        5.5013  -15.2900  -41.1019 H         1 UNK         0.0600 
    169 H169        5.2925  -15.6797  -44.6441 H         1 UNK         0.3000 
    170 H170        4.7101  -15.3715  -46.7568 H         1 UNK         0.0600 
    171 H171        4.0911  -17.7862  -46.7307 H         1 UNK         0.0600 
    172 H172        2.4342  -17.3782  -47.1523 H         1 UNK         0.0600 
    173 H173        3.7371  -17.0594  -48.2918 H         1 UNK         0.0600 
    174 H174        1.9320  -15.0360  -47.6857 H         1 UNK         0.3000 
    175 H175        1.4638  -12.0231  -47.3658 H         1 UNK         0.0600 
    176 H176        1.9397  -10.7406  -49.4575 H         1 UNK         0.0600 
    177 H177        3.3077  -10.7278  -48.3587 H         1 UNK         0.0600 
    178 H178        3.3363  -11.7701  -49.7746 H         1 UNK         0.0600 
    179 H179        0.0922  -13.0531  -48.7064 H         1 UNK         0.3000 
    180 H180        0.1977  -14.5863  -51.8291 H         1 UNK         0.0600 
    181 H181       -1.1138  -16.4261  -50.7644 H         1 UNK         0.0600 
    182 H182        0.6058  -16.6291  -50.4582 H         1 UNK         0.0600 
    183 H183       -0.4434  -15.9978  -49.1938 H         1 UNK         0.0600 
    184 H184       -1.8541  -14.1085  -49.8382 H         1 UNK         0.3000 
    185 H185       -2.4943  -10.7379  -50.7352 H         1 UNK         0.0600 
    186 H186       -4.7928  -11.6090  -51.1715 H         1 UNK         0.0600 
    187 H187       -3.7169  -11.9359  -52.5177 H         1 UNK         0.0600 
    188 H188       -4.1460  -13.2342  -51.4075 H         1 UNK         0.0600 
    189 H189       -3.9187  -12.4512  -49.0142 H         1 UNK         0.3000 
    190 H190       -2.1193  -22.2396  -44.3553 H         1 UNK         0.3000 
    191 H191       -4.4051  -22.9592  -45.8530 H         1 UNK         0.0600 
    192 H192       -5.5851  -22.6974  -43.6606 H         1 UNK         0.0600 
    193 H193       -4.4655  -21.3752  -43.9544 H         1 UNK         0.0600 
    194 H194       -4.0364  -22.6583  -42.8252 H         1 UNK         0.0600 
    195 H195       -2.5142  -24.8487  -43.4614 H         1 UNK         0.3000 
    196 H196       -4.2194  -27.1376  -43.4263 H         1 UNK         0.0600 
    197 H197       -2.2563  -28.2436  -42.3538 H         1 UNK         0.0600 
    198 H198       -2.5761  -26.6716  -41.6374 H         1 UNK         0.0600 
    199 H199       -1.2391  -26.8696  -42.7679 H         1 UNK         0.0600 
    200 H200       -1.3222  -26.3333  -45.3930 H         1 UNK         0.3000 
    201 H201       -1.2417  -28.7910  -46.8598 H         1 UNK         0.0600 
    202 H202        0.7215  -27.3058  -46.6604 H         1 UNK         0.0600 
    203 H203       -0.1214  -26.0123  -47.5062 H         1 UNK         0.0600 
    204 H204        0.3023  -27.4951  -48.3566 H         1 UNK         0.0600 
    205 H205       -2.7400  -25.6397  -47.5047 H         1 UNK         0.3000 
    206 H206       -4.3727  -24.8797  -48.7065 H         1 UNK         0.0600 
    207 H207       -5.7336  -26.8279  -48.0075 H         1 UNK         0.0600 
    208 H208       -6.1549  -26.3175  -49.6356 H         1 UNK         0.0600 
    209 H209       -5.1725  -27.7547  -49.3984 H         1 UNK         0.0600 
    210 H210       -2.8260  -27.5244  -50.5376 H         1 UNK         0.3000 
    211 H211       -3.1300  -26.3460  -53.1433 H         1 UNK         0.0600 
    212 H212       -1.2210  -28.5181  -52.1181 H         1 UNK         0.0600 
    213 H213       -1.5532  -28.1717  -53.8117 H         1 UNK         0.0600 
    214 H214       -2.8339  -28.7864  -52.7788 H         1 UNK         0.0600 
    215 H215       -0.9282  -25.6854  -50.5830 H         1 UNK         0.3000 
    216 H216        1.2964  -24.6631  -52.1270 H         1 UNK         0.0600 
    217 H217        2.0662  -23.8825  -49.8817 H         1 UNK         0.0600 
    218 H218        1.5571  -25.5621  -49.8148 H         1 UNK         0.0600 
    219 H219        0.5050  -24.2920  -49.1856 H         1 UNK         0.0600 
    220 H220       -1.8258  -23.3702  -51.3735 H         1 UNK         0.3000 
    221 H221       -1.1460  -20.6543  -50.9159 H         1 UNK         0.0600 
    222 H222       -3.7750  -21.9233  -51.8557 H         1 UNK         0.0600 
    223 H223       -3.2929  -21.6662  -50.1778 H         1 UNK         0.0600 
    224 H224       -3.6095  -20.2912  -51.2263 H         1 UNK         0.0600 
    225 H225       -1.4341  -18.8095  -52.1584 H         1 UNK         0.3000 
    226 H226       -0.7535  -18.9285  -54.9754 H         1 UNK         0.0600 
    227 H227       -0.8740  -16.4475  -54.7658 H         1 UNK         0.0600 
    228 H228       -1.6156  -16.5836  -53.1773 H         1 UNK         0.0600 
    229 H229        0.0510  -17.1048  -53.4263 H         1 UNK         0.0600 
    230 H230       -2.1006  -18.1373  -56.6940 H         1 UNK         0.3000 
    231 H231       -4.7431  -19.0651  -56.7478 H         1 UNK         0.0600 
    232 H232       -4.8015  -17.9495  -58.9881 H         1 UNK         0.0600 
    233 H233       -3.3018  -18.8306  -58.7521 H         1 UNK         0.0600 
    234 H234       -3.3264  -17.0729  -58.5993 H         1 UNK         0.0600 
    235 H235       -3.6155  -16.0372  -55.5548 H         1 UNK         0.3000 
    236 H236       -6.0245  -14.4845  -55.8703 H         1 UNK         0.0600 
    237 H237       -3.6222  -14.1202  -54.0001 H         1 UNK         0.0600 
    238 H238       -3.7564  -13.4670  -55.6343 H         1 UNK         0.0600 
    239 H239       -4.8425  -12.9057  -54.3760 H         1 UNK         0.0600 
    240 H240       -5.1259  -17.0147  -53.5869 H         1 UNK         0.3000 
    241 H241       -7.6190  -16.5764  -52.1537 H         1 UNK         0.0600 
    242 H242       -6.1331  -20.2399  -52.4704 H         1 UNK         0.3800 
    243 H243       -5.2744  -18.9304  -53.2400 H         1 UNK         0.3800 
    244 H244       -6.2346  -15.0857  -50.8513 H         1 UNK         0.0800 
    245 H245       -6.6767  -16.4516  -49.8871 H         1 UNK         0.0800 
    246 H246       -5.1911  -17.4251  -48.3731 H         1 UNK         0.0800 
    247 H247       -4.6050  -18.6322  -49.4943 H         1 UNK         0.0800 
@<TRIPOS>BOND
     1    1    2 1    
     2    1  127 1    
     3    1  128 1    
     4    1  129 1    
     5    2    3 2    
     6    2    4 am   BACKBONE|DICT|INTERRES
     7    4    5 1    
     8    4  130 1    
     9    5    6 1    
    10    5   65 1    
    11    5  131 1    
    12    6    7 1    
    13    6  132 1    
    14    6  133 1    
    15    7    8 1    
    16    8    9 1    
    17    8  134 1    
    18    8  135 1    
    19    9   10 ar   
    20    9   14 ar   
    21   10   11 ar   
    22   10  136 1    
    23   11   12 ar   
    24   11  126 1    
    25   12   13 ar   
    26   12  137 1    
    27   13   14 ar   
    28   13   15 1    
    29   14  138 1    
    30   15   16 1    
    31   15  139 1    
    32   15  140 1    
    33   16   17 1    
    34   17   18 1    
    35   17  141 1    
    36   17  142 1    
    37   18   19 1    
    38   18   67 1    
    39   18  143 1    
    40   19   20 am   BACKBONE|DICT|INTERRES
    41   19  144 1    
    42   20   21 2    
    43   20   22 1    
    44   22   23 1    
    45   22   24 1    
    46   22  145 1    
    47   23  146 1    
    48   23  147 1    
    49   23  148 1    
    50   24   25 am   BACKBONE|DICT|INTERRES
    51   24  149 1    
    52   25   26 2    
    53   25   27 1    
    54   27   28 1    
    55   27   29 1    
    56   27  150 1    
    57   28  151 1    
    58   28  152 1    
    59   28  153 1    
    60   29   30 am   BACKBONE|DICT|INTERRES
    61   29  154 1    
    62   30   31 2    
    63   30   32 1    
    64   32   33 1    
    65   32   34 1    
    66   32  155 1    
    67   33  156 1    
    68   33  157 1    
    69   33  158 1    
    70   34   35 am   BACKBONE|DICT|INTERRES
    71   34  159 1    
    72   35   36 2    
    73   35   37 1    
    74   37   38 1    
    75   37   39 1    
    76   37  160 1    
    77   38  161 1    
    78   38  162 1    
    79   38  163 1    
    80   39   40 am   BACKBONE|DICT|INTERRES
    81   39  164 1    
    82   40   41 2    
    83   40   42 1    
    84   42   43 1    
    85   42   44 1    
    86   42  165 1    
    87   43  166 1    
    88   43  167 1    
    89   43  168 1    
    90   44   45 am   BACKBONE|DICT|INTERRES
    91   44  169 1    
    92   45   46 2    
    93   45   47 1    
    94   47   48 1    
    95   47   49 1    
    96   47  170 1    
    97   48  171 1    
    98   48  172 1    
    99   48  173 1    
   100   49   50 am   BACKBONE|DICT|INTERRES
   101   49  174 1    
   102   50   51 2    
   103   50   52 1    
   104   52   53 1    
   105   52   54 1    
   106   52  175 1    
   107   53  176 1    
   108   53  177 1    
   109   53  178 1    
   110   54   55 am   BACKBONE|DICT|INTERRES
   111   54  179 1    
   112   55   56 2    
   113   55   57 1    
   114   57   58 1    
   115   57   59 1    
   116   57  180 1    
   117   58  181 1    
   118   58  182 1    
   119   58  183 1    
   120   59   60 am   BACKBONE|DICT|INTERRES
   121   59  184 1    
   122   60   61 2    
   123   60   62 1    
   124   62   63 1    
   125   62   64 1    
   126   62  185 1    
   127   63  186 1    
   128   63  187 1    
   129   63  188 1    
   130   64   65 am   BACKBONE|DICT|INTERRES
   131   64  189 1    
   132   65   66 2    
   133   67   68 2    
   134   67   69 am   BACKBONE|DICT|INTERRES
   135   69   70 1    
   136   69  190 1    
   137   70   71 1    
   138   70   72 1    
   139   70  191 1    
   140   71  192 1    
   141   71  193 1    
   142   71  194 1    
   143   72   73 2    
   144   72   74 am   BACKBONE|DICT|INTERRES
   145   74   75 1    
   146   74  195 1    
   147   75   76 1    
   148   75   77 1    
   149   75  196 1    
   150   76  197 1    
   151   76  198 1    
   152   76  199 1    
   153   77   78 2    
   154   77   79 am   BACKBONE|DICT|INTERRES
   155   79   80 1    
   156   79  200 1    
   157   80   81 1    
   158   80   82 1    
   159   80  201 1    
   160   81  202 1    
   161   81  203 1    
   162   81  204 1    
   163   82   83 2    
   164   82   84 am   BACKBONE|DICT|INTERRES
   165   84   85 1    
   166   84  205 1    
   167   85   86 1    
   168   85   87 1    
   169   85  206 1    
   170   86  207 1    
   171   86  208 1    
   172   86  209 1    
   173   87   88 2    
   174   87   89 am   BACKBONE|DICT|INTERRES
   175   89   90 1    
   176   89  210 1    
   177   90   91 1    
   178   90   92 1    
   179   90  211 1    
   180   91  212 1    
   181   91  213 1    
   182   91  214 1    
   183   92   93 2    
   184   92   94 am   BACKBONE|DICT|INTERRES
   185   94   95 1    
   186   94  215 1    
   187   95   96 1    
   188   95   97 1    
   189   95  216 1    
   190   96  217 1    
   191   96  218 1    
   192   96  219 1    
   193   97   98 2    
   194   97   99 am   BACKBONE|DICT|INTERRES
   195   99  100 1    
   196   99  220 1    
   197  100  101 1    
   198  100  102 1    
   199  100  221 1    
   200  101  222 1    
   201  101  223 1    
   202  101  224 1    
   203  102  103 2    
   204  102  104 am   BACKBONE|DICT|INTERRES
   205  104  105 1    
   206  104  225 1    
   207  105  106 1    
   208  105  107 1    
   209  105  226 1    
   210  106  227 1    
   211  106  228 1    
   212  106  229 1    
   213  107  108 2    
   214  107  109 am   BACKBONE|DICT|INTERRES
   215  109  110 1    
   216  109  230 1    
   217  110  111 1    
   218  110  112 1    
   219  110  231 1    
   220  111  232 1    
   221  111  233 1    
   222  111  234 1    
   223  112  113 2    
   224  112  114 am   BACKBONE|DICT|INTERRES
   225  114  115 1    
   226  114  235 1    
   227  115  116 1    
   228  115  117 1    
   229  115  236 1    
   230  116  237 1    
   231  116  238 1    
   232  116  239 1    
   233  117  118 2    
   234  117  119 am   BACKBONE|DICT|INTERRES
   235  119  120 1    
   236  119  240 1    
   237  120  121 1    
   238  120  124 1    
   239  120  241 1    
   240  121  122 am   BACKBONE|DICT|INTERRES
   241  121  123 2    
   242  122  242 1    
   243  122  243 1    
   244  124  125 1    
   245  124  244 1    
   246  124  245 1    
   247  125  126 1    
   248  126  246 1    
   249  126  247 1    
@<TRIPOS>SUBSTRUCTURE
     1 UNK         1 GROUP             0       ****    0 ROOT    
