@<TRIPOS>MOLECULE
3R540
247   249    1
SMALL
USER_CHARGES


@<TRIPOS>ATOM
      1 CA         -0.7198  -16.1129  -52.7701 C.3       0 UNK        -0.1800 
      2 C          -0.1454  -14.7557  -52.3920 C.2       0 UNK         0.5000 
      3 O           0.1890  -13.9595  -53.2695 O.2       0 UNK        -0.5000 
      4 N          -0.0144  -14.5015  -51.0862 N.am      1 UNK        -0.5000 
      5 CA          0.5223  -13.2599  -50.5227 C.3       1 UNK         0.1400 
      6 C6          1.0451  -13.4537  -49.0748 C.3       23 UNK        -0.0398 
      7 S7          2.3391  -14.7355  -48.9590 S.3       23 UNK        -0.2404 
      8 C8          1.3684  -16.1652  -48.3822 C.3       23 UNK        -0.0205 
      9 C9          1.9100  -17.4667  -48.9512 C.ar      23 UNK        -0.0193 
     10 C10         1.7430  -17.7591  -50.3084 C.ar      23 UNK        -0.1150 
     11 C11         2.2034  -18.9662  -50.8387 C.ar      23 UNK        -0.0193 
     12 C12         2.8311  -19.8900  -50.0002 C.ar      23 UNK        -0.1150 
     13 C13         3.0021  -19.6107  -48.6425 C.ar      23 UNK        -0.0193 
     14 C14         2.5490  -18.3937  -48.1235 C.ar      23 UNK        -0.1150 
     15 C15         3.6520  -20.6342  -47.7298 C.3       23 UNK        -0.0205 
     16 S16         2.3970  -21.5712  -46.8104 S.3       23 UNK        -0.2404 
     17 C17         1.7363  -22.7017  -48.0805 C.3       23 UNK        -0.0398 
     18 CA          0.9637  -23.9076  -47.4921 C.3       11 UNK         0.1400 
     19 N           1.7613  -24.6630  -46.5199 N.am      11 UNK        -0.5000 
     20 C           1.5197  -25.9307  -46.1642 C.2       10 UNK         0.5000 
     21 O           0.5748  -26.5918  -46.5951 O.2       10 UNK        -0.5000 
     22 CA          2.4825  -26.5528  -45.1373 C.3       10 UNK         0.1400 
     23 CB          3.8528  -26.8374  -45.7716 C.3       10 UNK        -0.1800 
     24 N           2.6597  -25.7251  -43.9430 N.am      10 UNK        -0.5000 
     25 C           1.6911  -25.4704  -43.0529 C.2       9 UNK         0.5000 
     26 O           0.5330  -25.8643  -43.1717 O.2       9 UNK        -0.5000 
     27 CA          2.0662  -24.6052  -41.8358 C.3       9 UNK         0.1400 
     28 CB          2.7359  -25.4615  -40.7505 C.3       9 UNK        -0.1800 
     29 N           2.9209  -23.4559  -42.1455 N.am      9 UNK        -0.5000 
     30 C           2.6166  -22.4960  -43.0278 C.2       8 UNK         0.5000 
     31 O           1.6366  -22.5429  -43.7739 O.2       8 UNK        -0.5000 
     32 CA          3.5774  -21.2933  -43.0890 C.3       8 UNK         0.1400 
     33 CB          4.8241  -21.6268  -43.9243 C.3       8 UNK        -0.1800 
     34 N           2.9143  -20.1152  -43.6520 N.am      8 UNK        -0.5000 
     35 C           1.9989  -19.3906  -42.9975 C.2       7 UNK         0.5000 
     36 O           1.7085  -19.5671  -41.8093 O.2       7 UNK        -0.5000 
     37 CA          1.2868  -18.2874  -43.7978 C.3       7 UNK         0.1400 
     38 CB          0.3167  -18.8797  -44.8378 C.3       7 UNK        -0.1800 
     39 N           0.5511  -17.4503  -42.8568 N.am      7 UNK        -0.5000 
     40 C           0.0720  -16.2271  -43.0892 C.2       6 UNK         0.5000 
     41 O           0.2040  -15.6220  -44.1577 O.2       6 UNK        -0.5000 
     42 CA         -0.6737  -15.5665  -41.9208 C.3       6 UNK         0.1400 
     43 CB          0.3041  -14.8904  -40.9458 C.3       6 UNK        -0.1800 
     44 N          -1.5811  -14.5674  -42.4666 N.am      6 UNK        -0.5000 
     45 C          -2.8335  -14.3305  -42.0633 C.2       5 UNK         0.5000 
     46 O          -3.3514  -14.8699  -41.0845 O.2       5 UNK        -0.5000 
     47 CA         -3.6525  -13.3250  -42.8983 C.3       5 UNK         0.1400 
     48 CB         -3.7389  -11.9696  -42.1796 C.3       5 UNK        -0.1800 
     49 N          -3.1014  -13.1103  -44.2383 N.am      5 UNK        -0.5000 
     50 C          -3.1669  -13.9737  -45.2581 C.2       4 UNK         0.5000 
     51 O          -3.7729  -15.0445  -45.1928 O.2       4 UNK        -0.5000 
     52 CA         -2.4299  -13.5648  -46.5566 C.3       4 UNK         0.1400 
     53 CB         -2.5627  -14.6344  -47.6581 C.3       4 UNK        -0.1800 
     54 N          -2.8653  -12.2716  -47.0999 N.am      4 UNK        -0.5000 
     55 C          -2.6474  -11.0609  -46.5645 C.2       3 UNK         0.5000 
     56 O          -2.0170  -10.8800  -45.5201 O.2       3 UNK        -0.5000 
     57 CA         -3.2193   -9.8625  -47.3519 C.3       3 UNK         0.1400 
     58 CB         -3.0991   -8.5230  -46.5942 C.3       3 UNK        -0.1800 
     59 N          -2.6321   -9.7657  -48.6929 N.am      3 UNK        -0.5000 
     60 C          -1.3357   -9.6013  -48.9929 C.2       2 UNK         0.5000 
     61 O          -0.4426   -9.4170  -48.1632 O.2       2 UNK        -0.5000 
     62 CA         -0.9587   -9.7198  -50.4806 C.3       2 UNK         0.1400 
     63 CB         -0.2143   -8.4691  -50.9754 C.3       2 UNK        -0.1800 
     64 N          -0.1124  -10.8966  -50.6708 N.am      2 UNK        -0.5000 
     65 C          -0.5517  -12.1559  -50.5539 C.2       1 UNK         0.5000 
     66 O          -1.7430  -12.4510  -50.4229 O.2       1 UNK        -0.5000 
     67 C          -0.4274  -23.5190  -46.9435 C.2       11 UNK         0.5000 
     68 O          -1.3703  -23.3967  -47.7300 O.2       11 UNK        -0.5000 
     69 N          -0.5428  -23.3727  -45.6146 N.am      12 UNK        -0.5000 
     70 CA         -1.8081  -23.2021  -44.9052 C.3       12 UNK         0.1400 
     71 CB         -1.5463  -22.6924  -43.4804 C.3       12 UNK        -0.1800 
     72 C          -2.6329  -24.5014  -44.8776 C.2       12 UNK         0.5000 
     73 O          -3.8270  -24.4550  -45.1689 O.2       12 UNK        -0.5000 
     74 N          -1.9919  -25.6393  -44.5652 N.am      13 UNK        -0.5000 
     75 CA         -2.6205  -26.9659  -44.5316 C.3       13 UNK         0.1400 
     76 CB         -1.6638  -27.9880  -43.9000 C.3       13 UNK        -0.1800 
     77 C          -3.0813  -27.4493  -45.9175 C.2       13 UNK         0.5000 
     78 O          -4.1445  -28.0610  -46.0263 O.2       13 UNK        -0.5000 
     79 N          -2.2973  -27.1278  -46.9558 N.am      14 UNK        -0.5000 
     80 CA         -2.6461  -27.3416  -48.3625 C.3       14 UNK         0.1400 
     81 CB         -1.3815  -27.1599  -49.2168 C.3       14 UNK        -0.1800 
     82 C          -3.7621  -26.4007  -48.8640 C.2       14 UNK         0.5000 
     83 O          -4.3243  -26.6510  -49.9299 O.2       14 UNK        -0.5000 
     84 N          -4.0306  -25.3249  -48.1077 N.am      15 UNK        -0.5000 
     85 CA         -4.9801  -24.2351  -48.3572 C.3       15 UNK         0.1400 
     86 CB         -6.4252  -24.7608  -48.4631 C.3       15 UNK        -0.1800 
     87 C          -4.6038  -23.3262  -49.5433 C.2       15 UNK         0.5000 
     88 O          -5.3781  -22.4321  -49.8831 O.2       15 UNK        -0.5000 
     89 N          -3.4161  -23.5292  -50.1282 N.am      16 UNK        -0.5000 
     90 CA         -2.8997  -22.7817  -51.2715 C.3       16 UNK         0.1400 
     91 CB         -1.6060  -23.4423  -51.7692 C.3       16 UNK        -0.1800 
     92 C          -2.6649  -21.3016  -50.9404 C.2       16 UNK         0.5000 
     93 O          -3.0424  -20.4377  -51.7328 O.2       16 UNK        -0.5000 
     94 N          -2.0882  -21.0413  -49.7587 N.am      17 UNK        -0.5000 
     95 CA         -1.8613  -19.6898  -49.2490 C.3       17 UNK         0.1400 
     96 CB         -0.8255  -19.7341  -48.1197 C.3       17 UNK        -0.1800 
     97 C          -3.1595  -19.0299  -48.7566 C.2       17 UNK         0.5000 
     98 O          -3.3249  -17.8233  -48.9263 O.2       17 UNK        -0.5000 
     99 N          -4.0592  -19.8372  -48.1754 N.am      18 UNK        -0.5000 
    100 CA        -5.3510  -19.4040  -47.6402 C.3       18 UNK         0.1400 
    101 CB        -5.9541  -20.5308  -46.7864 C.3       18 UNK        -0.1800 
    102 C         -6.3280  -18.9677  -48.7462 C.2       18 UNK         0.5000 
    103 O         -6.9803  -17.9323  -48.6107 O.2       18 UNK        -0.5000 
    104 N         -6.3859  -19.7489  -49.8333 N.am      19 UNK        -0.5000 
    105 CA        -7.1526  -19.4359  -51.0406 C.3       19 UNK         0.1400 
    106 CB        -7.3690  -20.7331  -51.8363 C.3       19 UNK        -0.1800 
    107 C         -6.4652  -18.3813  -51.9300 C.2       19 UNK         0.5000 
    108 O         -7.1229  -17.8118  -52.8016 O.2       19 UNK        -0.5000 
    109 N         -5.1580  -18.1698  -51.7120 N.am      20 UNK        -0.5000 
    110 CA        -4.2333  -17.3579  -52.5082 C.3       20 UNK         0.1400 
    111 CB        -4.5767  -15.8580  -52.4019 C.3       20 UNK        -0.1800 
    112 C         -4.1251  -17.8713  -53.9600 C.2       20 UNK         0.5000 
    113 O         -4.1345  -17.0856  -54.9091 O.2       20 UNK        -0.5000 
    114 N         -4.0623  -19.2017  -54.0923 N.am      21 UNK        -0.5000 
    115 CA        -4.0276  -19.9229  -55.3617 C.3       21 UNK         0.1400 
    116 CB        -4.6415  -21.3159  -55.1504 C.3       21 UNK        -0.1800 
    117 C         -2.6024  -20.0431  -55.9265 C.2       21 UNK         0.5000 
    118 O         -2.4382  -20.0988  -57.1463 O.2       21 UNK        -0.5000 
    119 N         -1.6050  -20.0973  -55.0361 N.am      22 UNK        -0.5000 
    120 CA        -0.1757  -20.1372  -55.3737 C.3       22 UNK         0.1400 
    121 C          0.4031  -18.7603  -55.8150 C.2       22 UNK         0.5000 
    122 N          1.6350  -18.7285  -56.3067 N.am      22 UNK        -0.7600 
    123 O         -0.2426  -17.7192  -55.7244 O.2       22 UNK        -0.5000 
    124 C124        0.6510  -20.8152  -54.2498 C.3       23 UNK        -0.0398 
    125 S125        0.4132  -20.0971  -52.5868 S.3       23 UNK        -0.2404 
    126 C126        2.0136  -19.2839  -52.3114 C.3       23 UNK        -0.0205 
    127 H127        0.0548  -16.7285  -53.2261 H         1 UNK         0.0600 
    128 H128       -1.5290  -15.9973  -53.4908 H         1 UNK         0.0600 
    129 H129       -1.1022  -16.6460  -51.8998 H         1 UNK         0.0600 
    130 H130       -0.3553  -15.1717  -50.4156 H         1 UNK         0.3000 
    131 H131        1.3610  -12.9375  -51.1440 H         1 UNK         0.0600 
    132 H132        0.2344  -13.6908  -48.3854 H         1 UNK         0.0800 
    133 H133        1.4802  -12.5226  -48.7070 H         1 UNK         0.0800 
    134 H134        1.3728  -16.1823  -47.2908 H         1 UNK         0.0800 
    135 H135        0.3238  -16.0683  -48.6788 H         1 UNK         0.0800 
    136 H136        1.2537  -17.0465  -50.9535 H         1 UNK         0.1150 
    137 H137        3.1740  -20.8327  -50.4028 H         1 UNK         0.1150 
    138 H138        2.6730  -18.1809  -47.0713 H         1 UNK         0.1150 
    139 H139        4.2885  -21.3170  -48.2946 H         1 UNK         0.0800 
    140 H140        4.3053  -20.1252  -47.0198 H         1 UNK         0.0800 
    141 H141        2.5746  -23.0743  -48.6704 H         1 UNK         0.0800 
    142 H142        1.1123  -22.1438  -48.7797 H         1 UNK         0.0800 
    143 H143        0.7682  -24.5799  -48.3302 H         1 UNK         0.0600 
    144 H144        2.5189  -24.1603  -46.0804 H         1 UNK         0.3000 
    145 H145        2.0535  -27.5068  -44.8227 H         1 UNK         0.0600 
    146 H146        4.5025  -27.3738  -45.0798 H         1 UNK         0.0600 
    147 H147        3.7488  -27.4565  -46.6637 H         1 UNK         0.0600 
    148 H148        4.3627  -25.9193  -46.0663 H         1 UNK         0.0600 
    149 H149        3.5791  -25.3430  -43.7784 H         1 UNK         0.3000 
    150 H150        1.1349  -24.2100  -41.4246 H         1 UNK         0.0600 
    151 H151        3.7014  -25.8475  -41.0799 H         1 UNK         0.0600 
    152 H152        2.1124  -26.3174  -40.4880 H         1 UNK         0.0600 
    153 H153        2.8968  -24.8876  -39.8377 H         1 UNK         0.0600 
    154 H154        3.7532  -23.3544  -41.5831 H         1 UNK         0.3000 
    155 H155        3.8987  -21.0560  -42.0726 H         1 UNK         0.0600 
    156 H156        4.5686  -21.9339  -44.9376 H         1 UNK         0.0600 
    157 H157        5.3894  -22.4427  -43.4725 H         1 UNK         0.0600 
    158 H158        5.4942  -20.7697  -43.9928 H         1 UNK         0.0600 
    159 H159        3.0411  -19.9669  -44.6421 H         1 UNK         0.3000 
    160 H160        2.0440  -17.6822  -44.3004 H         1 UNK         0.0600 
    161 H161        0.8442  -19.4961  -45.5634 H         1 UNK         0.0600 
    162 H162       -0.1940  -18.0963  -45.3973 H         1 UNK         0.0600 
    163 H163       -0.4434  -19.5045  -44.3684 H         1 UNK         0.0600 
    164 H164        0.4582  -17.8708  -41.9394 H         1 UNK         0.3000 
    165 H165       -1.2388  -16.3388  -41.3943 H         1 UNK         0.0600 
    166 H166       -0.2279  -14.4216  -40.1177 H         1 UNK         0.0600 
    167 H167        0.9965  -15.6163  -40.5180 H         1 UNK         0.0600 
    168 H168        0.8973  -14.1207  -41.4412 H         1 UNK         0.0600 
    169 H169       -1.2547  -14.1306  -43.3184 H         1 UNK         0.3000 
    170 H170       -4.6632  -13.7257  -42.9994 H         1 UNK         0.0600 
    171 H171       -4.3669  -11.2700  -42.7315 H         1 UNK         0.0600 
    172 H172       -4.1729  -12.0805  -41.1850 H         1 UNK         0.0600 
    173 H173       -2.7546  -11.5149  -42.0606 H         1 UNK         0.0600 
    174 H174       -2.6139  -12.2323  -44.4026 H         1 UNK         0.3000 
    175 H175       -1.3707  -13.4821  -46.3043 H         1 UNK         0.0600 
    176 H176       -2.1661  -15.5939  -47.3230 H         1 UNK         0.0600 
    177 H177       -3.6038  -14.7931  -47.9425 H         1 UNK         0.0600 
    178 H178       -2.0158  -14.3584  -48.5576 H         1 UNK         0.0600 
    179 H179       -3.3743  -12.3175  -47.9711 H         1 UNK         0.3000 
    180 H180       -4.2831  -10.0616  -47.4904 H         1 UNK         0.0600 
    181 H181       -2.0617   -8.2584  -46.3877 H         1 UNK         0.0600 
    182 H182       -3.6179   -8.5722  -45.6361 H         1 UNK         0.0600 
    183 H183       -3.5452   -7.7076  -47.1634 H         1 UNK         0.0600 
    184 H184       -3.2709   -9.9457  -49.4553 H         1 UNK         0.3000 
    185 H185       -1.8649   -9.8352  -51.0795 H         1 UNK         0.0600 
    186 H186        0.7188   -8.3104  -50.4331 H         1 UNK         0.0600 
    187 H187        0.0239   -8.5465  -52.0364 H         1 UNK         0.0600 
    188 H188       -0.8261   -7.5758  -50.8439 H         1 UNK         0.0600 
    189 H189        0.8793  -10.7230  -50.7491 H         1 UNK         0.3000 
    190 H190        0.2966  -23.3951  -45.0436 H         1 UNK         0.3000 
    191 H191       -2.3930  -22.4438  -45.4304 H         1 UNK         0.0600 
    192 H192       -1.0179  -21.7393  -43.4942 H         1 UNK         0.0600 
    193 H193       -2.4819  -22.5384  -42.9418 H         1 UNK         0.0600 
    194 H194       -0.9459  -23.3967  -42.9037 H         1 UNK         0.0600 
    195 H195       -1.0145  -25.6020  -44.2885 H         1 UNK         0.3000 
    196 H196       -3.5066  -26.8978  -43.8971 H         1 UNK         0.0600 
    197 H197       -2.1096  -28.9832  -43.8803 H         1 UNK         0.0600 
    198 H198       -1.4267  -27.7205  -42.8703 H         1 UNK         0.0600 
    199 H199       -0.7269  -28.0576  -44.4542 H         1 UNK         0.0600 
    200 H200       -1.3931  -26.7029  -46.7699 H         1 UNK         0.3000 
    201 H201       -2.9993  -28.3680  -48.4803 H         1 UNK         0.0600 
    202 H202       -1.5883  -27.3484  -50.2711 H         1 UNK         0.0600 
    203 H203       -0.5965  -27.8521  -48.9117 H         1 UNK         0.0600 
    204 H204       -0.9850  -26.1473  -49.1355 H         1 UNK         0.0600 
    205 H205       -3.5092  -25.2277  -47.2460 H         1 UNK         0.3000 
    206 H206       -4.9312  -23.5969  -47.4748 H         1 UNK         0.0600 
    207 H207       -6.6800  -25.3860  -47.6073 H         1 UNK         0.0600 
    208 H208       -7.1396  -23.9369  -48.4859 H         1 UNK         0.0600 
    209 H209       -6.5798  -25.3483  -49.3683 H         1 UNK         0.0600 
    210 H210       -2.8179  -24.2427  -49.7393 H         1 UNK         0.3000 
    211 H211       -3.6430  -22.8329  -52.0695 H         1 UNK         0.0600 
    212 H212       -0.8248  -23.4275  -51.0079 H         1 UNK         0.0600 
    213 H213       -1.2200  -22.9241  -52.6473 H         1 UNK         0.0600 
    214 H214       -1.7775  -24.4804  -52.0545 H         1 UNK         0.0600 
    215 H215       -1.8280  -21.8161  -49.1594 H         1 UNK         0.3000 
    216 H216       -1.4558  -19.0745  -50.0558 H         1 UNK         0.0600 
    217 H217       -0.6544  -18.7374  -47.7123 H         1 UNK         0.0600 
    218 H218        0.1323  -20.0944  -48.4884 H         1 UNK         0.0600 
    219 H219       -1.1388  -20.3805  -47.2990 H         1 UNK         0.0600 
    220 H220       -3.8455  -20.8202  -48.1102 H         1 UNK         0.3000 
    221 H221       -5.1740  -18.5434  -46.9914 H         1 UNK         0.0600 
    222 H222       -6.1772  -21.4162  -47.3820 H         1 UNK         0.0600 
    223 H223       -5.2776  -20.8263  -45.9842 H         1 UNK         0.0600 
    224 H224       -6.8868  -20.2078  -46.3222 H         1 UNK         0.0600 
    225 H225       -5.8691  -20.6256  -49.8445 H         1 UNK         0.3000 
    226 H226       -8.1289  -19.0435  -50.7488 H         1 UNK         0.0600 
    227 H227       -7.9767  -20.5528  -52.7238 H         1 UNK         0.0600 
    228 H228       -6.4222  -21.1621  -52.1681 H         1 UNK         0.0600 
    229 H229       -7.8834  -21.4836  -51.2358 H         1 UNK         0.0600 
    230 H230       -4.7258  -18.7083  -50.9746 H         1 UNK         0.3000 
    231 H231       -3.2518  -17.5063  -52.0588 H         1 UNK         0.0600 
    232 H232       -5.5386  -15.6274  -52.8601 H         1 UNK         0.0600 
    233 H233       -3.8237  -15.2469  -52.9003 H         1 UNK         0.0600 
    234 H234       -4.6146  -15.5382  -51.3604 H         1 UNK         0.0600 
    235 H235       -3.9801  -19.7570  -53.2450 H         1 UNK         0.3000 
    236 H236       -4.6365  -19.3889  -56.0943 H         1 UNK         0.0600 
    237 H237       -5.6706  -21.2432  -54.7977 H         1 UNK         0.0600 
    238 H238       -4.6564  -21.8818  -56.0828 H         1 UNK         0.0600 
    239 H239       -4.0774  -21.8981  -54.4209 H         1 UNK         0.0600 
    240 H240       -1.8226  -20.0056  -54.0537 H         1 UNK         0.3000 
    241 H241       -0.0804  -20.7771  -56.2533 H         1 UNK         0.0600 
    242 H242        2.1883  -19.5634  -56.4201 H         1 UNK         0.3800 
    243 H243        2.0168  -17.8422  -56.5985 H         1 UNK         0.3800 
    244 H244        0.3590  -21.8638  -54.1869 H         1 UNK         0.0800 
    245 H245        1.7115  -20.8375  -54.5029 H         1 UNK         0.0800 
    246 H246        2.8242  -19.9298  -52.6515 H         1 UNK         0.0800 
    247 H247        2.0686  -18.3735  -52.9102 H         1 UNK         0.0800 
@<TRIPOS>BOND
     1    1    2 1    
     2    1  127 1    
     3    1  128 1    
     4    1  129 1    
     5    2    3 2    
     6    2    4 am   BACKBONE|DICT|INTERRES
     7    4    5 1    
     8    4  130 1    
     9    5    6 1    
    10    5   65 1    
    11    5  131 1    
    12    6    7 1    
    13    6  132 1    
    14    6  133 1    
    15    7    8 1    
    16    8    9 1    
    17    8  134 1    
    18    8  135 1    
    19    9   10 ar   
    20    9   14 ar   
    21   10   11 ar   
    22   10  136 1    
    23   11   12 ar   
    24   11  126 1    
    25   12   13 ar   
    26   12  137 1    
    27   13   14 ar   
    28   13   15 1    
    29   14  138 1    
    30   15   16 1    
    31   15  139 1    
    32   15  140 1    
    33   16   17 1    
    34   17   18 1    
    35   17  141 1    
    36   17  142 1    
    37   18   19 1    
    38   18   67 1    
    39   18  143 1    
    40   19   20 am   BACKBONE|DICT|INTERRES
    41   19  144 1    
    42   20   21 2    
    43   20   22 1    
    44   22   23 1    
    45   22   24 1    
    46   22  145 1    
    47   23  146 1    
    48   23  147 1    
    49   23  148 1    
    50   24   25 am   BACKBONE|DICT|INTERRES
    51   24  149 1    
    52   25   26 2    
    53   25   27 1    
    54   27   28 1    
    55   27   29 1    
    56   27  150 1    
    57   28  151 1    
    58   28  152 1    
    59   28  153 1    
    60   29   30 am   BACKBONE|DICT|INTERRES
    61   29  154 1    
    62   30   31 2    
    63   30   32 1    
    64   32   33 1    
    65   32   34 1    
    66   32  155 1    
    67   33  156 1    
    68   33  157 1    
    69   33  158 1    
    70   34   35 am   BACKBONE|DICT|INTERRES
    71   34  159 1    
    72   35   36 2    
    73   35   37 1    
    74   37   38 1    
    75   37   39 1    
    76   37  160 1    
    77   38  161 1    
    78   38  162 1    
    79   38  163 1    
    80   39   40 am   BACKBONE|DICT|INTERRES
    81   39  164 1    
    82   40   41 2    
    83   40   42 1    
    84   42   43 1    
    85   42   44 1    
    86   42  165 1    
    87   43  166 1    
    88   43  167 1    
    89   43  168 1    
    90   44   45 am   BACKBONE|DICT|INTERRES
    91   44  169 1    
    92   45   46 2    
    93   45   47 1    
    94   47   48 1    
    95   47   49 1    
    96   47  170 1    
    97   48  171 1    
    98   48  172 1    
    99   48  173 1    
   100   49   50 am   BACKBONE|DICT|INTERRES
   101   49  174 1    
   102   50   51 2    
   103   50   52 1    
   104   52   53 1    
   105   52   54 1    
   106   52  175 1    
   107   53  176 1    
   108   53  177 1    
   109   53  178 1    
   110   54   55 am   BACKBONE|DICT|INTERRES
   111   54  179 1    
   112   55   56 2    
   113   55   57 1    
   114   57   58 1    
   115   57   59 1    
   116   57  180 1    
   117   58  181 1    
   118   58  182 1    
   119   58  183 1    
   120   59   60 am   BACKBONE|DICT|INTERRES
   121   59  184 1    
   122   60   61 2    
   123   60   62 1    
   124   62   63 1    
   125   62   64 1    
   126   62  185 1    
   127   63  186 1    
   128   63  187 1    
   129   63  188 1    
   130   64   65 am   BACKBONE|DICT|INTERRES
   131   64  189 1    
   132   65   66 2    
   133   67   68 2    
   134   67   69 am   BACKBONE|DICT|INTERRES
   135   69   70 1    
   136   69  190 1    
   137   70   71 1    
   138   70   72 1    
   139   70  191 1    
   140   71  192 1    
   141   71  193 1    
   142   71  194 1    
   143   72   73 2    
   144   72   74 am   BACKBONE|DICT|INTERRES
   145   74   75 1    
   146   74  195 1    
   147   75   76 1    
   148   75   77 1    
   149   75  196 1    
   150   76  197 1    
   151   76  198 1    
   152   76  199 1    
   153   77   78 2    
   154   77   79 am   BACKBONE|DICT|INTERRES
   155   79   80 1    
   156   79  200 1    
   157   80   81 1    
   158   80   82 1    
   159   80  201 1    
   160   81  202 1    
   161   81  203 1    
   162   81  204 1    
   163   82   83 2    
   164   82   84 am   BACKBONE|DICT|INTERRES
   165   84   85 1    
   166   84  205 1    
   167   85   86 1    
   168   85   87 1    
   169   85  206 1    
   170   86  207 1    
   171   86  208 1    
   172   86  209 1    
   173   87   88 2    
   174   87   89 am   BACKBONE|DICT|INTERRES
   175   89   90 1    
   176   89  210 1    
   177   90   91 1    
   178   90   92 1    
   179   90  211 1    
   180   91  212 1    
   181   91  213 1    
   182   91  214 1    
   183   92   93 2    
   184   92   94 am   BACKBONE|DICT|INTERRES
   185   94   95 1    
   186   94  215 1    
   187   95   96 1    
   188   95   97 1    
   189   95  216 1    
   190   96  217 1    
   191   96  218 1    
   192   96  219 1    
   193   97   98 2    
   194   97   99 am   BACKBONE|DICT|INTERRES
   195   99  100 1    
   196   99  220 1    
   197  100  101 1    
   198  100  102 1    
   199  100  221 1    
   200  101  222 1    
   201  101  223 1    
   202  101  224 1    
   203  102  103 2    
   204  102  104 am   BACKBONE|DICT|INTERRES
   205  104  105 1    
   206  104  225 1    
   207  105  106 1    
   208  105  107 1    
   209  105  226 1    
   210  106  227 1    
   211  106  228 1    
   212  106  229 1    
   213  107  108 2    
   214  107  109 am   BACKBONE|DICT|INTERRES
   215  109  110 1    
   216  109  230 1    
   217  110  111 1    
   218  110  112 1    
   219  110  231 1    
   220  111  232 1    
   221  111  233 1    
   222  111  234 1    
   223  112  113 2    
   224  112  114 am   BACKBONE|DICT|INTERRES
   225  114  115 1    
   226  114  235 1    
   227  115  116 1    
   228  115  117 1    
   229  115  236 1    
   230  116  237 1    
   231  116  238 1    
   232  116  239 1    
   233  117  118 2    
   234  117  119 am   BACKBONE|DICT|INTERRES
   235  119  120 1    
   236  119  240 1    
   237  120  121 1    
   238  120  124 1    
   239  120  241 1    
   240  121  122 am   BACKBONE|DICT|INTERRES
   241  121  123 2    
   242  122  242 1    
   243  122  243 1    
   244  124  125 1    
   245  124  244 1    
   246  124  245 1    
   247  125  126 1    
   248  126  246 1    
   249  126  247 1    
@<TRIPOS>SUBSTRUCTURE
     1 UNK         1 GROUP             0       ****    0 ROOT    
