@<TRIPOS>MOLECULE
3R540
247   249    1
SMALL
USER_CHARGES


@<TRIPOS>ATOM
      1 CA          6.5573  -16.0376  -49.7981 C.3       0 UNK        -0.1800 
      2 C           5.6745  -14.9727  -49.1625 C.2       0 UNK         0.5000 
      3 O           5.8833  -13.7836  -49.4045 O.2       0 UNK        -0.5000 
      4 N           4.6928  -15.4005  -48.3574 N.am      1 UNK        -0.5000 
      5 CA          3.7380  -14.5630  -47.6199 C.3       1 UNK         0.1400 
      6 C6          2.7734  -13.7472  -48.5341 C.3       23 UNK        -0.0398 
      7 S7          1.8753  -14.7904  -49.7339 S.3       23 UNK        -0.2404 
      8 C8          0.4541  -15.3201  -48.7254 C.3       23 UNK        -0.0205 
      9 C9         -0.2488  -16.5540  -49.2814 C.ar      23 UNK        -0.0193 
     10 C10        -1.6438  -16.5855  -49.3784 C.ar      23 UNK        -0.1150 
     11 C11        -2.2991  -17.7376  -49.8240 C.ar      23 UNK        -0.0193 
     12 C12        -1.5515  -18.8674  -50.1624 C.ar      23 UNK        -0.1150 
     13 C13        -0.1570  -18.8516  -50.0823 C.ar      23 UNK        -0.0193 
     14 C14         0.4861  -17.6871  -49.6476 C.ar      23 UNK        -0.1150 
     15 C15         0.6263  -20.1012  -50.4783 C.3       23 UNK        -0.0205 
     16 S16         2.0910  -20.4645  -49.4450 S.3       23 UNK        -0.2404 
     17 C17         1.4463  -20.3295  -47.7414 C.3       23 UNK        -0.0398 
     18 CA          0.9617  -21.6615  -47.1295 C.3       11 UNK         0.1400 
     19 N           0.8367  -21.5571  -45.6765 N.am      11 UNK        -0.5000 
     20 C           0.5855  -22.5771  -44.8458 C.2       10 UNK         0.5000 
     21 O           0.4808  -23.7493  -45.2091 O.2       10 UNK        -0.5000 
     22 CA          0.3639  -22.2103  -43.3665 C.3       10 UNK         0.1400 
     23 CB          1.7012  -21.9428  -42.6601 C.3       10 UNK        -0.1800 
     24 N          -0.5169  -21.0511  -43.2046 N.am      10 UNK        -0.5000 
     25 C          -1.8027  -21.0227  -43.5860 C.2       9 UNK         0.5000 
     26 O          -2.3917  -21.9848  -44.0785 O.2       9 UNK        -0.5000 
     27 CA         -2.5452  -19.6845  -43.4308 C.3       9 UNK         0.1400 
     28 CB         -2.9950  -19.4757  -41.9771 C.3       9 UNK        -0.1800 
     29 N          -1.7440  -18.5409  -43.8652 N.am      9 UNK        -0.5000 
     30 C          -1.3184  -18.3366  -45.1190 C.2       8 UNK         0.5000 
     31 O          -1.5743  -19.0846  -46.0587 O.2       8 UNK        -0.5000 
     32 CA         -0.3973  -17.1294  -45.3547 C.3       8 UNK         0.1400 
     33 CB         -1.1936  -15.8169  -45.4200 C.3       8 UNK        -0.1800 
     34 N           0.6484  -17.0279  -44.3386 N.am      8 UNK        -0.5000 
     35 C           1.6215  -17.9329  -44.1647 C.2       7 UNK         0.5000 
     36 O           1.7546  -18.9393  -44.8583 O.2       7 UNK        -0.5000 
     37 CA          2.5874  -17.6924  -42.9957 C.3       7 UNK         0.1400 
     38 CB          3.7601  -16.8094  -43.4418 C.3       7 UNK        -0.1800 
     39 N           1.9224  -17.0997  -41.8338 N.am      7 UNK        -0.5000 
     40 C           1.0345  -17.7581  -41.0758 C.2       6 UNK         0.5000 
     41 O           0.6864  -18.9219  -41.2858 O.2       6 UNK        -0.5000 
     42 CA          0.4019  -16.9735  -39.9119 C.3       6 UNK         0.1400 
     43 CB          1.4352  -16.7011  -38.8074 C.3       6 UNK        -0.1800 
     44 N          -0.2297  -15.7112  -40.3091 N.am      6 UNK        -0.5000 
     45 C          -1.1996  -15.5799  -41.2252 C.2       5 UNK         0.5000 
     46 O          -1.5992  -16.5028  -41.9305 O.2       5 UNK        -0.5000 
     47 CA         -1.8446  -14.1915  -41.3985 C.3       5 UNK         0.1400 
     48 CB         -3.2699  -14.2018  -40.8255 C.3       5 UNK        -0.1800 
     49 N          -1.0933  -13.1098  -40.7553 N.am      5 UNK        -0.5000 
     50 C          -0.0191  -12.4636  -41.2291 C.2       4 UNK         0.5000 
     51 O           0.5169  -11.5662  -40.5773 O.2       4 UNK        -0.5000 
     52 CA          0.5436  -12.8158  -42.6269 C.3       4 UNK         0.1400 
     53 CB         -0.1333  -11.9758  -43.7214 C.3       4 UNK        -0.1800 
     54 N           1.9815  -12.5759  -42.6854 N.am      4 UNK        -0.5000 
     55 C           2.9093  -13.3147  -42.0679 C.2       3 UNK         0.5000 
     56 O           2.6490  -14.3584  -41.4647 O.2       3 UNK        -0.5000 
     57 CA          4.3615  -12.8050  -42.1761 C.3       3 UNK         0.1400 
     58 CB          5.3889  -13.7674  -41.5559 C.3       3 UNK        -0.1800 
     59 N           4.7388  -12.5399  -43.5659 N.am      3 UNK        -0.5000 
     60 C           4.4683  -11.4255  -44.2539 C.2       2 UNK         0.5000 
     61 O           3.8399  -10.4765  -43.7835 O.2       2 UNK        -0.5000 
     62 CA          4.9397  -11.3718  -45.7188 C.3       2 UNK         0.1400 
     63 CB          6.4777  -11.3856  -45.8266 C.3       2 UNK        -0.1800 
     64 N           4.3242  -12.3898  -46.5812 N.am      2 UNK        -0.5000 
     65 C           4.4810  -13.7228  -46.5529 C.2       1 UNK         0.5000 
     66 O           5.1808  -14.3103  -45.7243 O.2       1 UNK        -0.5000 
     67 C          -0.3518  -22.1460  -47.7735 C.2       11 UNK         0.5000 
     68 O          -0.3187  -23.0776  -48.5749 O.2       11 UNK        -0.5000 
     69 N          -1.4870  -21.5445  -47.3900 N.am      12 UNK        -0.5000 
     70 CA         -2.8209  -21.9063  -47.8672 C.3       12 UNK         0.1400 
     71 CB         -3.8615  -20.9196  -47.3193 C.3       12 UNK        -0.1800 
     72 C          -3.2159  -23.3518  -47.5246 C.2       12 UNK         0.5000 
     73 O          -3.8089  -24.0220  -48.3684 O.2       12 UNK        -0.5000 
     74 N          -2.8561  -23.8206  -46.3231 N.am      13 UNK        -0.5000 
     75 CA         -3.0551  -25.2046  -45.8934 C.3       13 UNK         0.1400 
     76 CB         -2.7398  -25.3282  -44.3950 C.3       13 UNK        -0.1800 
     77 C          -2.2216  -26.2075  -46.7141 C.2       13 UNK         0.5000 
     78 O          -2.7287  -27.2742  -47.0629 O.2       13 UNK        -0.5000 
     79 N          -0.9688  -25.8438  -47.0187 N.am      14 UNK        -0.5000 
     80 CA         -0.0382  -26.6597  -47.7971 C.3       14 UNK         0.1400 
     81 CB          1.3927  -26.1466  -47.5709 C.3       14 UNK        -0.1800 
     82 C          -0.3734  -26.6888  -49.3002 C.2       14 UNK         0.5000 
     83 O          -0.3597  -27.7608  -49.9061 O.2       14 UNK        -0.5000 
     84 N          -0.6510  -25.5128  -49.8761 N.am      15 UNK        -0.5000 
     85 CA         -0.8181  -25.3000  -51.3156 C.3       15 UNK         0.1400 
     86 CB         -0.2023  -23.9382  -51.6805 C.3       15 UNK        -0.1800 
     87 C          -2.2818  -25.3751  -51.7900 C.2       15 UNK         0.5000 
     88 O          -2.5384  -25.0852  -52.9592 O.2       15 UNK        -0.5000 
     89 N          -3.2168  -25.7203  -50.8923 N.am      16 UNK        -0.5000 
     90 CA         -4.6655  -25.8151  -51.1191 C.3       16 UNK         0.1400 
     91 CB         -4.9943  -26.9863  -52.0682 C.3       16 UNK        -0.1800 
     92 C          -5.2584  -24.4724  -51.5926 C.2       16 UNK         0.5000 
     93 O          -5.8275  -24.3832  -52.6824 O.2       16 UNK        -0.5000 
     94 N          -5.0458  -23.4347  -50.7716 N.am      17 UNK        -0.5000 
     95 CA         -5.4090  -22.0315  -50.9997 C.3       17 UNK         0.1400 
     96 CB         -6.9427  -21.8614  -50.9750 C.3       17 UNK        -0.1800 
     97 C          -4.7407  -21.4463  -52.2620 C.2       17 UNK         0.5000 
     98 O          -5.3724  -20.6869  -52.9967 O.2       17 UNK        -0.5000 
     99 N          -3.4792  -21.8478  -52.4916 N.am      18 UNK        -0.5000 
    100 CA        -2.6554  -21.5642  -53.6730 C.3       18 UNK         0.1400 
    101 CB        -2.2831  -20.0683  -53.7417 C.3       18 UNK        -0.1800 
    102 C         -3.3141  -22.0872  -54.9651 C.2       18 UNK         0.5000 
    103 O         -3.5069  -21.3282  -55.9140 O.2       18 UNK        -0.5000 
    104 N         -3.6985  -23.3722  -54.9512 N.am      19 UNK        -0.5000 
    105 CA        -4.4903  -24.0629  -55.9766 C.3       19 UNK         0.1400 
    106 CB        -3.6578  -24.2749  -57.2578 C.3       19 UNK        -0.1800 
    107 C         -5.8414  -23.3591  -56.2351 C.2       19 UNK         0.5000 
    108 O         -6.2198  -23.1278  -57.3848 O.2       19 UNK        -0.5000 
    109 N         -6.5154  -23.0004  -55.1341 N.am      20 UNK        -0.5000 
    110 CA        -7.7767  -22.2606  -55.0341 C.3       20 UNK         0.1400 
    111 CB        -8.9264  -23.0357  -55.7100 C.3       20 UNK        -0.1800 
    112 C         -7.7233  -20.7848  -55.4904 C.2       20 UNK         0.5000 
    113 O         -8.7721  -20.1370  -55.5072 O.2       20 UNK        -0.5000 
    114 N         -6.5370  -20.2444  -55.8120 N.am      21 UNK        -0.5000 
    115 CA        -6.3518  -18.8524  -56.2398 C.3       21 UNK         0.1400 
    116 CB        -4.9173  -18.6406  -56.7423 C.3       21 UNK        -0.1800 
    117 C         -6.6972  -17.8153  -55.1534 C.2       21 UNK         0.5000 
    118 O         -7.1359  -16.7155  -55.4941 O.2       21 UNK        -0.5000 
    119 N         -6.5290  -18.1845  -53.8769 N.am      22 UNK        -0.5000 
    120 CA        -6.9694  -17.3883  -52.7192 C.3       22 UNK         0.1400 
    121 C         -8.5007  -17.4770  -52.4351 C.2       22 UNK         0.5000 
    122 N         -9.2830  -18.2727  -53.1568 N.am      22 UNK        -0.7600 
    123 O         -8.9971  -16.7969  -51.5412 O.2       22 UNK        -0.5000 
    124 C124       -6.1515  -17.7076  -51.4411 C.3       23 UNK        -0.0398 
    125 S125       -4.3629  -17.4127  -51.6293 S.3       23 UNK        -0.2404 
    126 C126       -3.8142  -17.7749  -49.9343 C.3       23 UNK        -0.0205 
    127 H127        6.2539  -17.0436  -49.5072 H         1 UNK         0.0600 
    128 H128        7.5947  -15.8944  -49.4956 H         1 UNK         0.0600 
    129 H129        6.5050  -15.9682  -50.8847 H         1 UNK         0.0600 
    130 H130        4.6029  -16.3923  -48.1912 H         1 UNK         0.3000 
    131 H131        3.1235  -15.2598  -47.0481 H         1 UNK         0.0600 
    132 H132        2.0389  -13.2045  -47.9363 H         1 UNK         0.0800 
    133 H133        3.3220  -12.9965  -49.1048 H         1 UNK         0.0800 
    134 H134        0.7988  -15.5505  -47.7185 H         1 UNK         0.0800 
    135 H135       -0.2415  -14.4845  -48.6336 H         1 UNK         0.0800 
    136 H136       -2.2230  -15.7166  -49.0994 H         1 UNK         0.1150 
    137 H137       -2.0620  -19.7587  -50.4985 H         1 UNK         0.1150 
    138 H138        1.5640  -17.6673  -49.5749 H         1 UNK         0.1150 
    139 H139       -0.0268  -20.9736  -50.4606 H         1 UNK         0.0800 
    140 H140        0.9521  -19.9892  -51.5130 H         1 UNK         0.0800 
    141 H141        0.6766  -19.5623  -47.6612 H         1 UNK         0.0800 
    142 H142        2.2846  -19.9551  -47.1539 H         1 UNK         0.0800 
    143 H143        1.7221  -22.4204  -47.3263 H         1 UNK         0.0600 
    144 H144        0.9445  -20.6247  -45.2864 H         1 UNK         0.3000 
    145 H145       -0.1136  -23.0638  -42.8806 H         1 UNK         0.0600 
    146 H146        1.5532  -21.7495  -41.5975 H         1 UNK         0.0600 
    147 H147        2.3668  -22.8026  -42.7457 H         1 UNK         0.0600 
    148 H148        2.2182  -21.0826  -43.0862 H         1 UNK         0.0600 
    149 H149       -0.1147  -20.2242  -42.7768 H         1 UNK         0.3000 
    150 H150       -3.4368  -19.7241  -44.0596 H         1 UNK         0.0600 
    151 H151       -3.6011  -18.5749  -41.8791 H         1 UNK         0.0600 
    152 H152       -3.5990  -20.3146  -41.6294 H         1 UNK         0.0600 
    153 H153       -2.1435  -19.3789  -41.3023 H         1 UNK         0.0600 
    154 H154       -1.5180  -17.8528  -43.1497 H         1 UNK         0.3000 
    155 H155        0.0917  -17.2812  -46.3185 H         1 UNK         0.0600 
    156 H156       -1.7329  -15.6216  -44.4933 H         1 UNK         0.0600 
    157 H157       -1.9297  -15.8526  -46.2242 H         1 UNK         0.0600 
    158 H158       -0.5415  -14.9654  -45.6141 H         1 UNK         0.0600 
    159 H159        0.5845  -16.2644  -43.6839 H         1 UNK         0.3000 
    160 H160        2.9924  -18.6618  -42.6974 H         1 UNK         0.0600 
    161 H161        3.4324  -15.8099  -43.7284 H         1 UNK         0.0600 
    162 H162        4.2724  -17.2428  -44.3019 H         1 UNK         0.0600 
    163 H163        4.4951  -16.7134  -42.6440 H         1 UNK         0.0600 
    164 H164        2.1579  -16.1353  -41.6055 H         1 UNK         0.3000 
    165 H165       -0.3819  -17.6049  -39.4883 H         1 UNK         0.0600 
    166 H166        0.9639  -16.2669  -37.9256 H         1 UNK         0.0600 
    167 H167        1.9236  -17.6241  -38.4919 H         1 UNK         0.0600 
    168 H168        2.2140  -16.0150  -39.1428 H         1 UNK         0.0600 
    169 H169        0.0557  -14.8889  -39.7977 H         1 UNK         0.3000 
    170 H170       -1.9280  -13.9975  -42.4684 H         1 UNK         0.0600 
    171 H171       -3.8783  -14.9733  -41.2999 H         1 UNK         0.0600 
    172 H172       -3.2723  -14.3965  -39.7522 H         1 UNK         0.0600 
    173 H173       -3.7702  -13.2480  -40.9950 H         1 UNK         0.0600 
    174 H174       -1.4379  -12.8357  -39.8468 H         1 UNK         0.3000 
    175 H175        0.3842  -13.8711  -42.8471 H         1 UNK         0.0600 
    176 H176        0.0419  -10.9093  -43.5736 H         1 UNK         0.0600 
    177 H177        0.2413  -12.2422  -44.7101 H         1 UNK         0.0600 
    178 H178       -1.2126  -12.1295  -43.7324 H         1 UNK         0.0600 
    179 H179        2.2851  -11.7128  -43.1208 H         1 UNK         0.3000 
    180 H180        4.4075  -11.8722  -41.6104 H         1 UNK         0.0600 
    181 H181        5.4514  -14.7020  -42.1109 H         1 UNK         0.0600 
    182 H182        5.1333  -14.0091  -40.5234 H         1 UNK         0.0600 
    183 H183        6.3838  -13.3219  -41.5460 H         1 UNK         0.0600 
    184 H184        5.1624  -13.3070  -44.0807 H         1 UNK         0.3000 
    185 H185        4.6036  -10.4124  -46.1156 H         1 UNK         0.0600 
    186 H186        6.9137  -10.5652  -45.2553 H         1 UNK         0.0600 
    187 H187        6.9123  -12.3107  -45.4475 H         1 UNK         0.0600 
    188 H188        6.7988  -11.2673  -46.8616 H         1 UNK         0.0600 
    189 H189        3.7208  -12.0085  -47.2952 H         1 UNK         0.3000 
    190 H190       -1.4399  -20.7468  -46.7581 H         1 UNK         0.3000 
    191 H191       -2.8084  -21.8174  -48.9550 H         1 UNK         0.0600 
    192 H192       -3.6335  -19.8981  -47.6214 H         1 UNK         0.0600 
    193 H193       -4.8610  -21.1546  -47.6866 H         1 UNK         0.0600 
    194 H194       -3.8991  -20.9423  -46.2301 H         1 UNK         0.0600 
    195 H195       -2.4263  -23.1881  -45.6543 H         1 UNK         0.3000 
    196 H196       -4.1087  -25.4524  -46.0385 H         1 UNK         0.0600 
    197 H197       -2.8943  -26.3497  -44.0456 H         1 UNK         0.0600 
    198 H198       -3.3860  -24.6802  -43.8026 H         1 UNK         0.0600 
    199 H199       -1.7064  -25.0578  -44.1763 H         1 UNK         0.0600 
    200 H200       -0.6201  -24.9569  -46.6732 H         1 UNK         0.3000 
    201 H201       -0.0879  -27.6854  -47.4252 H         1 UNK         0.0600 
    202 H202        1.6670  -26.1991  -46.5171 H         1 UNK         0.0600 
    203 H203        1.5063  -25.1105  -47.8922 H         1 UNK         0.0600 
    204 H204        2.1159  -26.7450  -48.1263 H         1 UNK         0.0600 
    205 H205       -0.6160  -24.6687  -49.3045 H         1 UNK         0.3000 
    206 H206       -0.2667  -26.0690  -51.8602 H         1 UNK         0.0600 
    207 H207        0.8171  -23.8497  -51.3039 H         1 UNK         0.0600 
    208 H208       -0.1578  -23.8048  -52.7617 H         1 UNK         0.0600 
    209 H209       -0.7830  -23.1133  -51.2677 H         1 UNK         0.0600 
    210 H210       -2.9108  -25.8782  -49.9418 H         1 UNK         0.3000 
    211 H211       -5.1201  -26.0346  -50.1518 H         1 UNK         0.0600 
    212 H212       -4.5923  -26.8276  -53.0694 H         1 UNK         0.0600 
    213 H213       -6.0728  -27.1142  -52.1675 H         1 UNK         0.0600 
    214 H214       -4.5891  -27.9247  -51.6898 H         1 UNK         0.0600 
    215 H215       -4.5709  -23.6359  -49.8912 H         1 UNK         0.3000 
    216 H216       -5.0056  -21.4620  -50.1626 H         1 UNK         0.0600 
    217 H217       -7.4294  -22.4437  -51.7555 H         1 UNK         0.0600 
    218 H218       -7.2379  -20.8224  -51.1143 H         1 UNK         0.0600 
    219 H219       -7.3532  -22.1857  -50.0189 H         1 UNK         0.0600 
    220 H220       -3.0885  -22.5151  -51.8442 H         1 UNK         0.3000 
    221 H221       -1.7288  -22.1262  -53.5565 H         1 UNK         0.0600 
    222 H222       -3.1634  -19.4300  -53.8175 H         1 UNK         0.0600 
    223 H223       -1.7230  -19.7608  -52.8606 H         1 UNK         0.0600 
    224 H224       -1.6540  -19.8606  -54.6079 H         1 UNK         0.0600 
    225 H225       -3.4652  -23.9341  -54.1353 H         1 UNK         0.3000 
    226 H226       -4.7285  -25.0463  -55.5684 H         1 UNK         0.0600 
    227 H227       -2.7232  -24.7908  -57.0381 H         1 UNK         0.0600 
    228 H228       -4.2026  -24.8837  -57.9801 H         1 UNK         0.0600 
    229 H229       -3.4133  -23.3304  -57.7448 H         1 UNK         0.0600 
    230 H230       -6.1200  -23.2849  -54.2409 H         1 UNK         0.3000 
    231 H231       -8.0021  -22.2213  -53.9692 H         1 UNK         0.0600 
    232 H232       -8.8196  -23.0576  -56.7947 H         1 UNK         0.0600 
    233 H233       -9.8911  -22.5778  -55.4889 H         1 UNK         0.0600 
    234 H234       -8.9702  -24.0653  -55.3548 H         1 UNK         0.0600 
    235 H235       -5.7009  -20.8106  -55.7343 H         1 UNK         0.3000 
    236 H236       -7.0275  -18.6796  -57.0799 H         1 UNK         0.0600 
    237 H237       -4.6645  -19.3490  -57.5313 H         1 UNK         0.0600 
    238 H238       -4.7925  -17.6378  -57.1526 H         1 UNK         0.0600 
    239 H239       -4.1907  -18.7554  -55.9379 H         1 UNK         0.0600 
    240 H240       -6.1408  -19.1026  -53.6709 H         1 UNK         0.3000 
    241 H241       -6.7838  -16.3384  -52.9536 H         1 UNK         0.0600 
    242 H242       -8.9168  -18.8237  -53.9241 H         1 UNK         0.3800 
    243 H243      -10.2695  -18.3039  -52.9542 H         1 UNK         0.3800 
    244 H244       -6.3012  -18.7444  -51.1436 H         1 UNK         0.0800 
    245 H245       -6.4978  -17.0959  -50.6060 H         1 UNK         0.0800 
    246 H246       -4.1804  -18.7598  -49.6427 H         1 UNK         0.0800 
    247 H247       -4.2629  -17.0592  -49.2437 H         1 UNK         0.0800 
@<TRIPOS>BOND
     1    1    2 1    
     2    1  127 1    
     3    1  128 1    
     4    1  129 1    
     5    2    3 2    
     6    2    4 am   BACKBONE|DICT|INTERRES
     7    4    5 1    
     8    4  130 1    
     9    5    6 1    
    10    5   65 1    
    11    5  131 1    
    12    6    7 1    
    13    6  132 1    
    14    6  133 1    
    15    7    8 1    
    16    8    9 1    
    17    8  134 1    
    18    8  135 1    
    19    9   10 ar   
    20    9   14 ar   
    21   10   11 ar   
    22   10  136 1    
    23   11   12 ar   
    24   11  126 1    
    25   12   13 ar   
    26   12  137 1    
    27   13   14 ar   
    28   13   15 1    
    29   14  138 1    
    30   15   16 1    
    31   15  139 1    
    32   15  140 1    
    33   16   17 1    
    34   17   18 1    
    35   17  141 1    
    36   17  142 1    
    37   18   19 1    
    38   18   67 1    
    39   18  143 1    
    40   19   20 am   BACKBONE|DICT|INTERRES
    41   19  144 1    
    42   20   21 2    
    43   20   22 1    
    44   22   23 1    
    45   22   24 1    
    46   22  145 1    
    47   23  146 1    
    48   23  147 1    
    49   23  148 1    
    50   24   25 am   BACKBONE|DICT|INTERRES
    51   24  149 1    
    52   25   26 2    
    53   25   27 1    
    54   27   28 1    
    55   27   29 1    
    56   27  150 1    
    57   28  151 1    
    58   28  152 1    
    59   28  153 1    
    60   29   30 am   BACKBONE|DICT|INTERRES
    61   29  154 1    
    62   30   31 2    
    63   30   32 1    
    64   32   33 1    
    65   32   34 1    
    66   32  155 1    
    67   33  156 1    
    68   33  157 1    
    69   33  158 1    
    70   34   35 am   BACKBONE|DICT|INTERRES
    71   34  159 1    
    72   35   36 2    
    73   35   37 1    
    74   37   38 1    
    75   37   39 1    
    76   37  160 1    
    77   38  161 1    
    78   38  162 1    
    79   38  163 1    
    80   39   40 am   BACKBONE|DICT|INTERRES
    81   39  164 1    
    82   40   41 2    
    83   40   42 1    
    84   42   43 1    
    85   42   44 1    
    86   42  165 1    
    87   43  166 1    
    88   43  167 1    
    89   43  168 1    
    90   44   45 am   BACKBONE|DICT|INTERRES
    91   44  169 1    
    92   45   46 2    
    93   45   47 1    
    94   47   48 1    
    95   47   49 1    
    96   47  170 1    
    97   48  171 1    
    98   48  172 1    
    99   48  173 1    
   100   49   50 am   BACKBONE|DICT|INTERRES
   101   49  174 1    
   102   50   51 2    
   103   50   52 1    
   104   52   53 1    
   105   52   54 1    
   106   52  175 1    
   107   53  176 1    
   108   53  177 1    
   109   53  178 1    
   110   54   55 am   BACKBONE|DICT|INTERRES
   111   54  179 1    
   112   55   56 2    
   113   55   57 1    
   114   57   58 1    
   115   57   59 1    
   116   57  180 1    
   117   58  181 1    
   118   58  182 1    
   119   58  183 1    
   120   59   60 am   BACKBONE|DICT|INTERRES
   121   59  184 1    
   122   60   61 2    
   123   60   62 1    
   124   62   63 1    
   125   62   64 1    
   126   62  185 1    
   127   63  186 1    
   128   63  187 1    
   129   63  188 1    
   130   64   65 am   BACKBONE|DICT|INTERRES
   131   64  189 1    
   132   65   66 2    
   133   67   68 2    
   134   67   69 am   BACKBONE|DICT|INTERRES
   135   69   70 1    
   136   69  190 1    
   137   70   71 1    
   138   70   72 1    
   139   70  191 1    
   140   71  192 1    
   141   71  193 1    
   142   71  194 1    
   143   72   73 2    
   144   72   74 am   BACKBONE|DICT|INTERRES
   145   74   75 1    
   146   74  195 1    
   147   75   76 1    
   148   75   77 1    
   149   75  196 1    
   150   76  197 1    
   151   76  198 1    
   152   76  199 1    
   153   77   78 2    
   154   77   79 am   BACKBONE|DICT|INTERRES
   155   79   80 1    
   156   79  200 1    
   157   80   81 1    
   158   80   82 1    
   159   80  201 1    
   160   81  202 1    
   161   81  203 1    
   162   81  204 1    
   163   82   83 2    
   164   82   84 am   BACKBONE|DICT|INTERRES
   165   84   85 1    
   166   84  205 1    
   167   85   86 1    
   168   85   87 1    
   169   85  206 1    
   170   86  207 1    
   171   86  208 1    
   172   86  209 1    
   173   87   88 2    
   174   87   89 am   BACKBONE|DICT|INTERRES
   175   89   90 1    
   176   89  210 1    
   177   90   91 1    
   178   90   92 1    
   179   90  211 1    
   180   91  212 1    
   181   91  213 1    
   182   91  214 1    
   183   92   93 2    
   184   92   94 am   BACKBONE|DICT|INTERRES
   185   94   95 1    
   186   94  215 1    
   187   95   96 1    
   188   95   97 1    
   189   95  216 1    
   190   96  217 1    
   191   96  218 1    
   192   96  219 1    
   193   97   98 2    
   194   97   99 am   BACKBONE|DICT|INTERRES
   195   99  100 1    
   196   99  220 1    
   197  100  101 1    
   198  100  102 1    
   199  100  221 1    
   200  101  222 1    
   201  101  223 1    
   202  101  224 1    
   203  102  103 2    
   204  102  104 am   BACKBONE|DICT|INTERRES
   205  104  105 1    
   206  104  225 1    
   207  105  106 1    
   208  105  107 1    
   209  105  226 1    
   210  106  227 1    
   211  106  228 1    
   212  106  229 1    
   213  107  108 2    
   214  107  109 am   BACKBONE|DICT|INTERRES
   215  109  110 1    
   216  109  230 1    
   217  110  111 1    
   218  110  112 1    
   219  110  231 1    
   220  111  232 1    
   221  111  233 1    
   222  111  234 1    
   223  112  113 2    
   224  112  114 am   BACKBONE|DICT|INTERRES
   225  114  115 1    
   226  114  235 1    
   227  115  116 1    
   228  115  117 1    
   229  115  236 1    
   230  116  237 1    
   231  116  238 1    
   232  116  239 1    
   233  117  118 2    
   234  117  119 am   BACKBONE|DICT|INTERRES
   235  119  120 1    
   236  119  240 1    
   237  120  121 1    
   238  120  124 1    
   239  120  241 1    
   240  121  122 am   BACKBONE|DICT|INTERRES
   241  121  123 2    
   242  122  242 1    
   243  122  243 1    
   244  124  125 1    
   245  124  244 1    
   246  124  245 1    
   247  125  126 1    
   248  126  246 1    
   249  126  247 1    
@<TRIPOS>SUBSTRUCTURE
     1 UNK         1 GROUP             0       ****    0 ROOT    
