@<TRIPOS>MOLECULE
3R540
247   249    1
SMALL
USER_CHARGES


@<TRIPOS>ATOM
      1 CA          3.0603   -9.9227  -51.0286 C.3       0 UNK        -0.1800 
      2 C           2.9919  -11.1065  -50.0745 C.2       0 UNK         0.5000 
      3 O           1.9103  -11.4330  -49.5863 O.2       0 UNK        -0.5000 
      4 N           4.1420  -11.7446  -49.8146 N.am      1 UNK        -0.5000 
      5 CA          4.3177  -12.9125  -48.9356 C.3       1 UNK         0.1400 
      6 C6          3.5935  -14.1943  -49.4346 C.3       23 UNK        -0.0398 
      7 S7          4.0485  -14.6390  -51.1491 S.3       23 UNK        -0.2404 
      8 C8          2.4550  -14.4536  -52.0156 C.3       23 UNK        -0.0205 
      9 C9          1.7113  -15.7774  -52.1461 C.ar      23 UNK        -0.0193 
     10 C10         1.4734  -16.3241  -53.4106 C.ar      23 UNK        -0.1150 
     11 C11         0.7748  -17.5272  -53.5480 C.ar      23 UNK        -0.0193 
     12 C12         0.3292  -18.1998  -52.4060 C.ar      23 UNK        -0.1150 
     13 C13         0.5680  -17.6690  -51.1357 C.ar      23 UNK        -0.0193 
     14 C14         1.2473  -16.4531  -51.0130 C.ar      23 UNK        -0.1150 
     15 C15         0.1033  -18.4063  -49.8911 C.3       23 UNK        -0.0205 
     16 S16         1.4016  -19.5302  -49.2856 S.3       23 UNK        -0.2404 
     17 C17         0.9109  -19.7310  -47.5410 C.3       23 UNK        -0.0398 
     18 CA          0.3026  -21.1111  -47.1959 C.3       11 UNK         0.1400 
     19 N           0.2128  -21.2887  -45.7449 N.am      11 UNK        -0.5000 
     20 C          -0.1537  -22.4095  -45.1100 C.2       10 UNK         0.5000 
     21 O          -0.4126  -23.4676  -45.6812 O.2       10 UNK        -0.5000 
     22 CA         -0.3061  -22.3154  -43.5800 C.3       10 UNK         0.1400 
     23 CB          1.0575  -22.4288  -42.8830 C.3       10 UNK        -0.1800 
     24 N          -0.9797  -21.0853  -43.1563 N.am      10 UNK        -0.5000 
     25 C          -2.2466  -20.7752  -43.4698 C.2       9 UNK         0.5000 
     26 O          -2.9912  -21.5147  -44.1117 O.2       9 UNK        -0.5000 
     27 CA         -2.7569  -19.3898  -43.0387 C.3       9 UNK         0.1400 
     28 CB         -3.1519  -19.3913  -41.5546 C.3       9 UNK        -0.1800 
     29 N          -1.7833  -18.3285  -43.2929 N.am      9 UNK        -0.5000 
     30 C          -1.3458  -17.9703  -44.5087 C.2       8 UNK         0.5000 
     31 O          -1.7571  -18.4671  -45.5573 O.2       8 UNK        -0.5000 
     32 CA         -0.2142  -16.9266  -44.5597 C.3       8 UNK         0.1400 
     33 CB         -0.7655  -15.5046  -44.3848 C.3       8 UNK        -0.1800 
     34 N           0.8264  -17.1816  -43.5623 N.am      8 UNK        -0.5000 
     35 C           1.5865  -18.2859  -43.5301 C.2       7 UNK         0.5000 
     36 O           1.5209  -19.1842  -44.3669 O.2       7 UNK        -0.5000 
     37 CA          2.5477  -18.4389  -42.3422 C.3       7 UNK         0.1400 
     38 CB          3.8491  -17.6726  -42.5968 C.3       7 UNK        -0.1800 
     39 N           1.9424  -17.9803  -41.0946 N.am      7 UNK        -0.5000 
     40 C           0.9700  -18.6374  -40.4487 C.2       6 UNK         0.5000 
     41 O           0.5053  -19.7149  -40.8231 O.2       6 UNK        -0.5000 
     42 CA          0.3935  -17.9470  -39.1996 C.3       6 UNK         0.1400 
     43 CB          1.3040  -18.1712  -37.9830 C.3       6 UNK        -0.1800 
     44 N           0.1879  -16.5103  -39.3967 N.am      6 UNK        -0.5000 
     45 C          -0.6942  -15.9908  -40.2613 C.2       5 UNK         0.5000 
     46 O          -1.4301  -16.6695  -40.9756 O.2       5 UNK        -0.5000 
     47 CA         -0.7497  -14.4578  -40.3719 C.3       5 UNK         0.1400 
     48 CB         -1.7180  -13.8815  -39.3280 C.3       5 UNK        -0.1800 
     49 N           0.5467  -13.7858  -40.2502 N.am      5 UNK        -0.5000 
     50 C           1.6101  -13.9845  -41.0413 C.2       4 UNK         0.5000 
     51 O           1.6696  -14.8670  -41.9019 O.2       4 UNK        -0.5000 
     52 CA          2.7712  -12.9923  -40.8401 C.3       4 UNK         0.1400 
     53 CB          3.4289  -13.1381  -39.4512 C.3       4 UNK        -0.1800 
     54 N           3.7451  -13.0311  -41.9382 N.am      4 UNK        -0.5000 
     55 C           4.7508  -13.8917  -42.1559 C.2       3 UNK         0.5000 
     56 O           5.0877  -14.7744  -41.3662 O.2       3 UNK        -0.5000 
     57 CA          5.5233  -13.7370  -43.4861 C.3       3 UNK         0.1400 
     58 CB          5.7482  -15.0911  -44.1814 C.3       3 UNK        -0.1800 
     59 N           4.8532  -12.8479  -44.4377 N.am      3 UNK        -0.5000 
     60 C           5.0604  -11.5353  -44.5793 C.2       2 UNK         0.5000 
     61 O           5.8617  -10.8969  -43.8951 O.2       2 UNK        -0.5000 
     62 CA          4.2245  -10.8342  -45.6743 C.3       2 UNK         0.1400 
     63 CB          4.4803   -9.3174  -45.7368 C.3       2 UNK        -0.1800 
     64 N           4.4459  -11.3990  -47.0087 N.am      2 UNK        -0.5000 
     65 C           3.9830  -12.5727  -47.4642 C.2       1 UNK         0.5000 
     66 O           3.3188  -13.3511  -46.7758 O.2       1 UNK        -0.5000 
     67 C          -1.0615  -21.3387  -47.8809 C.2       11 UNK         0.5000 
     68 O          -1.1357  -22.0952  -48.8496 O.2       11 UNK        -0.5000 
     69 N          -2.1232  -20.7246  -47.3376 N.am      12 UNK        -0.5000 
     70 CA         -3.4997  -20.9052  -47.7968 C.3       12 UNK         0.1400 
     71 CB         -4.4299  -19.9227  -47.0717 C.3       12 UNK        -0.1800 
     72 C          -3.9925  -22.3528  -47.6319 C.2       12 UNK         0.5000 
     73 O          -4.5862  -22.8911  -48.5653 O.2       12 UNK        -0.5000 
     74 N          -3.7102  -22.9709  -46.4763 N.am      13 UNK        -0.5000 
     75 CA         -4.0356  -24.3667  -46.1744 C.3       13 UNK         0.1400 
     76 CB         -3.7134  -24.6734  -44.7047 C.3       13 UNK        -0.1800 
     77 C          -3.3284  -25.3628  -47.1107 C.2       13 UNK         0.5000 
     78 O          -3.9743  -26.2873  -47.6052 O.2       13 UNK        -0.5000 
     79 N          -2.0378  -25.1266  -47.3883 N.am      14 UNK        -0.5000 
     80 CA         -1.2369  -25.8853  -48.3545 C.3       14 UNK         0.1400 
     81 CB          0.2301  -25.4386  -48.2678 C.3       14 UNK        -0.1800 
     82 C          -1.7597  -25.7619  -49.7997 C.2       14 UNK         0.5000 
     83 O          -1.6578  -26.7182  -50.5681 O.2       14 UNK        -0.5000 
     84 N          -2.3587  -24.6089  -50.1220 N.am      15 UNK        -0.5000 
     85 CA         -3.0611  -24.3288  -51.3730 C.3       15 UNK         0.1400 
     86 CB         -2.9208  -22.8322  -51.6935 C.3       15 UNK        -0.1800 
     87 C          -4.5417  -24.7730  -51.3524 C.2       15 UNK         0.5000 
     88 O          -5.3133  -24.3150  -52.1962 O.2       15 UNK        -0.5000 
     89 N          -4.9248  -25.6426  -50.4044 N.am      16 UNK        -0.5000 
     90 CA         -6.2521  -26.2437  -50.2324 C.3       16 UNK         0.1400 
     91 CB         -6.5918  -27.1619  -51.4260 C.3       16 UNK        -0.1800 
     92 C          -7.3456  -25.1971  -49.9383 C.2       16 UNK         0.5000 
     93 O          -8.3994  -25.2038  -50.5743 O.2       16 UNK        -0.5000 
     94 N          -7.0476  -24.2991  -48.9890 N.am      17 UNK        -0.5000 
     95 CA         -7.8247  -23.1138  -48.6060 C.3       17 UNK         0.1400 
     96 CB         -9.2213  -23.4921  -48.0688 C.3       17 UNK        -0.1800 
     97 C          -7.8569  -22.0687  -49.7401 C.2       17 UNK         0.5000 
     98 O          -8.9007  -21.4736  -50.0128 O.2       17 UNK        -0.5000 
     99 N          -6.6923  -21.8860  -50.3815 N.am      18 UNK        -0.5000 
    100 CA        -6.4246  -21.0092  -51.5269 C.3       18 UNK         0.1400 
    101 CB        -6.5192  -19.5278  -51.1094 C.3       18 UNK        -0.1800 
    102 C         -7.2689  -21.3435  -52.7774 C.2       18 UNK         0.5000 
    103 O         -7.5983  -20.4473  -53.5574 O.2       18 UNK        -0.5000 
    104 N         -7.5915  -22.6301  -52.9579 N.am      19 UNK        -0.5000 
    105 CA        -8.2920  -23.1549  -54.1290 C.3       19 UNK         0.1400 
    106 CB        -9.1045  -24.3912  -53.7179 C.3       19 UNK        -0.1800 
    107 C         -7.3194  -23.5095  -55.2679 C.2       19 UNK         0.5000 
    108 O         -7.7055  -23.4273  -56.4349 O.2       19 UNK        -0.5000 
    109 N         -6.0895  -23.9050  -54.9122 N.am      20 UNK        -0.5000 
    110 CA        -5.0074  -24.2368  -55.8337 C.3       20 UNK         0.1400 
    111 CB        -4.2145  -25.4299  -55.2619 C.3       20 UNK        -0.1800 
    112 C         -4.1560  -22.9802  -56.1054 C.2       20 UNK         0.5000 
    113 O         -4.6860  -21.9978  -56.6291 O.2       20 UNK        -0.5000 
    114 N         -2.8594  -23.0273  -55.7646 N.am      21 UNK        -0.5000 
    115 CA        -1.8720  -21.9611  -55.9501 C.3       21 UNK         0.1400 
    116 CB        -0.5133  -22.4421  -55.4139 C.3       21 UNK        -0.1800 
    117 C         -2.2973  -20.6416  -55.2788 C.2       21 UNK         0.5000 
    118 O         -2.2801  -20.5492  -54.0508 O.2       21 UNK        -0.5000 
    119 N         -2.6929  -19.6648  -56.1045 N.am      22 UNK        -0.5000 
    120 CA        -3.2628  -18.3675  -55.6963 C.3       22 UNK         0.1400 
    121 C         -4.6541  -18.4764  -54.9958 C.2       22 UNK         0.5000 
    122 N         -5.3916  -19.5665  -55.1695 N.am      22 UNK        -0.7600 
    123 O         -5.0858  -17.5549  -54.3083 O.2       22 UNK        -0.5000 
    124 C124       -2.2602  -17.4749  -54.9104 C.3       23 UNK        -0.0398 
    125 S125       -0.7300  -17.1328  -55.8499 S.3       23 UNK        -0.2404 
    126 C126        0.5116  -18.1005  -54.9322 C.3       23 UNK        -0.0205 
    127 H127        2.4216  -10.1017  -51.8936 H         1 UNK         0.0600 
    128 H128        4.0752   -9.7471  -51.3863 H         1 UNK         0.0600 
    129 H129        2.7144   -9.0178  -50.5290 H         1 UNK         0.0600 
    130 H130        4.9866  -11.4205  -50.2648 H         1 UNK         0.3000 
    131 H131        5.3871  -13.1291  -48.9439 H         1 UNK         0.0600 
    132 H132        3.8521  -15.0438  -48.8002 H         1 UNK         0.0800 
    133 H133        2.5129  -14.0767  -49.3481 H         1 UNK         0.0800 
    134 H134        1.8215  -13.7231  -51.5109 H         1 UNK         0.0800 
    135 H135        2.6578  -14.0367  -53.0032 H         1 UNK         0.0800 
    136 H136        1.8207  -15.8090  -54.2954 H         1 UNK         0.1150 
    137 H137       -0.2019  -19.1371  -52.5047 H         1 UNK         0.1150 
    138 H138        1.4282  -16.0427  -50.0305 H         1 UNK         0.1150 
    139 H139       -0.1590  -17.6798  -49.1207 H         1 UNK         0.0800 
    140 H140       -0.8030  -18.9775  -50.0996 H         1 UNK         0.0800 
    141 H141        0.2428  -18.9247  -47.2389 H         1 UNK         0.0800 
    142 H142        1.8209  -19.5862  -46.9579 H         1 UNK         0.0800 
    143 H143        0.9837  -21.8812  -47.5641 H         1 UNK         0.0600 
    144 H144        0.4661  -20.4803  -45.1816 H         1 UNK         0.3000 
    145 H145       -0.9203  -23.1579  -43.2562 H         1 UNK         0.0600 
    146 H146        0.9469  -22.4257  -41.7985 H         1 UNK         0.0600 
    147 H147        1.5588  -23.3579  -43.1568 H         1 UNK         0.0600 
    148 H148        1.7202  -21.6069  -43.1531 H         1 UNK         0.0600 
    149 H149       -0.4401  -20.4384  -42.5922 H         1 UNK         0.3000 
    150 H150       -3.6503  -19.1687  -43.6263 H         1 UNK         0.0600 
    151 H151       -3.8781  -20.1772  -41.3435 H         1 UNK         0.0600 
    152 H152       -3.6069  -18.4431  -41.2683 H         1 UNK         0.0600 
    153 H153       -2.2898  -19.5564  -40.9076 H         1 UNK         0.0600 
    154 H154       -1.4352  -17.8301  -42.4780 H         1 UNK         0.3000 
    155 H155        0.2522  -16.9883  -45.5449 H         1 UNK         0.0600 
    156 H156       -1.2724  -15.3843  -43.4282 H         1 UNK         0.0600 
    157 H157        0.0312  -14.7622  -44.4389 H         1 UNK         0.0600 
    158 H158       -1.4861  -15.2686  -45.1687 H         1 UNK         0.0600 
    159 H159        0.9786  -16.4639  -42.8599 H         1 UNK         0.3000 
    160 H160        2.7927  -19.4981  -42.2389 H         1 UNK         0.0600 
    161 H161        4.5512  -17.7921  -41.7716 H         1 UNK         0.0600 
    162 H162        3.6551  -16.6086  -42.7214 H         1 UNK         0.0600 
    163 H163        4.3427  -18.0270  -43.5025 H         1 UNK         0.0600 
    164 H164        2.2251  -17.0703  -40.7598 H         1 UNK         0.3000 
    165 H165       -0.5766  -18.4018  -38.9879 H         1 UNK         0.0600 
    166 H166        0.8610  -17.7560  -37.0776 H         1 UNK         0.0600 
    167 H167        1.4636  -19.2359  -37.8067 H         1 UNK         0.0600 
    168 H168        2.2831  -17.7105  -38.1198 H         1 UNK         0.0600 
    169 H169        0.7599  -15.8816  -38.8525 H         1 UNK         0.3000 
    170 H170       -1.1438  -14.2184  -41.3610 H         1 UNK         0.0600 
    171 H171       -1.3584  -14.0451  -38.3113 H         1 UNK         0.0600 
    172 H172       -1.8572  -12.8092  -39.4673 H         1 UNK         0.0600 
    173 H173       -2.7013  -14.3474  -39.4074 H         1 UNK         0.0600 
    174 H174        0.5916  -13.0447  -39.5659 H         1 UNK         0.3000 
    175 H175        2.3351  -11.9934  -40.8888 H         1 UNK         0.0600 
    176 H176        4.3013  -12.4915  -39.3559 H         1 UNK         0.0600 
    177 H177        3.7447  -14.1627  -39.2528 H         1 UNK         0.0600 
    178 H178        2.7349  -12.8593  -38.6579 H         1 UNK         0.0600 
    179 H179        3.5636  -12.3740  -42.6822 H         1 UNK         0.3000 
    180 H180        6.5026  -13.3266  -43.2322 H         1 UNK         0.0600 
    181 H181        4.8077  -15.5329  -44.5115 H         1 UNK         0.0600 
    182 H182        6.2385  -15.8055  -43.5190 H         1 UNK         0.0600 
    183 H183        6.3854  -14.9777  -45.0586 H         1 UNK         0.0600 
    184 H184        4.1860  -13.2818  -45.0708 H         1 UNK         0.3000 
    185 H185        3.1741  -10.9785  -45.4131 H         1 UNK         0.0600 
    186 H186        4.2818   -8.8459  -44.7734 H         1 UNK         0.0600 
    187 H187        5.5130   -9.0934  -46.0069 H         1 UNK         0.0600 
    188 H188        3.8305   -8.8381  -46.4694 H         1 UNK         0.0600 
    189 H189        4.9917  -10.8320  -47.6412 H         1 UNK         0.3000 
    190 H190       -1.9827  -20.0859  -46.5592 H         1 UNK         0.3000 
    191 H191       -3.5264  -20.6677  -48.8623 H         1 UNK         0.0600 
    192 H192       -4.1282  -18.8907  -47.2516 H         1 UNK         0.0600 
    193 H193       -5.4576  -20.0276  -47.4220 H         1 UNK         0.0600 
    194 H194       -4.4299  -20.0866  -45.9938 H         1 UNK         0.0600 
    195 H195       -3.2600  -22.4410  -45.7338 H         1 UNK         0.3000 
    196 H196       -5.1114  -24.4902  -46.3143 H         1 UNK         0.0600 
    197 H197       -3.9683  -25.7042  -44.4553 H         1 UNK         0.0600 
    198 H198       -4.2803  -24.0272  -44.0345 H         1 UNK         0.0600 
    199 H199       -2.6546  -24.5346  -44.4864 H         1 UNK         0.0600 
    200 H200       -1.5619  -24.3710  -46.9009 H         1 UNK         0.3000 
    201 H201       -1.2892  -26.9393  -48.0746 H         1 UNK         0.0600 
    202 H202        0.6325  -25.6006  -47.2677 H         1 UNK         0.0600 
    203 H203        0.3432  -24.3806  -48.5060 H         1 UNK         0.0600 
    204 H204        0.8528  -26.0014  -48.9643 H         1 UNK         0.0600 
    205 H205       -2.3620  -23.8634  -49.4354 H         1 UNK         0.3000 
    206 H206       -2.5792  -24.8839  -52.1794 H         1 UNK         0.0600 
    207 H207       -1.8727  -22.5444  -51.7789 H         1 UNK         0.0600 
    208 H208       -3.3987  -22.5827  -52.6414 H         1 UNK         0.0600 
    209 H209       -3.3712  -22.2104  -50.9205 H         1 UNK         0.0600 
    210 H210       -4.2412  -25.9160  -49.7090 H         1 UNK         0.3000 
    211 H211       -6.1900  -26.8737  -49.3440 H         1 UNK         0.0600 
    212 H212       -6.6938  -26.6029  -52.3563 H         1 UNK         0.0600 
    213 H213       -7.5312  -27.6897  -51.2579 H         1 UNK         0.0600 
    214 H214       -5.8188  -27.9160  -51.5733 H         1 UNK         0.0600 
    215 H215       -6.1093  -24.3251  -48.6075 H         1 UNK         0.3000 
    216 H216       -7.2800  -22.6483  -47.7835 H         1 UNK         0.0600 
    217 H217       -9.7210  -22.6212  -47.6433 H         1 UNK         0.0600 
    218 H218       -9.1509  -24.2424  -47.2814 H         1 UNK         0.0600 
    219 H219       -9.8695  -23.8857  -48.8519 H         1 UNK         0.0600 
    220 H220       -5.8985  -22.4194  -50.0424 H         1 UNK         0.3000 
    221 H221       -5.3907  -21.1965  -51.8165 H         1 UNK         0.0600 
    222 H222       -7.5418  -19.2418  -50.8621 H         1 UNK         0.0600 
    223 H223       -5.8926  -19.3225  -50.2414 H         1 UNK         0.0600 
    224 H224       -6.1810  -18.8725  -51.9132 H         1 UNK         0.0600 
    225 H225       -7.2368  -23.3112  -52.2974 H         1 UNK         0.3000 
    226 H226       -8.9896  -22.4024  -54.5027 H         1 UNK         0.0600 
    227 H227       -9.8117  -24.1519  -52.9235 H         1 UNK         0.0600 
    228 H228       -9.6781  -24.7798  -54.5602 H         1 UNK         0.0600 
    229 H229       -8.4600  -25.1949  -53.3606 H         1 UNK         0.0600 
    230 H230       -5.8597  -23.9464  -53.9218 H         1 UNK         0.3000 
    231 H231       -5.4237  -24.5511  -56.7929 H         1 UNK         0.0600 
    232 H232       -3.7413  -25.1917  -54.3101 H         1 UNK         0.0600 
    233 H233       -3.4364  -25.7555  -55.9536 H         1 UNK         0.0600 
    234 H234       -4.8694  -26.2854  -55.0948 H         1 UNK         0.0600 
    235 H235       -2.5177  -23.8698  -55.3279 H         1 UNK         0.3000 
    236 H236       -1.7674  -21.7912  -57.0236 H         1 UNK         0.0600 
    237 H237       -0.1700  -23.3297  -55.9456 H         1 UNK         0.0600 
    238 H238        0.2501  -21.6734  -55.5401 H         1 UNK         0.0600 
    239 H239       -0.5617  -22.6848  -54.3513 H         1 UNK         0.0600 
    240 H240       -2.7040  -19.8465  -57.0977 H         1 UNK         0.3000 
    241 H241       -3.4798  -17.8466  -56.6293 H         1 UNK         0.0600 
    242 H242       -5.0607  -20.3355  -55.7451 H         1 UNK         0.3800 
    243 H243       -6.2834  -19.6527  -54.6927 H         1 UNK         0.3800 
    244 H244       -2.7114  -16.5073  -54.6857 H         1 UNK         0.0800 
    245 H245       -2.0250  -17.9208  -53.9444 H         1 UNK         0.0800 
    246 H246        1.4434  -18.1046  -55.4993 H         1 UNK         0.0800 
    247 H247        0.1918  -19.1406  -54.8671 H         1 UNK         0.0800 
@<TRIPOS>BOND
     1    1    2 1    
     2    1  127 1    
     3    1  128 1    
     4    1  129 1    
     5    2    3 2    
     6    2    4 am   BACKBONE|DICT|INTERRES
     7    4    5 1    
     8    4  130 1    
     9    5    6 1    
    10    5   65 1    
    11    5  131 1    
    12    6    7 1    
    13    6  132 1    
    14    6  133 1    
    15    7    8 1    
    16    8    9 1    
    17    8  134 1    
    18    8  135 1    
    19    9   10 ar   
    20    9   14 ar   
    21   10   11 ar   
    22   10  136 1    
    23   11   12 ar   
    24   11  126 1    
    25   12   13 ar   
    26   12  137 1    
    27   13   14 ar   
    28   13   15 1    
    29   14  138 1    
    30   15   16 1    
    31   15  139 1    
    32   15  140 1    
    33   16   17 1    
    34   17   18 1    
    35   17  141 1    
    36   17  142 1    
    37   18   19 1    
    38   18   67 1    
    39   18  143 1    
    40   19   20 am   BACKBONE|DICT|INTERRES
    41   19  144 1    
    42   20   21 2    
    43   20   22 1    
    44   22   23 1    
    45   22   24 1    
    46   22  145 1    
    47   23  146 1    
    48   23  147 1    
    49   23  148 1    
    50   24   25 am   BACKBONE|DICT|INTERRES
    51   24  149 1    
    52   25   26 2    
    53   25   27 1    
    54   27   28 1    
    55   27   29 1    
    56   27  150 1    
    57   28  151 1    
    58   28  152 1    
    59   28  153 1    
    60   29   30 am   BACKBONE|DICT|INTERRES
    61   29  154 1    
    62   30   31 2    
    63   30   32 1    
    64   32   33 1    
    65   32   34 1    
    66   32  155 1    
    67   33  156 1    
    68   33  157 1    
    69   33  158 1    
    70   34   35 am   BACKBONE|DICT|INTERRES
    71   34  159 1    
    72   35   36 2    
    73   35   37 1    
    74   37   38 1    
    75   37   39 1    
    76   37  160 1    
    77   38  161 1    
    78   38  162 1    
    79   38  163 1    
    80   39   40 am   BACKBONE|DICT|INTERRES
    81   39  164 1    
    82   40   41 2    
    83   40   42 1    
    84   42   43 1    
    85   42   44 1    
    86   42  165 1    
    87   43  166 1    
    88   43  167 1    
    89   43  168 1    
    90   44   45 am   BACKBONE|DICT|INTERRES
    91   44  169 1    
    92   45   46 2    
    93   45   47 1    
    94   47   48 1    
    95   47   49 1    
    96   47  170 1    
    97   48  171 1    
    98   48  172 1    
    99   48  173 1    
   100   49   50 am   BACKBONE|DICT|INTERRES
   101   49  174 1    
   102   50   51 2    
   103   50   52 1    
   104   52   53 1    
   105   52   54 1    
   106   52  175 1    
   107   53  176 1    
   108   53  177 1    
   109   53  178 1    
   110   54   55 am   BACKBONE|DICT|INTERRES
   111   54  179 1    
   112   55   56 2    
   113   55   57 1    
   114   57   58 1    
   115   57   59 1    
   116   57  180 1    
   117   58  181 1    
   118   58  182 1    
   119   58  183 1    
   120   59   60 am   BACKBONE|DICT|INTERRES
   121   59  184 1    
   122   60   61 2    
   123   60   62 1    
   124   62   63 1    
   125   62   64 1    
   126   62  185 1    
   127   63  186 1    
   128   63  187 1    
   129   63  188 1    
   130   64   65 am   BACKBONE|DICT|INTERRES
   131   64  189 1    
   132   65   66 2    
   133   67   68 2    
   134   67   69 am   BACKBONE|DICT|INTERRES
   135   69   70 1    
   136   69  190 1    
   137   70   71 1    
   138   70   72 1    
   139   70  191 1    
   140   71  192 1    
   141   71  193 1    
   142   71  194 1    
   143   72   73 2    
   144   72   74 am   BACKBONE|DICT|INTERRES
   145   74   75 1    
   146   74  195 1    
   147   75   76 1    
   148   75   77 1    
   149   75  196 1    
   150   76  197 1    
   151   76  198 1    
   152   76  199 1    
   153   77   78 2    
   154   77   79 am   BACKBONE|DICT|INTERRES
   155   79   80 1    
   156   79  200 1    
   157   80   81 1    
   158   80   82 1    
   159   80  201 1    
   160   81  202 1    
   161   81  203 1    
   162   81  204 1    
   163   82   83 2    
   164   82   84 am   BACKBONE|DICT|INTERRES
   165   84   85 1    
   166   84  205 1    
   167   85   86 1    
   168   85   87 1    
   169   85  206 1    
   170   86  207 1    
   171   86  208 1    
   172   86  209 1    
   173   87   88 2    
   174   87   89 am   BACKBONE|DICT|INTERRES
   175   89   90 1    
   176   89  210 1    
   177   90   91 1    
   178   90   92 1    
   179   90  211 1    
   180   91  212 1    
   181   91  213 1    
   182   91  214 1    
   183   92   93 2    
   184   92   94 am   BACKBONE|DICT|INTERRES
   185   94   95 1    
   186   94  215 1    
   187   95   96 1    
   188   95   97 1    
   189   95  216 1    
   190   96  217 1    
   191   96  218 1    
   192   96  219 1    
   193   97   98 2    
   194   97   99 am   BACKBONE|DICT|INTERRES
   195   99  100 1    
   196   99  220 1    
   197  100  101 1    
   198  100  102 1    
   199  100  221 1    
   200  101  222 1    
   201  101  223 1    
   202  101  224 1    
   203  102  103 2    
   204  102  104 am   BACKBONE|DICT|INTERRES
   205  104  105 1    
   206  104  225 1    
   207  105  106 1    
   208  105  107 1    
   209  105  226 1    
   210  106  227 1    
   211  106  228 1    
   212  106  229 1    
   213  107  108 2    
   214  107  109 am   BACKBONE|DICT|INTERRES
   215  109  110 1    
   216  109  230 1    
   217  110  111 1    
   218  110  112 1    
   219  110  231 1    
   220  111  232 1    
   221  111  233 1    
   222  111  234 1    
   223  112  113 2    
   224  112  114 am   BACKBONE|DICT|INTERRES
   225  114  115 1    
   226  114  235 1    
   227  115  116 1    
   228  115  117 1    
   229  115  236 1    
   230  116  237 1    
   231  116  238 1    
   232  116  239 1    
   233  117  118 2    
   234  117  119 am   BACKBONE|DICT|INTERRES
   235  119  120 1    
   236  119  240 1    
   237  120  121 1    
   238  120  124 1    
   239  120  241 1    
   240  121  122 am   BACKBONE|DICT|INTERRES
   241  121  123 2    
   242  122  242 1    
   243  122  243 1    
   244  124  125 1    
   245  124  244 1    
   246  124  245 1    
   247  125  126 1    
   248  126  246 1    
   249  126  247 1    
@<TRIPOS>SUBSTRUCTURE
     1 UNK         1 GROUP             0       ****    0 ROOT    
