@<TRIPOS>MOLECULE
3R540
247   249    1
SMALL
USER_CHARGES


@<TRIPOS>ATOM
      1 CA          0.6631  -10.6268  -52.0307 C.3       0 UNK        -0.1800 
      2 C           1.7801  -11.2339  -51.1936 C.2       0 UNK         0.5000 
      3 O           2.9548  -10.9981  -51.4761 O.2       0 UNK        -0.5000 
      4 N           1.4147  -12.0144  -50.1698 N.am      1 UNK        -0.5000 
      5 CA          2.3290  -12.6615  -49.2239 C.3       1 UNK         0.1400 
      6 C6          1.6541  -13.7879  -48.3970 C.3       23 UNK        -0.0398 
      7 S7          0.1018  -13.3068  -47.5606 S.3       23 UNK        -0.2404 
      8 C8         -0.5443  -14.9018  -46.9665 C.3       23 UNK        -0.0205 
      9 C9         -0.7343  -15.9108  -48.0897 C.ar      23 UNK        -0.0193 
     10 C10        -1.7388  -15.7386  -49.0466 C.ar      23 UNK        -0.1150 
     11 C11        -1.8737  -16.6473  -50.1017 C.ar      23 UNK        -0.0193 
     12 C12        -1.0113  -17.7442  -50.1814 C.ar      23 UNK        -0.1150 
     13 C13        -0.0186  -17.9402  -49.2159 C.ar      23 UNK        -0.0193 
     14 C14         0.1167  -17.0133  -48.1813 C.ar      23 UNK        -0.1150 
     15 C15         0.9378  -19.1243  -49.2928 C.3       23 UNK        -0.0205 
     16 S16         0.1048  -20.7100  -49.6151 S.3       23 UNK        -0.2404 
     17 C17        -1.0463  -20.8659  -48.2085 C.3       23 UNK        -0.0398 
     18 CA         -0.9000  -22.2439  -47.5132 C.3       11 UNK         0.1400 
     19 N           0.0320  -22.1915  -46.3840 N.am      11 UNK        -0.5000 
     20 C           0.5602  -23.2666  -45.7859 C.2       10 UNK         0.5000 
     21 O           0.3427  -24.4216  -46.1497 O.2       10 UNK        -0.5000 
     22 CA          1.4335  -23.0126  -44.5431 C.3       10 UNK         0.1400 
     23 CB          2.8497  -22.5698  -44.9402 C.3       10 UNK        -0.1800 
     24 N           0.8395  -22.0293  -43.6350 N.am      10 UNK        -0.5000 
     25 C          -0.3077  -22.2217  -42.9682 C.2       9 UNK         0.5000 
     26 O          -0.9578  -23.2656  -43.0201 O.2       9 UNK        -0.5000 
     27 CA         -0.8454  -21.0408  -42.1393 C.3       9 UNK         0.1400 
     28 CB         -0.1443  -20.9693  -40.7750 C.3       9 UNK        -0.1800 
     29 N          -0.7173  -19.7561  -42.8275 N.am      9 UNK        -0.5000 
     30 C          -1.3260  -19.4434  -43.9808 C.2       8 UNK         0.5000 
     31 O          -2.1013  -20.1923  -44.5708 O.2       8 UNK        -0.5000 
     32 CA         -0.9582  -18.0931  -44.6185 C.3       8 UNK         0.1400 
     33 CB         -1.7197  -16.9453  -43.9394 C.3       8 UNK        -0.1800 
     34 N           0.4807  -17.8334  -44.5758 N.am      8 UNK        -0.5000 
     35 C           1.4136  -18.6135  -45.1412 C.2       7 UNK         0.5000 
     36 O           1.1570  -19.6203  -45.7990 O.2       7 UNK        -0.5000 
     37 CA          2.8792  -18.2232  -44.9003 C.3       7 UNK         0.1400 
     38 CB          3.3107  -17.0951  -45.8493 C.3       7 UNK        -0.1800 
     39 N           3.0973  -17.8198  -43.5126 N.am      7 UNK        -0.5000 
     40 C           3.0809  -18.6689  -42.4753 C.2       6 UNK         0.5000 
     41 O           2.9320  -19.8862  -42.5892 O.2       6 UNK        -0.5000 
     42 CA          3.2123  -18.0431  -41.0747 C.3       6 UNK         0.1400 
     43 CB          4.6870  -17.7867  -40.7303 C.3       6 UNK        -0.1800 
     44 N           2.4574  -16.7946  -40.9441 N.am      6 UNK        -0.5000 
     45 C           1.1196  -16.7180  -40.9749 C.2       5 UNK         0.5000 
     46 O           0.3837  -17.6969  -41.0937 O.2       5 UNK        -0.5000 
     47 CA          0.4985  -15.3105  -40.8985 C.3       5 UNK         0.1400 
     48 CB          0.3160  -14.8819  -39.4351 C.3       5 UNK        -0.1800 
     49 N           1.2553  -14.2791  -41.6146 N.am      5 UNK        -0.5000 
     50 C           1.5364  -14.2987  -42.9235 C.2       4 UNK         0.5000 
     51 O           1.2386  -15.2279  -43.6758 O.2       4 UNK        -0.5000 
     52 CA          2.2489  -13.0626  -43.4909 C.3       4 UNK         0.1400 
     53 CB          3.3384  -13.4468  -44.5051 C.3       4 UNK        -0.1800 
     54 N           1.2776  -12.1987  -44.1512 N.am      4 UNK        -0.5000 
     55 C           0.4932  -11.3034  -43.5368 C.2       3 UNK         0.5000 
     56 O           0.5091  -11.1151  -42.3189 O.2       3 UNK        -0.5000 
     57 CA         -0.4657  -10.4860  -44.4360 C.3       3 UNK         0.1400 
     58 CB         -0.7833   -9.0918  -43.8559 C.3       3 UNK        -0.1800 
     59 N          -0.0210  -10.3828  -45.8344 N.am      3 UNK        -0.5000 
     60 C           1.1123   -9.8246  -46.2841 C.2       2 UNK         0.5000 
     61 O           1.9303   -9.2379  -45.5715 O.2       2 UNK        -0.5000 
     62 CA          1.4063   -9.9904  -47.7815 C.3       2 UNK         0.1400 
     63 CB          1.3391   -8.6341  -48.5019 C.3       2 UNK        -0.1800 
     64 N           2.7594  -10.5302  -47.8883 N.am      2 UNK        -0.5000 
     65 C           3.2021  -11.7066  -48.3635 C.2       1 UNK         0.5000 
     66 O           4.3638  -12.0483  -48.1468 O.2       1 UNK        -0.5000 
     67 C          -2.2648  -22.8561  -47.1224 C.2       11 UNK         0.5000 
     68 O          -2.8555  -23.5744  -47.9306 O.2       11 UNK        -0.5000 
     69 N          -2.7361  -22.6077  -45.8929 N.am      12 UNK        -0.5000 
     70 CA         -3.9283  -23.2423  -45.3282 C.3       12 UNK         0.1400 
     71 CB         -4.3357  -22.5414  -44.0241 C.3       12 UNK        -0.1800 
     72 C          -3.7314  -24.7526  -45.1066 C.2       12 UNK         0.5000 
     73 O          -4.6139  -25.5328  -45.4632 O.2       12 UNK        -0.5000 
     74 N          -2.5620  -25.1452  -44.5792 N.am      13 UNK        -0.5000 
     75 CA         -2.1541  -26.5425  -44.3983 C.3       13 UNK         0.1400 
     76 CB         -0.8603  -26.5979  -43.5723 C.3       13 UNK        -0.1800 
     77 C          -1.9893  -27.3046  -45.7291 C.2       13 UNK         0.5000 
     78 O          -2.2719  -28.5018  -45.7824 O.2       13 UNK        -0.5000 
     79 N          -1.5836  -26.5894  -46.7876 N.am      14 UNK        -0.5000 
     80 CA         -1.5121  -27.0763  -48.1684 C.3       14 UNK         0.1400 
     81 CB         -0.5990  -26.1412  -48.9761 C.3       14 UNK        -0.1800 
     82 C          -2.8903  -27.2296  -48.8536 C.2       14 UNK         0.5000 
     83 O          -2.9398  -27.7634  -49.9621 O.2       14 UNK        -0.5000 
     84 N          -3.9615  -26.7856  -48.1776 N.am      15 UNK        -0.5000 
     85 CA         -5.3805  -26.8175  -48.5386 C.3       15 UNK         0.1400 
     86 CB         -5.8496  -28.2269  -48.9481 C.3       15 UNK        -0.1800 
     87 C          -5.7626  -25.7669  -49.5945 C.2       15 UNK         0.5000 
     88 O          -5.1041  -25.6446  -50.6291 O.2       15 UNK        -0.5000 
     89 N          -6.8563  -25.0427  -49.3122 N.am      16 UNK        -0.5000 
     90 CA         -7.5147  -24.0536  -50.1756 C.3       16 UNK         0.1400 
     91 CB         -8.2202  -24.7652  -51.3495 C.3       16 UNK        -0.1800 
     92 C          -6.5769  -22.9214  -50.6444 C.2       16 UNK         0.5000 
     93 O          -6.6261  -22.5296  -51.8096 O.2       16 UNK        -0.5000 
     94 N          -5.7157  -22.4432  -49.7341 N.am      17 UNK        -0.5000 
     95 CA         -4.6471  -21.4649  -49.9718 C.3       17 UNK         0.1400 
     96 CB         -5.2254  -20.0723  -50.3008 C.3       17 UNK        -0.1800 
     97 C          -3.6366  -21.9658  -51.0269 C.2       17 UNK         0.5000 
     98 O          -3.3717  -21.2721  -52.0101 O.2       17 UNK        -0.5000 
     99 N          -3.1471  -23.1963  -50.8129 N.am      18 UNK        -0.5000 
    100 CA        -2.2928  -23.9938  -51.6990 C.3       18 UNK         0.1400 
    101 CB        -0.8512  -23.4514  -51.6974 C.3       18 UNK        -0.1800 
    102 C         -2.8883  -24.1463  -53.1135 C.2       18 UNK         0.5000 
    103 O         -2.2130  -23.8719  -54.1072 O.2       18 UNK        -0.5000 
    104 N         -4.1627  -24.5618  -53.1575 N.am      19 UNK        -0.5000 
    105 CA        -5.0110  -24.6937  -54.3461 C.3       19 UNK         0.1400 
    106 CB        -4.5240  -25.8562  -55.2360 C.3       19 UNK        -0.1800 
    107 C         -5.1660  -23.3603  -55.1106 C.2       19 UNK         0.5000 
    108 O         -4.9519  -23.3076  -56.3234 O.2       19 UNK        -0.5000 
    109 N         -5.5400  -22.3110  -54.3651 N.am      20 UNK        -0.5000 
    110 CA        -5.7681  -20.9308  -54.7938 C.3       20 UNK         0.1400 
    111 CB        -7.0243  -20.8426  -55.6848 C.3       20 UNK        -0.1800 
    112 C         -4.5229  -20.2865  -55.4339 C.2       20 UNK         0.5000 
    113 O         -4.6006  -19.7539  -56.5434 O.2       20 UNK        -0.5000 
    114 N         -3.3927  -20.3253  -54.7137 N.am      21 UNK        -0.5000 
    115 CA        -2.0981  -19.7890  -55.1510 C.3       21 UNK         0.1400 
    116 CB        -1.0237  -20.1488  -54.1149 C.3       21 UNK        -0.1800 
    117 C         -2.0988  -18.2710  -55.4269 C.2       21 UNK         0.5000 
    118 O         -1.3205  -17.8091  -56.2626 O.2       21 UNK        -0.5000 
    119 N         -2.9872  -17.5350  -54.7481 N.am      22 UNK        -0.5000 
    120 CA        -3.2585  -16.1079  -54.9885 C.3       22 UNK         0.1400 
    121 C         -4.2819  -15.8420  -56.1347 C.2       22 UNK         0.5000 
    122 N         -4.8358  -16.8480  -56.8022 N.am      22 UNK        -0.7600 
    123 O         -4.5732  -14.6887  -56.4402 O.2       22 UNK        -0.5000 
    124 C124       -3.6646  -15.3743  -53.6834 C.3       23 UNK        -0.0398 
    125 S125       -2.3022  -15.3285  -52.4712 S.3       23 UNK        -0.2404 
    126 C126       -2.9302  -16.4335  -51.1722 C.3       23 UNK        -0.0205 
    127 H127        0.7493  -10.9550  -53.0665 H         1 UNK         0.0600 
    128 H128        0.7275   -9.5389  -52.0097 H         1 UNK         0.0600 
    129 H129       -0.3221  -10.9158  -51.6634 H         1 UNK         0.0600 
    130 H130        0.4333  -12.1815  -49.9984 H         1 UNK         0.3000 
    131 H131        3.0529  -13.1785  -49.8584 H         1 UNK         0.0600 
    132 H132        1.4249  -14.6073  -49.0786 H         1 UNK         0.0800 
    133 H133        2.3448  -14.2076  -47.6646 H         1 UNK         0.0800 
    134 H134        0.1301  -15.2925  -46.2030 H         1 UNK         0.0800 
    135 H135       -1.5017  -14.7314  -46.4730 H         1 UNK         0.0800 
    136 H136       -2.3941  -14.8809  -48.9872 H         1 UNK         0.1150 
    137 H137       -1.1090  -18.4434  -50.9999 H         1 UNK         0.1150 
    138 H138        0.8992  -17.1402  -47.4511 H         1 UNK         0.1150 
    139 H139        1.6548  -18.9386  -50.0931 H         1 UNK         0.0800 
    140 H140        1.5197  -19.2186  -48.3757 H         1 UNK         0.0800 
    141 H141       -0.9004  -20.0504  -47.4988 H         1 UNK         0.0800 
    142 H142       -2.0425  -20.7128  -48.6181 H         1 UNK         0.0800 
    143 H143       -0.4767  -22.9468  -48.2332 H         1 UNK         0.0600 
    144 H144        0.3042  -21.2675  -46.0559 H         1 UNK         0.3000 
    145 H145        1.5181  -23.9565  -44.0007 H         1 UNK         0.0600 
    146 H146        3.4814  -22.4363  -44.0618 H         1 UNK         0.0600 
    147 H147        3.3268  -23.3179  -45.5744 H         1 UNK         0.0600 
    148 H148        2.8435  -21.6302  -45.4920 H         1 UNK         0.0600 
    149 H149        1.3285  -21.1489  -43.5282 H         1 UNK         0.3000 
    150 H150       -1.9084  -21.2170  -41.9638 H         1 UNK         0.0600 
    151 H151       -0.5862  -20.1965  -40.1459 H         1 UNK         0.0600 
    152 H152       -0.2333  -21.9152  -40.2391 H         1 UNK         0.0600 
    153 H153        0.9183  -20.7479  -40.8786 H         1 UNK         0.0600 
    154 H154       -0.1345  -19.0562  -42.3769 H         1 UNK         0.3000 
    155 H155       -1.2544  -18.1247  -45.6690 H         1 UNK         0.0600 
    156 H156       -1.5226  -16.9091  -42.8687 H         1 UNK         0.0600 
    157 H157       -2.7958  -17.0657  -44.0685 H         1 UNK         0.0600 
    158 H158       -1.4469  -15.9783  -44.3594 H         1 UNK         0.0600 
    159 H159        0.7781  -16.9900  -44.0913 H         1 UNK         0.3000 
    160 H160        3.5017  -19.0967  -45.1061 H         1 UNK         0.0600 
    161 H161        2.6661  -16.2217  -45.7584 H         1 UNK         0.0600 
    162 H162        3.2678  -17.4258  -46.8876 H         1 UNK         0.0600 
    163 H163        4.3354  -16.7800  -45.6520 H         1 UNK         0.0600 
    164 H164        3.1616  -16.8294  -43.3303 H         1 UNK         0.3000 
    165 H165        2.8130  -18.7589  -40.3529 H         1 UNK         0.0600 
    166 H166        4.7949  -17.4168  -39.7105 H         1 UNK         0.0600 
    167 H167        5.2700  -18.7056  -40.8048 H         1 UNK         0.0600 
    168 H168        5.1385  -17.0559  -41.4025 H         1 UNK         0.0600 
    169 H169        2.9885  -15.9423  -40.8432 H         1 UNK         0.3000 
    170 H170       -0.4897  -15.3644  -41.3586 H         1 UNK         0.0600 
    171 H171       -0.2648  -15.6208  -38.8810 H         1 UNK         0.0600 
    172 H172        1.2738  -14.7677  -38.9260 H         1 UNK         0.0600 
    173 H173       -0.2171  -13.9335  -39.3653 H         1 UNK         0.0600 
    174 H174        1.5033  -13.4568  -41.0825 H         1 UNK         0.3000 
    175 H175        2.7283  -12.5197  -42.6735 H         1 UNK         0.0600 
    176 H176        2.9168  -13.9239  -45.3887 H         1 UNK         0.0600 
    177 H177        3.8914  -12.5681  -44.8379 H         1 UNK         0.0600 
    178 H178        4.0583  -14.1391  -44.0667 H         1 UNK         0.0600 
    179 H179        1.1653  -12.3279  -45.1456 H         1 UNK         0.3000 
    180 H180       -1.3994  -11.0496  -44.4591 H         1 UNK         0.0600 
    181 H181        0.1171   -8.4906  -43.7273 H         1 UNK         0.0600 
    182 H182       -1.2622   -9.1735  -42.8794 H         1 UNK         0.0600 
    183 H183       -1.4652   -8.5411  -44.5039 H         1 UNK         0.0600 
    184 H184       -0.6143  -10.8557  -46.5029 H         1 UNK         0.3000 
    185 H185        0.6580  -10.6470  -48.2149 H         1 UNK         0.0600 
    186 H186        0.3375   -8.2075  -48.4351 H         1 UNK         0.0600 
    187 H187        2.0338   -7.9116  -48.0714 H         1 UNK         0.0600 
    188 H188        1.5804   -8.7339  -49.5596 H         1 UNK         0.0600 
    189 H189        3.4214   -9.9954  -47.3438 H         1 UNK         0.3000 
    190 H190       -2.2582  -21.9301  -45.3048 H         1 UNK         0.3000 
    191 H191       -4.7444  -23.1166  -46.0428 H         1 UNK         0.0600 
    192 H192       -4.5481  -21.4859  -44.1944 H         1 UNK         0.0600 
    193 H193       -5.2369  -22.9906  -43.6052 H         1 UNK         0.0600 
    194 H194       -3.5548  -22.6074  -43.2672 H         1 UNK         0.0600 
    195 H195       -1.9064  -24.4371  -44.2608 H         1 UNK         0.3000 
    196 H196       -2.9393  -27.0446  -43.8294 H         1 UNK         0.0600 
    197 H197       -0.5549  -27.6295  -43.3934 H         1 UNK         0.0600 
    198 H198       -0.9936  -26.1246  -42.5994 H         1 UNK         0.0600 
    199 H199       -0.0364  -26.0948  -44.0781 H         1 UNK         0.0600 
    200 H200       -1.2891  -25.6319  -46.6309 H         1 UNK         0.3000 
    201 H201       -1.0507  -28.0657  -48.1547 H         1 UNK         0.0600 
    202 H202        0.3905  -26.0661  -48.5248 H         1 UNK         0.0600 
    203 H203       -1.0154  -25.1376  -49.0385 H         1 UNK         0.0600 
    204 H204       -0.4643  -26.5047  -49.9955 H         1 UNK         0.0600 
    205 H205       -3.7801  -26.3409  -47.2862 H         1 UNK         0.3000 
    206 H206       -5.9062  -26.5661  -47.6165 H         1 UNK         0.0600 
    207 H207       -5.5689  -28.9701  -48.2017 H         1 UNK         0.0600 
    208 H208       -6.9352  -28.2583  -49.0471 H         1 UNK         0.0600 
    209 H209       -5.4318  -28.5357  -49.9066 H         1 UNK         0.0600 
    210 H210       -7.3198  -25.2120  -48.4301 H         1 UNK         0.3000 
    211 H211       -8.2851  -23.5746  -49.5697 H         1 UNK         0.0600 
    212 H212       -7.5065  -25.2498  -52.0160 H         1 UNK         0.0600 
    213 H213       -8.8008  -24.0606  -51.9463 H         1 UNK         0.0600 
    214 H214       -8.9108  -25.5276  -50.9894 H         1 UNK         0.0600 
    215 H215       -5.7345  -22.8558  -48.8125 H         1 UNK         0.3000 
    216 H216       -4.1125  -21.3768  -49.0284 H         1 UNK         0.0600 
    217 H217       -5.7535  -20.0627  -51.2545 H         1 UNK         0.0600 
    218 H218       -4.4303  -19.3282  -50.3612 H         1 UNK         0.0600 
    219 H219       -5.9207  -19.7421  -49.5293 H         1 UNK         0.0600 
    220 H220       -3.4231  -23.6617  -49.9556 H         1 UNK         0.3000 
    221 H221       -2.2662  -24.9992  -51.2768 H         1 UNK         0.0600 
    222 H222       -0.8078  -22.4213  -52.0483 H         1 UNK         0.0600 
    223 H223       -0.4237  -23.4792  -50.6964 H         1 UNK         0.0600 
    224 H224       -0.2031  -24.0485  -52.3395 H         1 UNK         0.0600 
    225 H225       -4.6050  -24.7951  -52.2708 H         1 UNK         0.3000 
    226 H226       -6.0059  -24.9545  -53.9832 H         1 UNK         0.0600 
    227 H227       -4.4585  -26.7847  -54.6689 H         1 UNK         0.0600 
    228 H228       -5.2139  -26.0290  -56.0627 H         1 UNK         0.0600 
    229 H229       -3.5424  -25.6560  -55.6663 H         1 UNK         0.0600 
    230 H230       -5.7237  -22.4739  -53.3762 H         1 UNK         0.3000 
    231 H231       -5.9718  -20.3629  -53.8848 H         1 UNK         0.0600 
    232 H232       -6.8914  -21.3728  -56.6284 H         1 UNK         0.0600 
    233 H233       -7.2617  -19.8051  -55.9231 H         1 UNK         0.0600 
    234 H234       -7.8934  -21.2663  -55.1815 H         1 UNK         0.0600 
    235 H235       -3.4081  -20.7685  -53.7960 H         1 UNK         0.3000 
    236 H236       -1.8414  -20.2851  -56.0891 H         1 UNK         0.0600 
    237 H237       -0.9159  -21.2297  -54.0321 H         1 UNK         0.0600 
    238 H238       -0.0501  -19.7474  -54.3986 H         1 UNK         0.0600 
    239 H239       -1.2680  -19.7568  -53.1270 H         1 UNK         0.0600 
    240 H240       -3.5897  -18.0039  -54.0894 H         1 UNK         0.3000 
    241 H241       -2.3332  -15.6433  -55.3347 H         1 UNK         0.0600 
    242 H242       -5.4873  -16.6405  -57.5422 H         1 UNK         0.3800 
    243 H243       -4.6038  -17.8170  -56.6074 H         1 UNK         0.3800 
    244 H244       -3.9324  -14.3367  -53.8903 H         1 UNK         0.0800 
    245 H245       -4.5515  -15.8318  -53.2425 H         1 UNK         0.0800 
    246 H246       -3.2180  -17.3895  -51.6125 H         1 UNK         0.0800 
    247 H247       -3.8319  -16.0068  -50.7302 H         1 UNK         0.0800 
@<TRIPOS>BOND
     1    1    2 1    
     2    1  127 1    
     3    1  128 1    
     4    1  129 1    
     5    2    3 2    
     6    2    4 am   BACKBONE|DICT|INTERRES
     7    4    5 1    
     8    4  130 1    
     9    5    6 1    
    10    5   65 1    
    11    5  131 1    
    12    6    7 1    
    13    6  132 1    
    14    6  133 1    
    15    7    8 1    
    16    8    9 1    
    17    8  134 1    
    18    8  135 1    
    19    9   10 ar   
    20    9   14 ar   
    21   10   11 ar   
    22   10  136 1    
    23   11   12 ar   
    24   11  126 1    
    25   12   13 ar   
    26   12  137 1    
    27   13   14 ar   
    28   13   15 1    
    29   14  138 1    
    30   15   16 1    
    31   15  139 1    
    32   15  140 1    
    33   16   17 1    
    34   17   18 1    
    35   17  141 1    
    36   17  142 1    
    37   18   19 1    
    38   18   67 1    
    39   18  143 1    
    40   19   20 am   BACKBONE|DICT|INTERRES
    41   19  144 1    
    42   20   21 2    
    43   20   22 1    
    44   22   23 1    
    45   22   24 1    
    46   22  145 1    
    47   23  146 1    
    48   23  147 1    
    49   23  148 1    
    50   24   25 am   BACKBONE|DICT|INTERRES
    51   24  149 1    
    52   25   26 2    
    53   25   27 1    
    54   27   28 1    
    55   27   29 1    
    56   27  150 1    
    57   28  151 1    
    58   28  152 1    
    59   28  153 1    
    60   29   30 am   BACKBONE|DICT|INTERRES
    61   29  154 1    
    62   30   31 2    
    63   30   32 1    
    64   32   33 1    
    65   32   34 1    
    66   32  155 1    
    67   33  156 1    
    68   33  157 1    
    69   33  158 1    
    70   34   35 am   BACKBONE|DICT|INTERRES
    71   34  159 1    
    72   35   36 2    
    73   35   37 1    
    74   37   38 1    
    75   37   39 1    
    76   37  160 1    
    77   38  161 1    
    78   38  162 1    
    79   38  163 1    
    80   39   40 am   BACKBONE|DICT|INTERRES
    81   39  164 1    
    82   40   41 2    
    83   40   42 1    
    84   42   43 1    
    85   42   44 1    
    86   42  165 1    
    87   43  166 1    
    88   43  167 1    
    89   43  168 1    
    90   44   45 am   BACKBONE|DICT|INTERRES
    91   44  169 1    
    92   45   46 2    
    93   45   47 1    
    94   47   48 1    
    95   47   49 1    
    96   47  170 1    
    97   48  171 1    
    98   48  172 1    
    99   48  173 1    
   100   49   50 am   BACKBONE|DICT|INTERRES
   101   49  174 1    
   102   50   51 2    
   103   50   52 1    
   104   52   53 1    
   105   52   54 1    
   106   52  175 1    
   107   53  176 1    
   108   53  177 1    
   109   53  178 1    
   110   54   55 am   BACKBONE|DICT|INTERRES
   111   54  179 1    
   112   55   56 2    
   113   55   57 1    
   114   57   58 1    
   115   57   59 1    
   116   57  180 1    
   117   58  181 1    
   118   58  182 1    
   119   58  183 1    
   120   59   60 am   BACKBONE|DICT|INTERRES
   121   59  184 1    
   122   60   61 2    
   123   60   62 1    
   124   62   63 1    
   125   62   64 1    
   126   62  185 1    
   127   63  186 1    
   128   63  187 1    
   129   63  188 1    
   130   64   65 am   BACKBONE|DICT|INTERRES
   131   64  189 1    
   132   65   66 2    
   133   67   68 2    
   134   67   69 am   BACKBONE|DICT|INTERRES
   135   69   70 1    
   136   69  190 1    
   137   70   71 1    
   138   70   72 1    
   139   70  191 1    
   140   71  192 1    
   141   71  193 1    
   142   71  194 1    
   143   72   73 2    
   144   72   74 am   BACKBONE|DICT|INTERRES
   145   74   75 1    
   146   74  195 1    
   147   75   76 1    
   148   75   77 1    
   149   75  196 1    
   150   76  197 1    
   151   76  198 1    
   152   76  199 1    
   153   77   78 2    
   154   77   79 am   BACKBONE|DICT|INTERRES
   155   79   80 1    
   156   79  200 1    
   157   80   81 1    
   158   80   82 1    
   159   80  201 1    
   160   81  202 1    
   161   81  203 1    
   162   81  204 1    
   163   82   83 2    
   164   82   84 am   BACKBONE|DICT|INTERRES
   165   84   85 1    
   166   84  205 1    
   167   85   86 1    
   168   85   87 1    
   169   85  206 1    
   170   86  207 1    
   171   86  208 1    
   172   86  209 1    
   173   87   88 2    
   174   87   89 am   BACKBONE|DICT|INTERRES
   175   89   90 1    
   176   89  210 1    
   177   90   91 1    
   178   90   92 1    
   179   90  211 1    
   180   91  212 1    
   181   91  213 1    
   182   91  214 1    
   183   92   93 2    
   184   92   94 am   BACKBONE|DICT|INTERRES
   185   94   95 1    
   186   94  215 1    
   187   95   96 1    
   188   95   97 1    
   189   95  216 1    
   190   96  217 1    
   191   96  218 1    
   192   96  219 1    
   193   97   98 2    
   194   97   99 am   BACKBONE|DICT|INTERRES
   195   99  100 1    
   196   99  220 1    
   197  100  101 1    
   198  100  102 1    
   199  100  221 1    
   200  101  222 1    
   201  101  223 1    
   202  101  224 1    
   203  102  103 2    
   204  102  104 am   BACKBONE|DICT|INTERRES
   205  104  105 1    
   206  104  225 1    
   207  105  106 1    
   208  105  107 1    
   209  105  226 1    
   210  106  227 1    
   211  106  228 1    
   212  106  229 1    
   213  107  108 2    
   214  107  109 am   BACKBONE|DICT|INTERRES
   215  109  110 1    
   216  109  230 1    
   217  110  111 1    
   218  110  112 1    
   219  110  231 1    
   220  111  232 1    
   221  111  233 1    
   222  111  234 1    
   223  112  113 2    
   224  112  114 am   BACKBONE|DICT|INTERRES
   225  114  115 1    
   226  114  235 1    
   227  115  116 1    
   228  115  117 1    
   229  115  236 1    
   230  116  237 1    
   231  116  238 1    
   232  116  239 1    
   233  117  118 2    
   234  117  119 am   BACKBONE|DICT|INTERRES
   235  119  120 1    
   236  119  240 1    
   237  120  121 1    
   238  120  124 1    
   239  120  241 1    
   240  121  122 am   BACKBONE|DICT|INTERRES
   241  121  123 2    
   242  122  242 1    
   243  122  243 1    
   244  124  125 1    
   245  124  244 1    
   246  124  245 1    
   247  125  126 1    
   248  126  246 1    
   249  126  247 1    
@<TRIPOS>SUBSTRUCTURE
     1 UNK         1 GROUP             0       ****    0 ROOT    
