@<TRIPOS>MOLECULE
3R540
247   249    1
SMALL
USER_CHARGES


@<TRIPOS>ATOM
      1 CA          1.0463  -16.4719  -51.8721 C.3       0 UNK        -0.1800 
      2 C           1.3335  -15.9484  -50.4727 C.2       0 UNK         0.5000 
      3 O           1.3970  -16.7314  -49.5245 O.2       0 UNK        -0.5000 
      4 N           1.5364  -14.6291  -50.3404 N.am      1 UNK        -0.5000 
      5 CA          1.6902  -13.9162  -49.0628 C.3       1 UNK         0.1400 
      6 C6          1.7303  -12.3750  -49.2234 C.3       23 UNK        -0.0398 
      7 S7          0.4497  -11.6481  -50.3053 S.3       23 UNK        -0.2404 
      8 C8         -1.1150  -12.0612  -49.4586 C.3       23 UNK        -0.0205 
      9 C9         -1.6735  -13.4113  -49.8937 C.ar      23 UNK        -0.0193 
     10 C10        -1.8552  -13.6917  -51.2515 C.ar      23 UNK        -0.1150 
     11 C11        -2.3292  -14.9381  -51.6638 C.ar      23 UNK        -0.0193 
     12 C12        -2.6422  -15.9038  -50.7038 C.ar      23 UNK        -0.1150 
     13 C13        -2.4939  -15.6330  -49.3418 C.ar      23 UNK        -0.0193 
     14 C14        -2.0158  -14.3792  -48.9439 C.ar      23 UNK        -0.1150 
     15 C15        -2.8480  -16.6976  -48.3111 C.3       23 UNK        -0.0205 
     16 S16        -1.5711  -17.9933  -48.2365 S.3       23 UNK        -0.2404 
     17 C17        -1.9018  -18.7595  -46.6168 C.3       23 UNK        -0.0398 
     18 CA         -1.4860  -20.2544  -46.5641 C.3       11 UNK         0.1400 
     19 N          -0.9878  -20.6345  -45.2383 N.am      11 UNK        -0.5000 
     20 C          -0.4324  -21.8185  -44.9487 C.2       10 UNK         0.5000 
     21 O          -0.1909  -22.6809  -45.7896 O.2       10 UNK        -0.5000 
     22 CA         -0.1796  -22.1299  -43.4646 C.3       10 UNK         0.1400 
     23 CB          1.1861  -21.6024  -43.0001 C.3       10 UNK        -0.1800 
     24 N          -1.2573  -21.6179  -42.6181 N.am      10 UNK        -0.5000 
     25 C          -2.4938  -22.1390  -42.6053 C.2       9 UNK         0.5000 
     26 O          -2.8146  -23.1275  -43.2637 O.2       9 UNK        -0.5000 
     27 CA         -3.5600  -21.4222  -41.7560 C.3       9 UNK         0.1400 
     28 CB         -3.5582  -21.9703  -40.3218 C.3       9 UNK        -0.1800 
     29 N          -3.3788  -19.9717  -41.7179 N.am      9 UNK        -0.5000 
     30 C          -3.4863  -19.1534  -42.7751 C.2       8 UNK         0.5000 
     31 O          -3.8207  -19.5255  -43.8997 O.2       8 UNK        -0.5000 
     32 CA         -3.0594  -17.6890  -42.5466 C.3       8 UNK         0.1400 
     33 CB         -4.2357  -16.8530  -42.0235 C.3       8 UNK        -0.1800 
     34 N          -1.9239  -17.5758  -41.6221 N.am      8 UNK        -0.5000 
     35 C          -0.7211  -18.1148  -41.8588 C.2       7 UNK         0.5000 
     36 O          -0.4456  -18.7066  -42.9036 O.2       7 UNK        -0.5000 
     37 CA          0.2994  -18.0803  -40.7164 C.3       7 UNK         0.1400 
     38 CB          0.0741  -19.2938  -39.7902 C.3       7 UNK        -0.1800 
     39 N           1.6467  -18.0955  -41.2809 N.am      7 UNK        -0.5000 
     40 C           2.7836  -17.9131  -40.5963 C.2       6 UNK         0.5000 
     41 O           2.8382  -17.7701  -39.3741 O.2       6 UNK        -0.5000 
     42 CA          4.0759  -17.8156  -41.4238 C.3       6 UNK         0.1400 
     43 CB          4.4464  -19.1627  -42.0663 C.3       6 UNK        -0.1800 
     44 N           3.9345  -16.7803  -42.4466 N.am      6 UNK        -0.5000 
     45 C           4.0686  -15.4675  -42.1985 C.2       5 UNK         0.5000 
     46 O           4.4811  -15.0162  -41.1291 O.2       5 UNK        -0.5000 
     47 CA          3.6578  -14.4810  -43.3109 C.3       5 UNK         0.1400 
     48 CB          4.8834  -14.0424  -44.1263 C.3       5 UNK        -0.1800 
     49 N           2.6449  -15.0143  -44.2195 N.am      5 UNK        -0.5000 
     50 C           1.3946  -15.3530  -43.8780 C.2       4 UNK         0.5000 
     51 O           0.9131  -15.1667  -42.7605 O.2       4 UNK        -0.5000 
     52 CA          0.5531  -16.0550  -44.9591 C.3       4 UNK         0.1400 
     53 CB         -0.2995  -15.0389  -45.7227 C.3       4 UNK        -0.1800 
     54 N           1.3459  -16.8452  -45.9080 N.am      4 UNK        -0.5000 
     55 C           2.1038  -17.9015  -45.5762 C.2       3 UNK         0.5000 
     56 O           2.2176  -18.3218  -44.4258 O.2       3 UNK        -0.5000 
     57 CA          2.9280  -18.5466  -46.7031 C.3       3 UNK         0.1400 
     58 CB          2.0794  -19.5183  -47.5345 C.3       3 UNK        -0.1800 
     59 N           3.5128  -17.5264  -47.5733 N.am      3 UNK        -0.5000 
     60 C           4.6205  -16.8354  -47.2627 C.2       2 UNK         0.5000 
     61 O           5.3062  -17.0636  -46.2662 O.2       2 UNK        -0.5000 
     62 CA          5.0231  -15.6766  -48.1982 C.3       2 UNK         0.1400 
     63 CB          6.0065  -16.1674  -49.2711 C.3       2 UNK        -0.1800 
     64 N           3.8830  -15.0340  -48.8528 N.am      2 UNK        -0.5000 
     65 C           2.8963  -14.3859  -48.2178 C.2       1 UNK         0.5000 
     66 O           2.8960  -14.1826  -47.0048 O.2       1 UNK        -0.5000 
     67 C          -2.6261  -21.1877  -47.0276 C.2       11 UNK         0.5000 
     68 O          -2.5674  -21.7328  -48.1315 O.2       11 UNK        -0.5000 
     69 N          -3.6255  -21.3640  -46.1528 N.am      12 UNK        -0.5000 
     70 CA         -4.8529  -22.1071  -46.4209 C.3       12 UNK         0.1400 
     71 CB         -5.8893  -21.7713  -45.3382 C.3       12 UNK        -0.1800 
     72 C          -4.6769  -23.6314  -46.5354 C.2       12 UNK         0.5000 
     73 O          -5.3027  -24.2290  -47.4116 O.2       12 UNK        -0.5000 
     74 N          -3.8867  -24.2395  -45.6394 N.am      13 UNK        -0.5000 
     75 CA         -3.8303  -25.6946  -45.4756 C.3       13 UNK         0.1400 
     76 CB         -4.2516  -26.0611  -44.0429 C.3       13 UNK        -0.1800 
     77 C          -2.4555  -26.2982  -45.7956 C.2       13 UNK         0.5000 
     78 O          -2.4120  -27.3543  -46.4279 O.2       13 UNK        -0.5000 
     79 N          -1.3629  -25.6676  -45.3384 N.am      14 UNK        -0.5000 
     80 CA         -0.0109  -26.2208  -45.4901 C.3       14 UNK         0.1400 
     81 CB          0.9496  -25.6188  -44.4518 C.3       14 UNK        -0.1800 
     82 C           0.5213  -26.0440  -46.9213 C.2       14 UNK         0.5000 
     83 O           0.9391  -27.0222  -47.5425 O.2       14 UNK        -0.5000 
     84 N           0.4713  -24.8042  -47.4232 N.am      15 UNK        -0.5000 
     85 CA          0.7753  -24.4595  -48.8080 C.3       15 UNK         0.1400 
     86 CB          1.0747  -22.9550  -48.9156 C.3       15 UNK        -0.1800 
     87 C          -0.3883  -24.8624  -49.7253 C.2       15 UNK         0.5000 
     88 O          -0.1681  -25.5641  -50.7131 O.2       15 UNK        -0.5000 
     89 N          -1.6021  -24.4163  -49.3646 N.am      16 UNK        -0.5000 
     90 CA         -2.9083  -24.6528  -49.9936 C.3       16 UNK         0.1400 
     91 CB         -3.2824  -26.1458  -49.9779 C.3       16 UNK        -0.1800 
     92 C          -3.0574  -24.0474  -51.4001 C.2       16 UNK         0.5000 
     93 O          -4.0117  -23.3108  -51.6447 O.2       16 UNK        -0.5000 
     94 N          -2.0918  -24.3241  -52.2843 N.am      17 UNK        -0.5000 
     95 CA         -1.9796  -23.7790  -53.6380 C.3       17 UNK         0.1400 
     96 CB         -0.8424  -24.5039  -54.3726 C.3       17 UNK        -0.1800 
     97 C          -1.7531  -22.2551  -53.6602 C.2       17 UNK         0.5000 
     98 O          -2.0891  -21.6088  -54.6517 O.2       17 UNK        -0.5000 
     99 N          -1.2141  -21.7089  -52.5605 N.am      18 UNK        -0.5000 
    100 CA        -1.0675  -20.2760  -52.3177 C.3       18 UNK         0.1400 
    101 CB        -0.2511  -20.0628  -51.0317 C.3       18 UNK        -0.1800 
    102 C         -2.4319  -19.5690  -52.2307 C.2       18 UNK         0.5000 
    103 O         -2.6527  -18.5863  -52.9329 O.2       18 UNK        -0.5000 
    104 N         -3.3319  -20.1096  -51.3997 N.am      19 UNK        -0.5000 
    105 CA        -4.6645  -19.5637  -51.1358 C.3       19 UNK         0.1400 
    106 CB        -5.0962  -20.0144  -49.7323 C.3       19 UNK        -0.1800 
    107 C         -5.7277  -19.9556  -52.1820 C.2       19 UNK         0.5000 
    108 O         -6.8660  -19.4952  -52.0748 O.2       19 UNK        -0.5000 
    109 N         -5.3706  -20.8074  -53.1523 N.am      20 UNK        -0.5000 
    110 CA        -6.2555  -21.3761  -54.1711 C.3       20 UNK         0.1400 
    111 CB        -5.5756  -22.6125  -54.7857 C.3       20 UNK        -0.1800 
    112 C         -6.7010  -20.3553  -55.2421 C.2       20 UNK         0.5000 
    113 O         -6.3074  -20.4666  -56.4047 O.2       20 UNK        -0.5000 
    114 N         -7.5351  -19.3932  -54.8235 N.am      21 UNK        -0.5000 
    115 CA        -8.2189  -18.3783  -55.6336 C.3       21 UNK         0.1400 
    116 CB        -9.2778  -19.0399  -56.5408 C.3       21 UNK        -0.1800 
    117 C         -7.2493  -17.4602  -56.4067 C.2       21 UNK         0.5000 
    118 O         -7.4257  -17.2328  -57.6055 O.2       21 UNK        -0.5000 
    119 N         -6.2335  -16.9529  -55.6983 N.am      22 UNK        -0.5000 
    120 CA        -5.1989  -16.0545  -56.2372 C.3       22 UNK         0.1400 
    121 C         -5.6659  -14.6041  -56.5690 C.2       22 UNK         0.5000 
    122 N         -6.8562  -14.1754  -56.1663 N.am      22 UNK        -0.7600 
    123 O         -4.9375  -13.8582  -57.2182 O.2       22 UNK        -0.5000 
    124 C124       -3.9244  -16.0685  -55.3570 C.3       23 UNK        -0.0398 
    125 S125       -4.1906  -15.4879  -53.6458 S.3       23 UNK        -0.2404 
    126 C126       -2.4585  -15.2557  -53.1444 C.3       23 UNK        -0.0205 
    127 H127        0.0412  -16.8905  -51.9121 H         1 UNK         0.0600 
    128 H128        1.7551  -17.2574  -52.1335 H         1 UNK         0.0600 
    129 H129        1.1151  -15.6835  -52.6217 H         1 UNK         0.0600 
    130 H130        1.4695  -14.0355  -51.1548 H         1 UNK         0.3000 
    131 H131        0.8036  -14.1604  -48.4776 H         1 UNK         0.0600 
    132 H132        1.6548  -11.8943  -48.2461 H         1 UNK         0.0800 
    133 H133        2.6948  -12.0680  -49.6322 H         1 UNK         0.0800 
    134 H134       -0.9677  -12.0218  -48.3782 H         1 UNK         0.0800 
    135 H135       -1.8523  -11.2936  -49.6967 H         1 UNK         0.0800 
    136 H136       -1.6025  -12.9432  -51.9892 H         1 UNK         0.1150 
    137 H137       -2.9966  -16.8723  -51.0191 H         1 UNK         0.1150 
    138 H138       -1.9054  -14.1525  -47.8947 H         1 UNK         0.1150 
    139 H139       -2.9735  -16.2438  -47.3273 H         1 UNK         0.0800 
    140 H140       -3.8066  -17.1520  -48.5649 H         1 UNK         0.0800 
    141 H141       -1.3296  -18.1880  -45.8867 H         1 UNK         0.0800 
    142 H142       -2.9486  -18.6174  -46.3421 H         1 UNK         0.0800 
    143 H143       -0.6569  -20.4069  -47.2561 H         1 UNK         0.0600 
    144 H144       -1.1129  -19.9691  -44.4843 H         1 UNK         0.3000 
    145 H145       -0.1662  -23.2141  -43.3488 H         1 UNK         0.0600 
    146 H146        1.3621  -21.8269  -41.9484 H         1 UNK         0.0600 
    147 H147        1.9914  -22.0675  -43.5698 H         1 UNK         0.0600 
    148 H148        1.2811  -20.5269  -43.1354 H         1 UNK         0.0600 
    149 H149       -1.0760  -20.7574  -42.1232 H         1 UNK         0.3000 
    150 H150       -4.5351  -21.6296  -42.2004 H         1 UNK         0.0600 
    151 H151       -3.7131  -23.0502  -40.3170 H         1 UNK         0.0600 
    152 H152       -4.3578  -21.5262  -39.7287 H         1 UNK         0.0600 
    153 H153       -2.6129  -21.7718  -39.8148 H         1 UNK         0.0600 
    154 H154       -3.1025  -19.5737  -40.8330 H         1 UNK         0.3000 
    155 H155       -2.7507  -17.2806  -43.5115 H         1 UNK         0.0600 
    156 H156       -3.9621  -15.8016  -41.9327 H         1 UNK         0.0600 
    157 H157       -4.5742  -17.1983  -41.0459 H         1 UNK         0.0600 
    158 H158       -5.0863  -16.9085  -42.7043 H         1 UNK         0.0600 
    159 H159       -2.0953  -17.1057  -40.7447 H         1 UNK         0.3000 
    160 H160        0.1657  -17.1532  -40.1556 H         1 UNK         0.0600 
    161 H161        0.2829  -20.2337  -40.3017 H         1 UNK         0.0600 
    162 H162       -0.9561  -19.3346  -39.4345 H         1 UNK         0.0600 
    163 H163        0.7089  -19.2504  -38.9058 H         1 UNK         0.0600 
    164 H164        1.6781  -18.2009  -42.2915 H         1 UNK         0.3000 
    165 H165        4.8912  -17.5411  -40.7508 H         1 UNK         0.0600 
    166 H166        3.6541  -19.5520  -42.7041 H         1 UNK         0.0600 
    167 H167        5.3491  -19.0753  -42.6711 H         1 UNK         0.0600 
    168 H168        4.6397  -19.9137  -41.2995 H         1 UNK         0.0600 
    169 H169        3.5462  -17.0757  -43.3344 H         1 UNK         0.3000 
    170 H170        3.2357  -13.5979  -42.8270 H         1 UNK         0.0600 
    171 H171        5.6413  -13.5945  -43.4824 H         1 UNK         0.0600 
    172 H172        5.3461  -14.8850  -44.6403 H         1 UNK         0.0600 
    173 H173        4.6138  -13.2989  -44.8767 H         1 UNK         0.0600 
    174 H174        2.9122  -15.1069  -45.1934 H         1 UNK         0.3000 
    175 H175       -0.1267  -16.7379  -44.4534 H         1 UNK         0.0600 
    176 H176       -1.0131  -14.5507  -45.0580 H         1 UNK         0.0600 
    177 H177        0.3081  -14.2592  -46.1805 H         1 UNK         0.0600 
    178 H178       -0.8662  -15.5362  -46.5053 H         1 UNK         0.0600 
    179 H179        1.3154  -16.5626  -46.8773 H         1 UNK         0.3000 
    180 H180        3.7310  -19.1244  -46.2402 H         1 UNK         0.0600 
    181 H181        1.2419  -19.0150  -48.0170 H         1 UNK         0.0600 
    182 H182        1.6766  -20.3127  -46.9055 H         1 UNK         0.0600 
    183 H183        2.6744  -19.9936  -48.3142 H         1 UNK         0.0600 
    184 H184        2.9702  -17.2611  -48.3899 H         1 UNK         0.3000 
    185 H185        5.5268  -14.9229  -47.5892 H         1 UNK         0.0600 
    186 H186        6.3617  -15.3422  -49.8885 H         1 UNK         0.0600 
    187 H187        6.8824  -16.6310  -48.8151 H         1 UNK         0.0600 
    188 H188        5.5480  -16.9072  -49.9285 H         1 UNK         0.0600 
    189 H189        3.7954  -15.1683  -49.8495 H         1 UNK         0.3000 
    190 H190       -3.5954  -20.8526  -45.2750 H         1 UNK         0.3000 
    191 H191       -5.2487  -21.7549  -47.3745 H         1 UNK         0.0600 
    192 H192       -6.8362  -22.2769  -45.5316 H         1 UNK         0.0600 
    193 H193       -6.0931  -20.7008  -45.3052 H         1 UNK         0.0600 
    194 H194       -5.5491  -22.0781  -44.3490 H         1 UNK         0.0600 
    195 H195       -3.4347  -23.6856  -44.9158 H         1 UNK         0.3000 
    196 H196       -4.5430  -26.1807  -46.1451 H         1 UNK         0.0600 
    197 H197       -4.2817  -27.1434  -43.9108 H         1 UNK         0.0600 
    198 H198       -5.2465  -25.6784  -43.8149 H         1 UNK         0.0600 
    199 H199       -3.5611  -25.6619  -43.2998 H         1 UNK         0.0600 
    200 H200       -1.4597  -24.7898  -44.8493 H         1 UNK         0.3000 
    201 H201       -0.0613  -27.2931  -45.2868 H         1 UNK         0.0600 
    202 H202        0.5353  -25.6755  -43.4452 H         1 UNK         0.0600 
    203 H203        1.1913  -24.5789  -44.6644 H         1 UNK         0.0600 
    204 H204        1.8927  -26.1663  -44.4443 H         1 UNK         0.0600 
    205 H205        0.1461  -24.0457  -46.8238 H         1 UNK         0.3000 
    206 H206        1.6665  -25.0066  -49.1230 H         1 UNK         0.0600 
    207 H207        1.9259  -22.6800  -48.2927 H         1 UNK         0.0600 
    208 H208        1.3195  -22.6783  -49.9415 H         1 UNK         0.0600 
    209 H209        0.2264  -22.3460  -48.6023 H         1 UNK         0.0600 
    210 H210       -1.6427  -23.7886  -48.5711 H         1 UNK         0.3000 
    211 H211       -3.6277  -24.1286  -49.3665 H         1 UNK         0.0600 
    212 H212       -2.5990  -26.7476  -50.5773 H         1 UNK         0.0600 
    213 H213       -4.2865  -26.2980  -50.3755 H         1 UNK         0.0600 
    214 H214       -3.2739  -26.5401  -48.9621 H         1 UNK         0.0600 
    215 H215       -1.3310  -24.9190  -51.9625 H         1 UNK         0.3000 
    216 H216       -2.9146  -23.9839  -54.1623 H         1 UNK         0.0600 
    217 H217        0.1165  -24.3553  -53.8743 H         1 UNK         0.0600 
    218 H218       -1.0291  -25.5765  -54.4270 H         1 UNK         0.0600 
    219 H219       -0.7423  -24.1396  -55.3959 H         1 UNK         0.0600 
    220 H220       -0.9655  -22.3262  -51.8030 H         1 UNK         0.3000 
    221 H221       -0.5144  -19.8409  -53.1527 H         1 UNK         0.0600 
    222 H222       -0.7225  -20.5327  -50.1676 H         1 UNK         0.0600 
    223 H223        0.7548  -20.4707  -51.1291 H         1 UNK         0.0600 
    224 H224       -0.1470  -19.0020  -50.8034 H         1 UNK         0.0600 
    225 H225       -3.0875  -20.9476  -50.8910 H         1 UNK         0.3000 
    226 H226       -4.6107  -18.4741  -51.1363 H         1 UNK         0.0600 
    227 H227       -5.1497  -21.1018  -49.6663 H         1 UNK         0.0600 
    228 H228       -4.3952  -19.6638  -48.9752 H         1 UNK         0.0600 
    229 H229       -6.0777  -19.6176  -49.4703 H         1 UNK         0.0600 
    230 H230       -4.4156  -21.1353  -53.1559 H         1 UNK         0.3000 
    231 H231       -7.1611  -21.7249  -53.6702 H         1 UNK         0.0600 
    232 H232       -6.2208  -23.0858  -55.5268 H         1 UNK         0.0600 
    233 H233       -5.3579  -23.3619  -54.0250 H         1 UNK         0.0600 
    234 H234       -4.6409  -22.3528  -55.2830 H         1 UNK         0.0600 
    235 H235       -7.7062  -19.3508  -53.8223 H         1 UNK         0.3000 
    236 H236       -8.7493  -17.7339  -54.9311 H         1 UNK         0.0600 
    237 H237       -9.9702  -19.6484  -55.9592 H         1 UNK         0.0600 
    238 H238       -9.8698  -18.2879  -57.0639 H         1 UNK         0.0600 
    239 H239       -8.8216  -19.6806  -57.2961 H         1 UNK         0.0600 
    240 H240       -6.1540  -17.1812  -54.7181 H         1 UNK         0.3000 
    241 H241       -4.9035  -16.4750  -57.2005 H         1 UNK         0.0600 
    242 H242       -7.4609  -14.7736  -55.6274 H         1 UNK         0.3800 
    243 H243       -7.1492  -13.2378  -56.3923 H         1 UNK         0.3800 
    244 H244       -3.5274  -17.0837  -55.3073 H         1 UNK         0.0800 
    245 H245       -3.1397  -15.4682  -55.8211 H         1 UNK         0.0800 
    246 H246       -2.0191  -14.4605  -53.7486 H         1 UNK         0.0800 
    247 H247       -1.8870  -16.1569  -53.3656 H         1 UNK         0.0800 
@<TRIPOS>BOND
     1    1    2 1    
     2    1  127 1    
     3    1  128 1    
     4    1  129 1    
     5    2    3 2    
     6    2    4 am   BACKBONE|DICT|INTERRES
     7    4    5 1    
     8    4  130 1    
     9    5    6 1    
    10    5   65 1    
    11    5  131 1    
    12    6    7 1    
    13    6  132 1    
    14    6  133 1    
    15    7    8 1    
    16    8    9 1    
    17    8  134 1    
    18    8  135 1    
    19    9   10 ar   
    20    9   14 ar   
    21   10   11 ar   
    22   10  136 1    
    23   11   12 ar   
    24   11  126 1    
    25   12   13 ar   
    26   12  137 1    
    27   13   14 ar   
    28   13   15 1    
    29   14  138 1    
    30   15   16 1    
    31   15  139 1    
    32   15  140 1    
    33   16   17 1    
    34   17   18 1    
    35   17  141 1    
    36   17  142 1    
    37   18   19 1    
    38   18   67 1    
    39   18  143 1    
    40   19   20 am   BACKBONE|DICT|INTERRES
    41   19  144 1    
    42   20   21 2    
    43   20   22 1    
    44   22   23 1    
    45   22   24 1    
    46   22  145 1    
    47   23  146 1    
    48   23  147 1    
    49   23  148 1    
    50   24   25 am   BACKBONE|DICT|INTERRES
    51   24  149 1    
    52   25   26 2    
    53   25   27 1    
    54   27   28 1    
    55   27   29 1    
    56   27  150 1    
    57   28  151 1    
    58   28  152 1    
    59   28  153 1    
    60   29   30 am   BACKBONE|DICT|INTERRES
    61   29  154 1    
    62   30   31 2    
    63   30   32 1    
    64   32   33 1    
    65   32   34 1    
    66   32  155 1    
    67   33  156 1    
    68   33  157 1    
    69   33  158 1    
    70   34   35 am   BACKBONE|DICT|INTERRES
    71   34  159 1    
    72   35   36 2    
    73   35   37 1    
    74   37   38 1    
    75   37   39 1    
    76   37  160 1    
    77   38  161 1    
    78   38  162 1    
    79   38  163 1    
    80   39   40 am   BACKBONE|DICT|INTERRES
    81   39  164 1    
    82   40   41 2    
    83   40   42 1    
    84   42   43 1    
    85   42   44 1    
    86   42  165 1    
    87   43  166 1    
    88   43  167 1    
    89   43  168 1    
    90   44   45 am   BACKBONE|DICT|INTERRES
    91   44  169 1    
    92   45   46 2    
    93   45   47 1    
    94   47   48 1    
    95   47   49 1    
    96   47  170 1    
    97   48  171 1    
    98   48  172 1    
    99   48  173 1    
   100   49   50 am   BACKBONE|DICT|INTERRES
   101   49  174 1    
   102   50   51 2    
   103   50   52 1    
   104   52   53 1    
   105   52   54 1    
   106   52  175 1    
   107   53  176 1    
   108   53  177 1    
   109   53  178 1    
   110   54   55 am   BACKBONE|DICT|INTERRES
   111   54  179 1    
   112   55   56 2    
   113   55   57 1    
   114   57   58 1    
   115   57   59 1    
   116   57  180 1    
   117   58  181 1    
   118   58  182 1    
   119   58  183 1    
   120   59   60 am   BACKBONE|DICT|INTERRES
   121   59  184 1    
   122   60   61 2    
   123   60   62 1    
   124   62   63 1    
   125   62   64 1    
   126   62  185 1    
   127   63  186 1    
   128   63  187 1    
   129   63  188 1    
   130   64   65 am   BACKBONE|DICT|INTERRES
   131   64  189 1    
   132   65   66 2    
   133   67   68 2    
   134   67   69 am   BACKBONE|DICT|INTERRES
   135   69   70 1    
   136   69  190 1    
   137   70   71 1    
   138   70   72 1    
   139   70  191 1    
   140   71  192 1    
   141   71  193 1    
   142   71  194 1    
   143   72   73 2    
   144   72   74 am   BACKBONE|DICT|INTERRES
   145   74   75 1    
   146   74  195 1    
   147   75   76 1    
   148   75   77 1    
   149   75  196 1    
   150   76  197 1    
   151   76  198 1    
   152   76  199 1    
   153   77   78 2    
   154   77   79 am   BACKBONE|DICT|INTERRES
   155   79   80 1    
   156   79  200 1    
   157   80   81 1    
   158   80   82 1    
   159   80  201 1    
   160   81  202 1    
   161   81  203 1    
   162   81  204 1    
   163   82   83 2    
   164   82   84 am   BACKBONE|DICT|INTERRES
   165   84   85 1    
   166   84  205 1    
   167   85   86 1    
   168   85   87 1    
   169   85  206 1    
   170   86  207 1    
   171   86  208 1    
   172   86  209 1    
   173   87   88 2    
   174   87   89 am   BACKBONE|DICT|INTERRES
   175   89   90 1    
   176   89  210 1    
   177   90   91 1    
   178   90   92 1    
   179   90  211 1    
   180   91  212 1    
   181   91  213 1    
   182   91  214 1    
   183   92   93 2    
   184   92   94 am   BACKBONE|DICT|INTERRES
   185   94   95 1    
   186   94  215 1    
   187   95   96 1    
   188   95   97 1    
   189   95  216 1    
   190   96  217 1    
   191   96  218 1    
   192   96  219 1    
   193   97   98 2    
   194   97   99 am   BACKBONE|DICT|INTERRES
   195   99  100 1    
   196   99  220 1    
   197  100  101 1    
   198  100  102 1    
   199  100  221 1    
   200  101  222 1    
   201  101  223 1    
   202  101  224 1    
   203  102  103 2    
   204  102  104 am   BACKBONE|DICT|INTERRES
   205  104  105 1    
   206  104  225 1    
   207  105  106 1    
   208  105  107 1    
   209  105  226 1    
   210  106  227 1    
   211  106  228 1    
   212  106  229 1    
   213  107  108 2    
   214  107  109 am   BACKBONE|DICT|INTERRES
   215  109  110 1    
   216  109  230 1    
   217  110  111 1    
   218  110  112 1    
   219  110  231 1    
   220  111  232 1    
   221  111  233 1    
   222  111  234 1    
   223  112  113 2    
   224  112  114 am   BACKBONE|DICT|INTERRES
   225  114  115 1    
   226  114  235 1    
   227  115  116 1    
   228  115  117 1    
   229  115  236 1    
   230  116  237 1    
   231  116  238 1    
   232  116  239 1    
   233  117  118 2    
   234  117  119 am   BACKBONE|DICT|INTERRES
   235  119  120 1    
   236  119  240 1    
   237  120  121 1    
   238  120  124 1    
   239  120  241 1    
   240  121  122 am   BACKBONE|DICT|INTERRES
   241  121  123 2    
   242  122  242 1    
   243  122  243 1    
   244  124  125 1    
   245  124  244 1    
   246  124  245 1    
   247  125  126 1    
   248  126  246 1    
   249  126  247 1    
@<TRIPOS>SUBSTRUCTURE
     1 UNK         1 GROUP             0       ****    0 ROOT    
