@<TRIPOS>MOLECULE
3R540
247   249    1
SMALL
USER_CHARGES


@<TRIPOS>ATOM
      1 CA         -5.4719  -17.4875  -45.5158 C.3       0 UNK        -0.1800 
      2 C          -4.5721  -16.2969  -45.8095 C.2       0 UNK         0.5000 
      3 O          -4.4469  -15.4044  -44.9733 O.2       0 UNK        -0.5000 
      4 N          -3.9306  -16.2789  -46.9853 N.am      1 UNK        -0.5000 
      5 CA         -3.0505  -15.1926  -47.4416 C.3       1 UNK         0.1400 
      6 C6         -2.7494  -15.3000  -48.9571 C.3       23 UNK        -0.0398 
      7 S7         -1.8827  -16.8338  -49.4567 S.3       23 UNK        -0.2404 
      8 C8         -0.2535  -16.1537  -49.9066 C.3       23 UNK        -0.0205 
      9 C9          0.6606  -17.2317  -50.4637 C.ar      23 UNK        -0.0193 
     10 C10         0.7353  -17.4561  -51.8406 C.ar      23 UNK        -0.1150 
     11 C11         1.5576  -18.4651  -52.3510 C.ar      23 UNK        -0.0193 
     12 C12         2.2920  -19.2678  -51.4720 C.ar      23 UNK        -0.1150 
     13 C13         2.2256  -19.0513  -50.0924 C.ar      23 UNK        -0.0193 
     14 C14         1.4290  -18.0136  -49.5996 C.ar      23 UNK        -0.1150 
     15 C15         3.0021  -19.9424  -49.1319 C.3       23 UNK        -0.0205 
     16 S16         2.0594  -21.4309  -48.6611 S.3       23 UNK        -0.2404 
     17 C17         0.6840  -20.6832  -47.7301 C.3       23 UNK        -0.0398 
     18 CA         -0.3088  -21.7183  -47.1631 C.3       11 UNK         0.1400 
     19 N           0.2912  -22.5912  -46.1535 N.am      11 UNK        -0.5000 
     20 C          -0.2444  -23.7523  -45.7512 C.2       10 UNK         0.5000 
     21 O          -1.2936  -24.2101  -46.2026 O.2       10 UNK        -0.5000 
     22 CA          0.4815  -24.4990  -44.6163 C.3       10 UNK         0.1400 
     23 CB          1.5942  -25.3917  -45.1847 C.3       10 UNK        -0.1800 
     24 N           1.0512  -23.5935  -43.6178 N.am      10 UNK        -0.5000 
     25 C           0.3383  -22.7499  -42.8582 C.2       9 UNK         0.5000 
     26 O          -0.8918  -22.7011  -42.8684 O.2       9 UNK        -0.5000 
     27 CA          1.1322  -21.7542  -41.9898 C.3       9 UNK         0.1400 
     28 CB          1.3082  -22.3041  -40.5670 C.3       9 UNK        -0.1800 
     29 N           2.4473  -21.4029  -42.5402 N.am      9 UNK        -0.5000 
     30 C           2.6444  -20.7863  -43.7135 C.2       8 UNK         0.5000 
     31 O           1.7333  -20.4926  -44.4895 O.2       8 UNK        -0.5000 
     32 CA          4.1064  -20.5250  -44.1205 C.3       8 UNK         0.1400 
     33 CB          4.5783  -21.6141  -45.0966 C.3       8 UNK        -0.1800 
     34 N           4.2897  -19.2163  -44.7505 N.am      8 UNK        -0.5000 
     35 C           4.1223  -18.0386  -44.1356 C.2       7 UNK         0.5000 
     36 O           3.8221  -17.9306  -42.9431 O.2       7 UNK        -0.5000 
     37 CA          4.3348  -16.7662  -44.9791 C.3       7 UNK         0.1400 
     38 CB          3.9416  -16.9157  -46.4652 C.3       7 UNK        -0.1800 
     39 N           3.6011  -15.6757  -44.3453 N.am      7 UNK        -0.5000 
     40 C           3.8549  -14.3683  -44.4740 C.2       6 UNK         0.5000 
     41 O           4.6606  -13.9021  -45.2802 O.2       6 UNK        -0.5000 
     42 CA          3.1144  -13.4206  -43.5085 C.3       6 UNK         0.1400 
     43 CB          1.8796  -12.7967  -44.1755 C.3       6 UNK        -0.1800 
     44 N           2.7129  -14.0906  -42.2695 N.am      6 UNK        -0.5000 
     45 C           3.5595  -14.4285  -41.2866 C.2       5 UNK         0.5000 
     46 O           4.7551  -14.1282  -41.2891 O.2       5 UNK        -0.5000 
     47 CA          2.9687  -15.2512  -40.1221 C.3       5 UNK         0.1400 
     48 CB          3.8773  -15.2767  -38.8749 C.3       5 UNK        -0.1800 
     49 N           1.6034  -14.8527  -39.7638 N.am      5 UNK        -0.5000 
     50 C           1.1865  -13.6561  -39.3177 C.2       4 UNK         0.5000 
     51 O           1.9324  -12.6947  -39.1242 O.2       4 UNK        -0.5000 
     52 CA         -0.3278  -13.5324  -39.0317 C.3       4 UNK         0.1400 
     53 CB         -0.8339  -12.0741  -39.0501 C.3       4 UNK        -0.1800 
     54 N          -1.1410  -14.3958  -39.9000 N.am      4 UNK        -0.5000 
     55 C          -1.2635  -14.3077  -41.2324 C.2       3 UNK         0.5000 
     56 O          -0.7956  -13.3930  -41.9142 O.2       3 UNK        -0.5000 
     57 CA         -2.0302  -15.4634  -41.9060 C.3       3 UNK         0.1400 
     58 CB         -3.5420  -15.1969  -41.8756 C.3       3 UNK        -0.1800 
     59 N          -1.6113  -15.7166  -43.2874 N.am      3 UNK        -0.5000 
     60 C          -0.3614  -16.0116  -43.6791 C.2       2 UNK         0.5000 
     61 O           0.5929  -16.1031  -42.9035 O.2       2 UNK        -0.5000 
     62 CA         -0.1219  -16.2754  -45.1783 C.3       2 UNK         0.1400 
     63 CB          0.4523  -17.6778  -45.3890 C.3       2 UNK        -0.1800 
     64 N          -1.3299  -16.1662  -45.9908 N.am      2 UNK        -0.5000 
     65 C          -1.7551  -15.0579  -46.6083 C.2       1 UNK         0.5000 
     66 O          -1.1793  -13.9719  -46.5423 O.2       1 UNK        -0.5000 
     67 C          -1.5620  -21.0014  -46.6266 C.2       11 UNK         0.5000 
     68 O          -2.4768  -20.7438  -47.4088 O.2       11 UNK        -0.5000 
     69 N          -1.5997  -20.7070  -45.3176 N.am      12 UNK        -0.5000 
     70 CA         -2.7691  -20.1383  -44.6439 C.3       12 UNK         0.1400 
     71 CB         -2.3852  -19.5789  -43.2632 C.3       12 UNK        -0.1800 
     72 C          -3.8985  -21.1730  -44.5168 C.2       12 UNK         0.5000 
     73 O          -5.0554  -20.8399  -44.7694 O.2       12 UNK        -0.5000 
     74 N          -3.5327  -22.4146  -44.1672 N.am      13 UNK        -0.5000 
     75 CA         -4.4399  -23.5588  -44.0797 C.3       13 UNK         0.1400 
     76 CB         -3.7005  -24.7481  -43.4477 C.3       13 UNK        -0.1800 
     77 C          -5.0409  -23.9462  -45.4441 C.2       13 UNK         0.5000 
     78 O          -6.2412  -24.2097  -45.5259 O.2       13 UNK        -0.5000 
     79 N          -4.2033  -23.9528  -46.4905 N.am      14 UNK        -0.5000 
     80 CA         -4.6097  -24.2244  -47.8703 C.3       14 UNK         0.1400 
     81 CB         -3.3618  -24.5620  -48.7018 C.3       14 UNK        -0.1800 
     82 C          -5.3712  -23.0577  -48.5276 C.2       14 UNK         0.5000 
     83 O          -6.1404  -23.2999  -49.4573 O.2       14 UNK        -0.5000 
     84 N          -5.1131  -21.8262  -48.0592 N.am      15 UNK        -0.5000 
     85 CA         -5.5000  -20.5433  -48.6566 C.3       15 UNK         0.1400 
     86 CB         -7.0281  -20.3396  -48.6193 C.3       15 UNK        -0.1800 
     87 C          -4.8920  -20.3993  -50.0651 C.2       15 UNK         0.5000 
     88 O          -5.6175  -20.2130  -51.0416 O.2       15 UNK        -0.5000 
     89 N          -3.5614  -20.5504  -50.1306 N.am      16 UNK        -0.5000 
     90 CA         -2.7593  -20.7846  -51.3366 C.3       16 UNK         0.1400 
     91 CB         -1.2702  -20.7413  -50.9664 C.3       16 UNK        -0.1800 
     92 C          -3.0514  -19.8621  -52.5355 C.2       16 UNK         0.5000 
     93 O          -3.1723  -20.3575  -53.6545 O.2       16 UNK        -0.5000 
     94 N          -3.1985  -18.5550  -52.2806 N.am      17 UNK        -0.5000 
     95 CA         -3.4907  -17.5521  -53.3083 C.3       17 UNK         0.1400 
     96 CB         -3.2244  -16.1509  -52.7388 C.3       17 UNK        -0.1800 
     97 C          -4.9222  -17.6328  -53.8797 C.2       17 UNK         0.5000 
     98 O          -5.1390  -17.1923  -55.0095 O.2       17 UNK        -0.5000 
     99 N          -5.8715  -18.1677  -53.0996 N.am      18 UNK        -0.5000 
    100 CA        -7.2633  -18.3715  -53.5093 C.3       18 UNK         0.1400 
    101 CB        -8.1781  -18.1909  -52.2874 C.3       18 UNK        -0.1800 
    102 C         -7.4747  -19.7597  -54.1414 C.2       18 UNK         0.5000 
    103 O         -8.3515  -19.9143  -54.9932 O.2       18 UNK        -0.5000 
    104 N         -6.6746  -20.7404  -53.7068 N.am      19 UNK        -0.5000 
    105 CA        -6.6392  -22.1136  -54.2025 C.3       19 UNK         0.1400 
    106 CB        -5.8418  -22.9585  -53.1916 C.3       19 UNK        -0.1800 
    107 C         -6.0348  -22.2313  -55.6189 C.2       19 UNK         0.5000 
    108 O         -5.5759  -21.2465  -56.2008 O.2       19 UNK        -0.5000 
    109 N         -6.0132  -23.4667  -56.1370 N.am      20 UNK        -0.5000 
    110 CA        -5.3990  -23.8418  -57.4168 C.3       20 UNK         0.1400 
    111 CB        -6.0000  -25.1837  -57.8682 C.3       20 UNK        -0.1800 
    112 C         -3.8542  -23.9176  -57.3732 C.2       20 UNK         0.5000 
    113 O         -3.2337  -24.2106  -58.3970 O.2       20 UNK        -0.5000 
    114 N         -3.2616  -23.6762  -56.1965 N.am      21 UNK        -0.5000 
    115 CA        -1.8224  -23.5908  -55.9545 C.3       21 UNK         0.1400 
    116 CB        -1.5935  -23.6510  -54.4324 C.3       21 UNK        -0.1800 
    117 C         -1.1850  -22.3231  -56.5684 C.2       21 UNK         0.5000 
    118 O         -1.8787  -21.4871  -57.1523 O.2       21 UNK        -0.5000 
    119 N          0.1402  -22.2081  -56.4102 N.am      22 UNK        -0.5000 
    120 CA         0.9768  -21.0662  -56.8337 C.3       22 UNK         0.1400 
    121 C          1.2334  -20.9783  -58.3698 C.2       22 UNK         0.5000 
    122 N          0.8985  -21.9911  -59.1599 N.am      22 UNK        -0.7600 
    123 O          1.7780  -19.9900  -58.8551 O.2       22 UNK        -0.5000 
    124 C124        0.5261  -19.6986  -56.2382 C.3       23 UNK        -0.0398 
    125 S125        0.2808  -19.7352  -54.4289 S.3       23 UNK        -0.2404 
    126 C126        1.6443  -18.6860  -53.8517 C.3       23 UNK        -0.0205 
    127 H127       -5.2229  -17.9168  -44.5453 H         1 UNK         0.0600 
    128 H128       -5.3714  -18.2692  -46.2674 H         1 UNK         0.0600 
    129 H129       -6.5145  -17.1713  -45.4901 H         1 UNK         0.0600 
    130 H130       -4.0554  -17.0379  -47.6394 H         1 UNK         0.3000 
    131 H131       -3.6007  -14.2606  -47.2936 H         1 UNK         0.0600 
    132 H132       -3.6884  -15.2575  -49.5100 H         1 UNK         0.0800 
    133 H133       -2.1848  -14.4276  -49.2906 H         1 UNK         0.0800 
    134 H134       -0.3795  -15.3586  -50.6432 H         1 UNK         0.0800 
    135 H135        0.2043  -15.6941  -49.0291 H         1 UNK         0.0800 
    136 H136        0.1482  -16.8516  -52.5173 H         1 UNK         0.1150 
    137 H137        2.9096  -20.0653  -51.8605 H         1 UNK         0.1150 
    138 H138        1.3794  -17.8347  -48.5373 H         1 UNK         0.1150 
    139 H139        3.9411  -20.2510  -49.5936 H         1 UNK         0.0800 
    140 H140        3.2732  -19.3876  -48.2332 H         1 UNK         0.0800 
    141 H141        0.1551  -20.0083  -48.4027 H         1 UNK         0.0800 
    142 H142        1.1014  -20.0679  -46.9346 H         1 UNK         0.0800 
    143 H143       -0.6390  -22.3490  -47.9910 H         1 UNK         0.0600 
    144 H144        1.1200  -22.2375  -45.6938 H         1 UNK         0.3000 
    145 H145       -0.2501  -25.1362  -44.1151 H         1 UNK         0.0600 
    146 H146        2.0661  -25.9824  -44.3994 H         1 UNK         0.0600 
    147 H147        1.1950  -26.0910  -45.9206 H         1 UNK         0.0600 
    148 H148        2.3706  -24.8045  -45.6770 H         1 UNK         0.0600 
    149 H149        2.0571  -23.5698  -43.5438 H         1 UNK         0.3000 
    150 H150        0.5435  -20.8361  -41.9309 H         1 UNK         0.0600 
    151 H151        1.9167  -23.2092  -40.5573 H         1 UNK         0.0600 
    152 H152        0.3434  -22.5520  -40.1220 H         1 UNK         0.0600 
    153 H153        1.7849  -21.5706  -39.9165 H         1 UNK         0.0600 
    154 H154        3.2465  -21.6275  -41.9652 H         1 UNK         0.3000 
    155 H155        4.7341  -20.5602  -43.2277 H         1 UNK         0.0600 
    156 H156        3.9948  -21.6086  -46.0187 H         1 UNK         0.0600 
    157 H157        4.4828  -22.6066  -44.6545 H         1 UNK         0.0600 
    158 H158        5.6268  -21.4788  -45.3627 H         1 UNK         0.0600 
    159 H159        4.5117  -19.2230  -45.7341 H         1 UNK         0.3000 
    160 H160        5.4002  -16.5338  -44.9255 H         1 UNK         0.0600 
    161 H161        2.9140  -17.2500  -46.5853 H         1 UNK         0.0600 
    162 H162        4.5856  -17.6330  -46.9741 H         1 UNK         0.0600 
    163 H163        4.0435  -15.9724  -47.0014 H         1 UNK         0.0600 
    164 H164        2.9625  -15.9745  -43.6166 H         1 UNK         0.3000 
    165 H165        3.8014  -12.6103  -43.2554 H         1 UNK         0.0600 
    166 H166        1.4095  -12.0628  -43.5205 H         1 UNK         0.0600 
    167 H167        2.1505  -12.2830  -45.0988 H         1 UNK         0.0600 
    168 H168        1.1286  -13.5443  -44.4246 H         1 UNK         0.0600 
    169 H169        1.7519  -14.4080  -42.2132 H         1 UNK         0.3000 
    170 H170        2.8961  -16.2750  -40.4930 H         1 UNK         0.0600 
    171 H171        4.8511  -15.7082  -39.1095 H         1 UNK         0.0600 
    172 H172        4.0508  -14.2759  -38.4785 H         1 UNK         0.0600 
    173 H173        3.4399  -15.8814  -38.0806 H         1 UNK         0.0600 
    174 H174        0.8990  -15.5612  -39.9111 H         1 UNK         0.3000 
    175 H175       -0.4685  -13.9091  -38.0176 H         1 UNK         0.0600 
    176 H176       -0.3431  -11.4821  -38.2768 H         1 UNK         0.0600 
    177 H177       -0.6377  -11.5854  -40.0046 H         1 UNK         0.0600 
    178 H178       -1.9064  -12.0260  -38.8618 H         1 UNK         0.0600 
    179 H179       -1.5852  -15.1738  -39.4315 H         1 UNK         0.3000 
    180 H180       -1.8309  -16.3767  -41.3417 H         1 UNK         0.0600 
    181 H181       -3.8041  -14.3153  -42.4620 H         1 UNK         0.0600 
    182 H182       -3.8939  -15.0298  -40.8569 H         1 UNK         0.0600 
    183 H183       -4.1000  -16.0444  -42.2744 H         1 UNK         0.0600 
    184 H184       -2.3274  -15.6164  -43.9943 H         1 UNK         0.3000 
    185 H185        0.6206  -15.5553  -45.5264 H         1 UNK         0.0600 
    186 H186        1.3744  -17.8163  -44.8284 H         1 UNK         0.0600 
    187 H187       -0.2369  -18.4508  -45.0641 H         1 UNK         0.0600 
    188 H188        0.6701  -17.8523  -46.4390 H         1 UNK         0.0600 
    189 H189       -1.8724  -17.0081  -46.1114 H         1 UNK         0.3000 
    190 H190       -0.8071  -20.9534  -44.7407 H         1 UNK         0.3000 
    191 H191       -3.1383  -19.3093  -45.2504 H         1 UNK         0.0600 
    192 H192       -1.6077  -18.8209  -43.3307 H         1 UNK         0.0600 
    193 H193       -3.2462  -19.1089  -42.7862 H         1 UNK         0.0600 
    194 H194       -2.0300  -20.3588  -42.5905 H         1 UNK         0.0600 
    195 H195       -2.5624  -22.5827  -43.9187 H         1 UNK         0.3000 
    196 H196       -5.2641  -23.2812  -43.4193 H         1 UNK         0.0600 
    197 H197       -4.3641  -25.6066  -43.3378 H         1 UNK         0.0600 
    198 H198       -3.3256  -24.4964  -42.4554 H         1 UNK         0.0600 
    199 H199       -2.8516  -25.0643  -44.0542 H         1 UNK         0.0600 
    200 H200       -3.2109  -23.8074  -46.3286 H         1 UNK         0.3000 
    201 H201       -5.2678  -25.0958  -47.8734 H         1 UNK         0.0600 
    202 H202       -3.6297  -24.8017  -49.7317 H         1 UNK         0.0600 
    203 H203       -2.8366  -25.4254  -48.2932 H         1 UNK         0.0600 
    204 H204       -2.6613  -23.7264  -48.7313 H         1 UNK         0.0600 
    205 H205       -4.4340  -21.7523  -47.3131 H         1 UNK         0.3000 
    206 H206       -5.0463  -19.7662  -48.0420 H         1 UNK         0.0600 
    207 H207       -7.4128  -20.4455  -47.6050 H         1 UNK         0.0600 
    208 H208       -7.2936  -19.3404  -48.9662 H         1 UNK         0.0600 
    209 H209       -7.5529  -21.0538  -49.2543 H         1 UNK         0.0600 
    210 H210       -3.0735  -20.6617  -49.2464 H         1 UNK         0.3000 
    211 H211       -2.9873  -21.8021  -51.6591 H         1 UNK         0.0600 
    212 H212       -0.9846  -19.7667  -50.5703 H         1 UNK         0.0600 
    213 H213       -0.6421  -20.9376  -51.8356 H         1 UNK         0.0600 
    214 H214       -1.0261  -21.4958  -50.2201 H         1 UNK         0.0600 
    215 H215       -3.0770  -18.2253  -51.3333 H         1 UNK         0.3000 
    216 H216       -2.7999  -17.7133  -54.1391 H         1 UNK         0.0600 
    217 H217       -3.4090  -15.3816  -53.4896 H         1 UNK         0.0600 
    218 H218       -2.1887  -16.0447  -52.4182 H         1 UNK         0.0600 
    219 H219       -3.8680  -15.9368  -51.8854 H         1 UNK         0.0600 
    220 H220       -5.6033  -18.5756  -52.2107 H         1 UNK         0.3000 
    221 H221       -7.5435  -17.6205  -54.2509 H         1 UNK         0.0600 
    222 H222       -7.9693  -18.9291  -51.5124 H         1 UNK         0.0600 
    223 H223       -8.0583  -17.2005  -51.8482 H         1 UNK         0.0600 
    224 H224       -9.2267  -18.2983  -52.5673 H         1 UNK         0.0600 
    225 H225       -6.0199  -20.5185  -52.9652 H         1 UNK         0.3000 
    226 H226       -7.6642  -22.4873  -54.2418 H         1 UNK         0.0600 
    227 H227       -5.8699  -24.0198  -53.4395 H         1 UNK         0.0600 
    228 H228       -4.7950  -22.6557  -53.1540 H         1 UNK         0.0600 
    229 H229       -6.2515  -22.8568  -52.1863 H         1 UNK         0.0600 
    230 H230       -6.4085  -24.2257  -55.6005 H         1 UNK         0.3000 
    231 H231       -5.6606  -23.0862  -58.1604 H         1 UNK         0.0600 
    232 H232       -5.7634  -25.9857  -57.1679 H         1 UNK         0.0600 
    233 H233       -5.6161  -25.4780  -58.8458 H         1 UNK         0.0600 
    234 H234       -7.0849  -25.1213  -57.9550 H         1 UNK         0.0600 
    235 H235       -3.8544  -23.3975  -55.4306 H         1 UNK         0.3000 
    236 H236       -1.3475  -24.4599  -56.4141 H         1 UNK         0.0600 
    237 H237       -2.0549  -24.5379  -53.9975 H         1 UNK         0.0600 
    238 H238       -0.5320  -23.6914  -54.1870 H         1 UNK         0.0600 
    239 H239       -2.0102  -22.7774  -53.9308 H         1 UNK         0.0600 
    240 H240        0.6354  -22.9451  -55.9297 H         1 UNK         0.3000 
    241 H241        1.9607  -21.2759  -56.4131 H         1 UNK         0.0600 
    242 H242        0.4520  -22.8107  -58.7807 H         1 UNK         0.3800 
    243 H243        1.0789  -21.9301  -60.1498 H         1 UNK         0.3800 
    244 H244        1.2558  -18.9242  -56.4790 H         1 UNK         0.0800 
    245 H245       -0.4083  -19.3716  -56.6957 H         1 UNK         0.0800 
    246 H246        2.5966  -19.1482  -54.1161 H         1 UNK         0.0800 
    247 H247        1.6099  -17.7241  -54.3655 H         1 UNK         0.0800 
@<TRIPOS>BOND
     1    1    2 1    
     2    1  127 1    
     3    1  128 1    
     4    1  129 1    
     5    2    3 2    
     6    2    4 am   BACKBONE|DICT|INTERRES
     7    4    5 1    
     8    4  130 1    
     9    5    6 1    
    10    5   65 1    
    11    5  131 1    
    12    6    7 1    
    13    6  132 1    
    14    6  133 1    
    15    7    8 1    
    16    8    9 1    
    17    8  134 1    
    18    8  135 1    
    19    9   10 ar   
    20    9   14 ar   
    21   10   11 ar   
    22   10  136 1    
    23   11   12 ar   
    24   11  126 1    
    25   12   13 ar   
    26   12  137 1    
    27   13   14 ar   
    28   13   15 1    
    29   14  138 1    
    30   15   16 1    
    31   15  139 1    
    32   15  140 1    
    33   16   17 1    
    34   17   18 1    
    35   17  141 1    
    36   17  142 1    
    37   18   19 1    
    38   18   67 1    
    39   18  143 1    
    40   19   20 am   BACKBONE|DICT|INTERRES
    41   19  144 1    
    42   20   21 2    
    43   20   22 1    
    44   22   23 1    
    45   22   24 1    
    46   22  145 1    
    47   23  146 1    
    48   23  147 1    
    49   23  148 1    
    50   24   25 am   BACKBONE|DICT|INTERRES
    51   24  149 1    
    52   25   26 2    
    53   25   27 1    
    54   27   28 1    
    55   27   29 1    
    56   27  150 1    
    57   28  151 1    
    58   28  152 1    
    59   28  153 1    
    60   29   30 am   BACKBONE|DICT|INTERRES
    61   29  154 1    
    62   30   31 2    
    63   30   32 1    
    64   32   33 1    
    65   32   34 1    
    66   32  155 1    
    67   33  156 1    
    68   33  157 1    
    69   33  158 1    
    70   34   35 am   BACKBONE|DICT|INTERRES
    71   34  159 1    
    72   35   36 2    
    73   35   37 1    
    74   37   38 1    
    75   37   39 1    
    76   37  160 1    
    77   38  161 1    
    78   38  162 1    
    79   38  163 1    
    80   39   40 am   BACKBONE|DICT|INTERRES
    81   39  164 1    
    82   40   41 2    
    83   40   42 1    
    84   42   43 1    
    85   42   44 1    
    86   42  165 1    
    87   43  166 1    
    88   43  167 1    
    89   43  168 1    
    90   44   45 am   BACKBONE|DICT|INTERRES
    91   44  169 1    
    92   45   46 2    
    93   45   47 1    
    94   47   48 1    
    95   47   49 1    
    96   47  170 1    
    97   48  171 1    
    98   48  172 1    
    99   48  173 1    
   100   49   50 am   BACKBONE|DICT|INTERRES
   101   49  174 1    
   102   50   51 2    
   103   50   52 1    
   104   52   53 1    
   105   52   54 1    
   106   52  175 1    
   107   53  176 1    
   108   53  177 1    
   109   53  178 1    
   110   54   55 am   BACKBONE|DICT|INTERRES
   111   54  179 1    
   112   55   56 2    
   113   55   57 1    
   114   57   58 1    
   115   57   59 1    
   116   57  180 1    
   117   58  181 1    
   118   58  182 1    
   119   58  183 1    
   120   59   60 am   BACKBONE|DICT|INTERRES
   121   59  184 1    
   122   60   61 2    
   123   60   62 1    
   124   62   63 1    
   125   62   64 1    
   126   62  185 1    
   127   63  186 1    
   128   63  187 1    
   129   63  188 1    
   130   64   65 am   BACKBONE|DICT|INTERRES
   131   64  189 1    
   132   65   66 2    
   133   67   68 2    
   134   67   69 am   BACKBONE|DICT|INTERRES
   135   69   70 1    
   136   69  190 1    
   137   70   71 1    
   138   70   72 1    
   139   70  191 1    
   140   71  192 1    
   141   71  193 1    
   142   71  194 1    
   143   72   73 2    
   144   72   74 am   BACKBONE|DICT|INTERRES
   145   74   75 1    
   146   74  195 1    
   147   75   76 1    
   148   75   77 1    
   149   75  196 1    
   150   76  197 1    
   151   76  198 1    
   152   76  199 1    
   153   77   78 2    
   154   77   79 am   BACKBONE|DICT|INTERRES
   155   79   80 1    
   156   79  200 1    
   157   80   81 1    
   158   80   82 1    
   159   80  201 1    
   160   81  202 1    
   161   81  203 1    
   162   81  204 1    
   163   82   83 2    
   164   82   84 am   BACKBONE|DICT|INTERRES
   165   84   85 1    
   166   84  205 1    
   167   85   86 1    
   168   85   87 1    
   169   85  206 1    
   170   86  207 1    
   171   86  208 1    
   172   86  209 1    
   173   87   88 2    
   174   87   89 am   BACKBONE|DICT|INTERRES
   175   89   90 1    
   176   89  210 1    
   177   90   91 1    
   178   90   92 1    
   179   90  211 1    
   180   91  212 1    
   181   91  213 1    
   182   91  214 1    
   183   92   93 2    
   184   92   94 am   BACKBONE|DICT|INTERRES
   185   94   95 1    
   186   94  215 1    
   187   95   96 1    
   188   95   97 1    
   189   95  216 1    
   190   96  217 1    
   191   96  218 1    
   192   96  219 1    
   193   97   98 2    
   194   97   99 am   BACKBONE|DICT|INTERRES
   195   99  100 1    
   196   99  220 1    
   197  100  101 1    
   198  100  102 1    
   199  100  221 1    
   200  101  222 1    
   201  101  223 1    
   202  101  224 1    
   203  102  103 2    
   204  102  104 am   BACKBONE|DICT|INTERRES
   205  104  105 1    
   206  104  225 1    
   207  105  106 1    
   208  105  107 1    
   209  105  226 1    
   210  106  227 1    
   211  106  228 1    
   212  106  229 1    
   213  107  108 2    
   214  107  109 am   BACKBONE|DICT|INTERRES
   215  109  110 1    
   216  109  230 1    
   217  110  111 1    
   218  110  112 1    
   219  110  231 1    
   220  111  232 1    
   221  111  233 1    
   222  111  234 1    
   223  112  113 2    
   224  112  114 am   BACKBONE|DICT|INTERRES
   225  114  115 1    
   226  114  235 1    
   227  115  116 1    
   228  115  117 1    
   229  115  236 1    
   230  116  237 1    
   231  116  238 1    
   232  116  239 1    
   233  117  118 2    
   234  117  119 am   BACKBONE|DICT|INTERRES
   235  119  120 1    
   236  119  240 1    
   237  120  121 1    
   238  120  124 1    
   239  120  241 1    
   240  121  122 am   BACKBONE|DICT|INTERRES
   241  121  123 2    
   242  122  242 1    
   243  122  243 1    
   244  124  125 1    
   245  124  244 1    
   246  124  245 1    
   247  125  126 1    
   248  126  246 1    
   249  126  247 1    
@<TRIPOS>SUBSTRUCTURE
     1 UNK         1 GROUP             0       ****    0 ROOT    
