@<TRIPOS>MOLECULE
3R540
247   249    1
SMALL
USER_CHARGES


@<TRIPOS>ATOM
      1 CA          0.5560  -11.2335  -49.3735 C.3       0 UNK        -0.1800 
      2 C          -0.1171  -12.6049  -49.3257 C.2       0 UNK         0.5000 
      3 O          -1.3097  -12.6941  -49.6086 O.2       0 UNK        -0.5000 
      4 N           0.5908  -13.6950  -48.9979 N.am      1 UNK        -0.5000 
      5 CA          1.9900  -13.7620  -48.5578 C.3       1 UNK         0.1400 
      6 C6          2.4932  -15.2210  -48.4224 C.3       23 UNK        -0.0398 
      7 S7          2.3890  -16.1719  -49.9747 S.3       23 UNK        -0.2404 
      8 C8          1.2131  -17.4838  -49.5193 C.3       23 UNK        -0.0205 
      9 C9         -0.2252  -16.9933  -49.5526 C.ar      23 UNK        -0.0193 
     10 C10        -0.9403  -17.0267  -50.7515 C.ar      23 UNK        -0.1150 
     11 C11        -2.2776  -16.6209  -50.7989 C.ar      23 UNK        -0.0193 
     12 C12        -2.8913  -16.1662  -49.6274 C.ar      23 UNK        -0.1150 
     13 C13        -2.1846  -16.1111  -48.4220 C.ar      23 UNK        -0.0193 
     14 C14        -0.8480  -16.5242  -48.3930 C.ar      23 UNK        -0.1150 
     15 C15        -2.8695  -15.5809  -47.1666 C.3       23 UNK        -0.0205 
     16 S16        -2.6387  -16.6408  -45.7010 S.3       23 UNK        -0.2404 
     17 C17        -3.4198  -18.2107  -46.2194 C.3       23 UNK        -0.0398 
     18 CA         -2.4171  -19.2328  -46.8158 C.3       11 UNK         0.1400 
     19 N          -1.2101  -19.3838  -45.9997 N.am      11 UNK        -0.5000 
     20 C          -0.0408  -19.8650  -46.4394 C.2       10 UNK         0.5000 
     21 O           0.1697  -20.2080  -47.6016 O.2       10 UNK        -0.5000 
     22 CA          1.0815  -19.9986  -45.3950 C.3       10 UNK         0.1400 
     23 CB          1.9276  -18.7158  -45.3402 C.3       10 UNK        -0.1800 
     24 N           0.5570  -20.2993  -44.0610 N.am      10 UNK        -0.5000 
     25 C           0.0545  -21.4920  -43.7061 C.2       9 UNK         0.5000 
     26 O           0.0177  -22.4671  -44.4571 O.2       9 UNK        -0.5000 
     27 CA         -0.5512  -21.6076  -42.2936 C.3       9 UNK         0.1400 
     28 CB          0.5336  -21.9777  -41.2717 C.3       9 UNK        -0.1800 
     29 N          -1.2291  -20.3876  -41.8542 N.am      9 UNK        -0.5000 
     30 C          -2.2933  -19.8393  -42.4574 C.2       8 UNK         0.5000 
     31 O          -2.8581  -20.3418  -43.4273 O.2       8 UNK        -0.5000 
     32 CA         -2.7794  -18.4785  -41.9241 C.3       8 UNK         0.1400 
     33 CB         -3.9497  -18.6723  -40.9491 C.3       8 UNK        -0.1800 
     34 N          -1.7336  -17.6842  -41.2713 N.am      8 UNK        -0.5000 
     35 C          -0.6170  -17.2454  -41.8677 C.2       7 UNK         0.5000 
     36 O          -0.3054  -17.5198  -43.0287 O.2       7 UNK        -0.5000 
     37 CA          0.3418  -16.4208  -40.9933 C.3       7 UNK         0.1400 
     38 CB          1.4760  -17.3127  -40.4705 C.3       7 UNK        -0.1800 
     39 N           0.9118  -15.2928  -41.7261 N.am      7 UNK        -0.5000 
     40 C           0.2131  -14.2283  -42.1401 C.2       6 UNK         0.5000 
     41 O          -0.9859  -14.0625  -41.9036 O.2       6 UNK        -0.5000 
     42 CA          1.0126  -13.1639  -42.9159 C.3       6 UNK         0.1400 
     43 CB          0.1498  -11.9787  -43.3967 C.3       6 UNK        -0.1800 
     44 N           2.1748  -12.6878  -42.1614 N.am      6 UNK        -0.5000 
     45 C           2.1967  -12.0948  -40.9592 C.2       5 UNK         0.5000 
     46 O           1.1923  -11.8026  -40.3080 O.2       5 UNK        -0.5000 
     47 CA          3.6046  -11.7853  -40.4081 C.3       5 UNK         0.1400 
     48 CB          3.6033  -11.3210  -38.9360 C.3       5 UNK        -0.1800 
     49 N           4.5349  -12.9016  -40.6182 N.am      5 UNK        -0.5000 
     50 C           4.4586  -14.1343  -40.0916 C.2       4 UNK         0.5000 
     51 O           3.6121  -14.4816  -39.2672 O.2       4 UNK        -0.5000 
     52 CA          5.5106  -15.1451  -40.6013 C.3       4 UNK         0.1400 
     53 CB          5.2237  -16.6015  -40.1831 C.3       4 UNK        -0.1800 
     54 N           5.7330  -15.0656  -42.0507 N.am      4 UNK        -0.5000 
     55 C           4.8146  -15.1960  -43.0198 C.2       3 UNK         0.5000 
     56 O           3.6169  -15.4157  -42.8249 O.2       3 UNK        -0.5000 
     57 CA          5.3314  -15.0247  -44.4608 C.3       3 UNK         0.1400 
     58 CB          5.1729  -16.3367  -45.2457 C.3       3 UNK        -0.1800 
     59 N           4.6665  -13.9517  -45.2047 N.am      3 UNK        -0.5000 
     60 C           4.4426  -12.6913  -44.8023 C.2       2 UNK         0.5000 
     61 O           4.7398  -12.2650  -43.6855 O.2       2 UNK        -0.5000 
     62 CA          3.7843  -11.7330  -45.8179 C.3       2 UNK         0.1400 
     63 CB          4.7468  -10.5918  -46.1830 C.3       2 UNK        -0.1800 
     64 N           3.3628  -12.4017  -47.0535 N.am      2 UNK        -0.5000 
     65 C           2.1966  -13.0393  -47.2114 C.2       1 UNK         0.5000 
     66 O           1.3292  -13.1070  -46.3404 O.2       1 UNK        -0.5000 
     67 C          -3.0957  -20.5952  -47.0584 C.2       11 UNK         0.5000 
     68 O          -3.6108  -20.8346  -48.1501 O.2       11 UNK        -0.5000 
     69 N          -3.0764  -21.4652  -46.0385 N.am      12 UNK        -0.5000 
     70 CA         -3.5543  -22.8426  -46.1055 C.3       12 UNK         0.1400 
     71 CB         -3.6658  -23.4205  -44.6864 C.3       12 UNK        -0.1800 
     72 C          -2.6522  -23.7180  -46.9904 C.2       12 UNK         0.5000 
     73 O          -3.1638  -24.3855  -47.8904 O.2       12 UNK        -0.5000 
     74 N          -1.3347  -23.6782  -46.7292 N.am      13 UNK        -0.5000 
     75 CA         -0.2669  -24.4032  -47.4255 C.3       13 UNK         0.1400 
     76 CB          0.0281  -23.7258  -48.7808 C.3       13 UNK        -0.1800 
     77 C          -0.5758  -25.9124  -47.5291 C.2       13 UNK         0.5000 
     78 O          -0.5282  -26.6077  -46.5127 O.2       13 UNK        -0.5000 
     79 N          -0.9349  -26.3724  -48.7317 N.am      14 UNK        -0.5000 
     80 CA         -1.5655  -27.6583  -48.9873 C.3       14 UNK         0.1400 
     81 CB         -0.5862  -28.5728  -49.7393 C.3       14 UNK        -0.1800 
     82 C          -2.8203  -27.3855  -49.8271 C.2       14 UNK         0.5000 
     83 O          -2.7359  -26.6499  -50.8148 O.2       14 UNK        -0.5000 
     84 N          -3.9509  -27.9807  -49.4218 N.am      15 UNK        -0.5000 
     85 CA         -5.2542  -27.9586  -50.0994 C.3       15 UNK         0.1400 
     86 CB         -5.1986  -28.8343  -51.3691 C.3       15 UNK        -0.1800 
     87 C          -5.7982  -26.5393  -50.3782 C.2       15 UNK         0.5000 
     88 O          -6.3149  -26.2859  -51.4673 O.2       15 UNK        -0.5000 
     89 N          -5.6491  -25.6344  -49.3978 N.am      16 UNK        -0.5000 
     90 CA         -6.0096  -24.2102  -49.4584 C.3       16 UNK         0.1400 
     91 CB         -7.5407  -24.0326  -49.5427 C.3       16 UNK        -0.1800 
     92 C          -5.2528  -23.4820  -50.5879 C.2       16 UNK         0.5000 
     93 O          -5.8723  -22.8448  -51.4410 O.2       16 UNK        -0.5000 
     94 N          -3.9242  -23.6599  -50.5970 N.am      17 UNK        -0.5000 
     95 CA         -2.9759  -23.2231  -51.6265 C.3       17 UNK         0.1400 
     96 CB         -2.7995  -21.6922  -51.5896 C.3       17 UNK        -0.1800 
     97 C          -3.3489  -23.7596  -53.0227 C.2       17 UNK         0.5000 
     98 O          -3.4483  -22.9870  -53.9769 O.2       17 UNK        -0.5000 
     99 N          -3.5857  -25.0784  -53.0915 N.am      18 UNK        -0.5000 
    100 CA        -4.0306  -25.8414  -54.2626 C.3       18 UNK         0.1400 
    101 CB        -2.8791  -25.9762  -55.2794 C.3       18 UNK        -0.1800 
    102 C         -5.3284  -25.2780  -54.8818 C.2       18 UNK         0.5000 
    103 O         -5.3846  -25.0282  -56.0869 O.2       18 UNK        -0.5000 
    104 N         -6.3373  -25.0691  -54.0239 N.am      19 UNK        -0.5000 
    105 CA        -7.6319  -24.4432  -54.3061 C.3       19 UNK         0.1400 
    106 CB        -8.4809  -25.3316  -55.2394 C.3       19 UNK        -0.1800 
    107 C         -7.4833  -22.9904  -54.8070 C.2       19 UNK         0.5000 
    108 O         -8.0518  -22.6240  -55.8377 O.2       19 UNK        -0.5000 
    109 N         -6.7131  -22.1964  -54.0499 N.am      20 UNK        -0.5000 
    110 CA        -6.3964  -20.7826  -54.2634 C.3       20 UNK         0.1400 
    111 CB        -7.6500  -19.9079  -54.0571 C.3       20 UNK        -0.1800 
    112 C         -5.6778  -20.5060  -55.6005 C.2       20 UNK         0.5000 
    113 O         -5.9661  -19.5086  -56.2667 O.2       20 UNK        -0.5000 
    114 N         -4.7136  -21.3685  -55.9543 N.am      21 UNK        -0.5000 
    115 CA        -3.8558  -21.2296  -57.1375 C.3       21 UNK         0.1400 
    116 CB        -3.0356  -22.5138  -57.3269 C.3       21 UNK        -0.1800 
    117 C         -2.9248  -20.0018  -57.0693 C.2       21 UNK         0.5000 
    118 O         -2.4609  -19.5277  -58.1070 O.2       21 UNK        -0.5000 
    119 N         -2.6981  -19.4970  -55.8511 N.am      22 UNK        -0.5000 
    120 CA        -2.0465  -18.2164  -55.5534 C.3       22 UNK         0.1400 
    121 C         -2.8394  -16.9494  -56.0018 C.2       22 UNK         0.5000 
    122 N         -4.1131  -17.0451  -56.3701 N.am      22 UNK        -0.7600 
    123 O         -2.2805  -15.8563  -56.0233 O.2       22 UNK        -0.5000 
    124 C124       -1.6422  -18.1418  -54.0586 C.3       23 UNK        -0.0398 
    125 S125       -3.0620  -18.2841  -52.9077 S.3       23 UNK        -0.2404 
    126 C126       -3.0606  -16.6446  -52.1085 C.3       23 UNK        -0.0205 
    127 H127        0.6284  -10.8089  -48.3723 H         1 UNK         0.0600 
    128 H128       -0.0305  -10.5468  -49.9843 H         1 UNK         0.0600 
    129 H129        1.5532  -11.2829  -49.8092 H         1 UNK         0.0600 
    130 H130        0.1092  -14.5834  -49.0005 H         1 UNK         0.3000 
    131 H131        2.5997  -13.2683  -49.3165 H         1 UNK         0.0600 
    132 H132        3.5424  -15.2335  -48.1221 H         1 UNK         0.0800 
    133 H133        1.9541  -15.7428  -47.6299 H         1 UNK         0.0800 
    134 H134        1.3283  -18.3149  -50.2167 H         1 UNK         0.0800 
    135 H135        1.4604  -17.8867  -48.5366 H         1 UNK         0.0800 
    136 H136       -0.4504  -17.3803  -51.6458 H         1 UNK         0.1150 
    137 H137       -3.9218  -15.8410  -49.6564 H         1 UNK         0.1150 
    138 H138       -0.3009  -16.4951  -47.4613 H         1 UNK         0.1150 
    139 H139       -2.4659  -14.5914  -46.9478 H         1 UNK         0.0800 
    140 H140       -3.9391  -15.4463  -47.3342 H         1 UNK         0.0800 
    141 H141       -3.9122  -18.6284  -45.3396 H         1 UNK         0.0800 
    142 H142       -4.2143  -17.9973  -46.9364 H         1 UNK         0.0800 
    143 H143       -2.1114  -18.8666  -47.7966 H         1 UNK         0.0600 
    144 H144       -1.2844  -19.0999  -45.0333 H         1 UNK         0.3000 
    145 H145        1.7310  -20.8207  -45.7035 H         1 UNK         0.0600 
    146 H146        2.7147  -18.7912  -44.5897 H         1 UNK         0.0600 
    147 H147        2.4108  -18.5285  -46.2995 H         1 UNK         0.0600 
    148 H148        1.3229  -17.8395  -45.1041 H         1 UNK         0.0600 
    149 H149        0.4876  -19.5196  -43.4183 H         1 UNK         0.3000 
    150 H150       -1.2906  -22.4108  -42.3149 H         1 UNK         0.0600 
    151 H151        0.1045  -22.1453  -40.2836 H         1 UNK         0.0600 
    152 H152        1.0462  -22.8959  -41.5619 H         1 UNK         0.0600 
    153 H153        1.2877  -21.1944  -41.1826 H         1 UNK         0.0600 
    154 H154       -0.8307  -19.9057  -41.0624 H         1 UNK         0.3000 
    155 H155       -3.1398  -17.9062  -42.7814 H         1 UNK         0.0600 
    156 H156       -4.7566  -19.2397  -41.4152 H         1 UNK         0.0600 
    157 H157       -4.3670  -17.7146  -40.6374 H         1 UNK         0.0600 
    158 H158       -3.6423  -19.2138  -40.0535 H         1 UNK         0.0600 
    159 H159       -1.9050  -17.4283  -40.3095 H         1 UNK         0.3000 
    160 H160       -0.2083  -16.0242  -40.1375 H         1 UNK         0.0600 
    161 H161        2.0936  -17.6930  -41.2854 H         1 UNK         0.0600 
    162 H162        1.0834  -18.1720  -39.9256 H         1 UNK         0.0600 
    163 H163        2.1190  -16.7626  -39.7840 H         1 UNK         0.0600 
    164 H164        1.8881  -15.3700  -42.0009 H         1 UNK         0.3000 
    165 H165        1.4084  -13.6681  -43.7976 H         1 UNK         0.0600 
    166 H166        0.7424  -11.2697  -43.9743 H         1 UNK         0.0600 
    167 H167       -0.6568  -12.3260  -44.0433 H         1 UNK         0.0600 
    168 H168       -0.3044  -11.4395  -42.5651 H         1 UNK         0.0600 
    169 H169        3.0742  -12.8886  -42.5825 H         1 UNK         0.3000 
    170 H170        3.9862  -10.9581  -41.0084 H         1 UNK         0.0600 
    171 H171        3.0240  -10.4045  -38.8189 H         1 UNK         0.0600 
    172 H172        3.1667  -12.0671  -38.2718 H         1 UNK         0.0600 
    173 H173        4.6146  -11.1115  -38.5877 H         1 UNK         0.0600 
    174 H174        5.2384  -12.7408  -41.3274 H         1 UNK         0.3000 
    175 H175        6.4495  -14.8532  -40.1287 H         1 UNK         0.0600 
    176 H176        6.0530  -17.2551  -40.4528 H         1 UNK         0.0600 
    177 H177        5.0845  -16.6860  -39.1047 H         1 UNK         0.0600 
    178 H178        4.3284  -16.9907  -40.6644 H         1 UNK         0.0600 
    179 H179        6.6845  -14.8643  -42.3252 H         1 UNK         0.3000 
    180 H180        6.3940  -14.7773  -44.4251 H         1 UNK         0.0600 
    181 H181        4.1225  -16.5998  -45.3770 H         1 UNK         0.0600 
    182 H182        5.6558  -17.1654  -44.7262 H         1 UNK         0.0600 
    183 H183        5.6273  -16.2656  -46.2341 H         1 UNK         0.0600 
    184 H184        4.3723  -14.1892  -46.1377 H         1 UNK         0.3000 
    185 H185        2.9119  -11.2942  -45.3291 H         1 UNK         0.0600 
    186 H186        5.6516  -10.9655  -46.6639 H         1 UNK         0.0600 
    187 H187        4.2749   -9.8802  -46.8609 H         1 UNK         0.0600 
    188 H188        5.0524  -10.0365  -45.2952 H         1 UNK         0.0600 
    189 H189        4.0263  -12.3819  -47.8158 H         1 UNK         0.3000 
    190 H190       -2.7193  -21.1505  -45.1410 H         1 UNK         0.3000 
    191 H191       -4.5534  -22.8337  -46.5451 H         1 UNK         0.0600 
    192 H192       -4.3573  -22.8372  -44.0779 H         1 UNK         0.0600 
    193 H193       -4.0373  -24.4457  -44.7108 H         1 UNK         0.0600 
    194 H194       -2.7024  -23.4315  -44.1762 H         1 UNK         0.0600 
    195 H195       -1.0190  -23.1294  -45.9342 H         1 UNK         0.3000 
    196 H196        0.6277  -24.3131  -46.8075 H         1 UNK         0.0600 
    197 H197        0.8028  -24.2591  -49.3331 H         1 UNK         0.0600 
    198 H198        0.3861  -22.7074  -48.6326 H         1 UNK         0.0600 
    199 H199       -0.8587  -23.6681  -49.4095 H         1 UNK         0.0600 
    200 H200       -1.0047  -25.7168  -49.4976 H         1 UNK         0.3000 
    201 H201       -1.8588  -28.1402  -48.0522 H         1 UNK         0.0600 
    202 H202        0.3098  -28.7593  -49.1470 H         1 UNK         0.0600 
    203 H203       -0.2745  -28.1362  -50.6892 H         1 UNK         0.0600 
    204 H204       -1.0429  -29.5395  -49.9547 H         1 UNK         0.0600 
    205 H205       -3.9162  -28.5415  -48.5817 H         1 UNK         0.3000 
    206 H206       -5.9667  -28.4205  -49.4145 H         1 UNK         0.0600 
    207 H207       -4.5055  -28.4311  -52.1073 H         1 UNK         0.0600 
    208 H208       -4.8791  -29.8492  -51.1325 H         1 UNK         0.0600 
    209 H209       -6.1784  -28.9078  -51.8425 H         1 UNK         0.0600 
    210 H210       -5.1513  -25.9188  -48.5653 H         1 UNK         0.3000 
    211 H211       -5.6822  -23.7578  -48.5225 H         1 UNK         0.0600 
    212 H212       -7.9478  -24.4204  -50.4768 H         1 UNK         0.0600 
    213 H213       -7.8121  -22.9780  -49.4835 H         1 UNK         0.0600 
    214 H214       -8.0421  -24.5435  -48.7208 H         1 UNK         0.0600 
    215 H215       -3.5289  -24.1852  -49.8230 H         1 UNK         0.3000 
    216 H216       -2.0149  -23.6747  -51.3828 H         1 UNK         0.0600 
    217 H217       -3.7294  -21.1715  -51.8191 H         1 UNK         0.0600 
    218 H218       -2.0531  -21.3645  -52.3140 H         1 UNK         0.0600 
    219 H219       -2.4640  -21.3588  -50.6077 H         1 UNK         0.0600 
    220 H220       -3.4545  -25.6220  -52.2412 H         1 UNK         0.3000 
    221 H221       -4.2732  -26.8426  -53.9057 H         1 UNK         0.0600 
    222 H222       -2.5795  -25.0092  -55.6824 H         1 UNK         0.0600 
    223 H223       -2.0022  -26.4328  -54.8204 H         1 UNK         0.0600 
    224 H224       -3.1704  -26.6066  -56.1202 H         1 UNK         0.0600 
    225 H225       -6.2005  -25.3493  -53.0540 H         1 UNK         0.3000 
    226 H226       -8.1523  -24.3840  -53.3489 H         1 UNK         0.0600 
    227 H227       -8.5841  -26.3390  -54.8364 H         1 UNK         0.0600 
    228 H228       -9.4857  -24.9242  -55.3556 H         1 UNK         0.0600 
    229 H229       -8.0444  -25.4114  -56.2353 H         1 UNK         0.0600 
    230 H230       -6.3095  -22.5927  -53.2020 H         1 UNK         0.3000 
    231 H231       -5.6828  -20.5174  -53.4818 H         1 UNK         0.0600 
    232 H232       -8.1131  -20.1061  -53.0905 H         1 UNK         0.0600 
    233 H233       -7.3950  -18.8477  -54.0815 H         1 UNK         0.0600 
    234 H234       -8.3980  -20.0828  -54.8309 H         1 UNK         0.0600 
    235 H235       -4.4790  -22.1268  -55.3170 H         1 UNK         0.3000 
    236 H236       -4.5030  -21.1042  -58.0077 H         1 UNK         0.0600 
    237 H237       -2.3638  -22.6872  -56.4857 H         1 UNK         0.0600 
    238 H238       -3.6829  -23.3846  -57.4271 H         1 UNK         0.0600 
    239 H239       -2.4246  -22.4586  -58.2286 H         1 UNK         0.0600 
    240 H240       -3.1193  -19.9652  -55.0621 H         1 UNK         0.3000 
    241 H241       -1.1221  -18.1981  -56.1337 H         1 UNK         0.0600 
    242 H242       -4.6042  -16.2147  -56.6607 H         1 UNK         0.3800 
    243 H243       -4.6035  -17.9314  -56.3498 H         1 UNK         0.3800 
    244 H244       -1.0852  -17.2236  -53.8676 H         1 UNK         0.0800 
    245 H245       -0.9493  -18.9525  -53.8295 H         1 UNK         0.0800 
    246 H246       -4.1000  -16.3666  -51.9284 H         1 UNK         0.0800 
    247 H247       -2.6632  -15.8881  -52.7862 H         1 UNK         0.0800 
@<TRIPOS>BOND
     1    1    2 1    
     2    1  127 1    
     3    1  128 1    
     4    1  129 1    
     5    2    3 2    
     6    2    4 am   BACKBONE|DICT|INTERRES
     7    4    5 1    
     8    4  130 1    
     9    5    6 1    
    10    5   65 1    
    11    5  131 1    
    12    6    7 1    
    13    6  132 1    
    14    6  133 1    
    15    7    8 1    
    16    8    9 1    
    17    8  134 1    
    18    8  135 1    
    19    9   10 ar   
    20    9   14 ar   
    21   10   11 ar   
    22   10  136 1    
    23   11   12 ar   
    24   11  126 1    
    25   12   13 ar   
    26   12  137 1    
    27   13   14 ar   
    28   13   15 1    
    29   14  138 1    
    30   15   16 1    
    31   15  139 1    
    32   15  140 1    
    33   16   17 1    
    34   17   18 1    
    35   17  141 1    
    36   17  142 1    
    37   18   19 1    
    38   18   67 1    
    39   18  143 1    
    40   19   20 am   BACKBONE|DICT|INTERRES
    41   19  144 1    
    42   20   21 2    
    43   20   22 1    
    44   22   23 1    
    45   22   24 1    
    46   22  145 1    
    47   23  146 1    
    48   23  147 1    
    49   23  148 1    
    50   24   25 am   BACKBONE|DICT|INTERRES
    51   24  149 1    
    52   25   26 2    
    53   25   27 1    
    54   27   28 1    
    55   27   29 1    
    56   27  150 1    
    57   28  151 1    
    58   28  152 1    
    59   28  153 1    
    60   29   30 am   BACKBONE|DICT|INTERRES
    61   29  154 1    
    62   30   31 2    
    63   30   32 1    
    64   32   33 1    
    65   32   34 1    
    66   32  155 1    
    67   33  156 1    
    68   33  157 1    
    69   33  158 1    
    70   34   35 am   BACKBONE|DICT|INTERRES
    71   34  159 1    
    72   35   36 2    
    73   35   37 1    
    74   37   38 1    
    75   37   39 1    
    76   37  160 1    
    77   38  161 1    
    78   38  162 1    
    79   38  163 1    
    80   39   40 am   BACKBONE|DICT|INTERRES
    81   39  164 1    
    82   40   41 2    
    83   40   42 1    
    84   42   43 1    
    85   42   44 1    
    86   42  165 1    
    87   43  166 1    
    88   43  167 1    
    89   43  168 1    
    90   44   45 am   BACKBONE|DICT|INTERRES
    91   44  169 1    
    92   45   46 2    
    93   45   47 1    
    94   47   48 1    
    95   47   49 1    
    96   47  170 1    
    97   48  171 1    
    98   48  172 1    
    99   48  173 1    
   100   49   50 am   BACKBONE|DICT|INTERRES
   101   49  174 1    
   102   50   51 2    
   103   50   52 1    
   104   52   53 1    
   105   52   54 1    
   106   52  175 1    
   107   53  176 1    
   108   53  177 1    
   109   53  178 1    
   110   54   55 am   BACKBONE|DICT|INTERRES
   111   54  179 1    
   112   55   56 2    
   113   55   57 1    
   114   57   58 1    
   115   57   59 1    
   116   57  180 1    
   117   58  181 1    
   118   58  182 1    
   119   58  183 1    
   120   59   60 am   BACKBONE|DICT|INTERRES
   121   59  184 1    
   122   60   61 2    
   123   60   62 1    
   124   62   63 1    
   125   62   64 1    
   126   62  185 1    
   127   63  186 1    
   128   63  187 1    
   129   63  188 1    
   130   64   65 am   BACKBONE|DICT|INTERRES
   131   64  189 1    
   132   65   66 2    
   133   67   68 2    
   134   67   69 am   BACKBONE|DICT|INTERRES
   135   69   70 1    
   136   69  190 1    
   137   70   71 1    
   138   70   72 1    
   139   70  191 1    
   140   71  192 1    
   141   71  193 1    
   142   71  194 1    
   143   72   73 2    
   144   72   74 am   BACKBONE|DICT|INTERRES
   145   74   75 1    
   146   74  195 1    
   147   75   76 1    
   148   75   77 1    
   149   75  196 1    
   150   76  197 1    
   151   76  198 1    
   152   76  199 1    
   153   77   78 2    
   154   77   79 am   BACKBONE|DICT|INTERRES
   155   79   80 1    
   156   79  200 1    
   157   80   81 1    
   158   80   82 1    
   159   80  201 1    
   160   81  202 1    
   161   81  203 1    
   162   81  204 1    
   163   82   83 2    
   164   82   84 am   BACKBONE|DICT|INTERRES
   165   84   85 1    
   166   84  205 1    
   167   85   86 1    
   168   85   87 1    
   169   85  206 1    
   170   86  207 1    
   171   86  208 1    
   172   86  209 1    
   173   87   88 2    
   174   87   89 am   BACKBONE|DICT|INTERRES
   175   89   90 1    
   176   89  210 1    
   177   90   91 1    
   178   90   92 1    
   179   90  211 1    
   180   91  212 1    
   181   91  213 1    
   182   91  214 1    
   183   92   93 2    
   184   92   94 am   BACKBONE|DICT|INTERRES
   185   94   95 1    
   186   94  215 1    
   187   95   96 1    
   188   95   97 1    
   189   95  216 1    
   190   96  217 1    
   191   96  218 1    
   192   96  219 1    
   193   97   98 2    
   194   97   99 am   BACKBONE|DICT|INTERRES
   195   99  100 1    
   196   99  220 1    
   197  100  101 1    
   198  100  102 1    
   199  100  221 1    
   200  101  222 1    
   201  101  223 1    
   202  101  224 1    
   203  102  103 2    
   204  102  104 am   BACKBONE|DICT|INTERRES
   205  104  105 1    
   206  104  225 1    
   207  105  106 1    
   208  105  107 1    
   209  105  226 1    
   210  106  227 1    
   211  106  228 1    
   212  106  229 1    
   213  107  108 2    
   214  107  109 am   BACKBONE|DICT|INTERRES
   215  109  110 1    
   216  109  230 1    
   217  110  111 1    
   218  110  112 1    
   219  110  231 1    
   220  111  232 1    
   221  111  233 1    
   222  111  234 1    
   223  112  113 2    
   224  112  114 am   BACKBONE|DICT|INTERRES
   225  114  115 1    
   226  114  235 1    
   227  115  116 1    
   228  115  117 1    
   229  115  236 1    
   230  116  237 1    
   231  116  238 1    
   232  116  239 1    
   233  117  118 2    
   234  117  119 am   BACKBONE|DICT|INTERRES
   235  119  120 1    
   236  119  240 1    
   237  120  121 1    
   238  120  124 1    
   239  120  241 1    
   240  121  122 am   BACKBONE|DICT|INTERRES
   241  121  123 2    
   242  122  242 1    
   243  122  243 1    
   244  124  125 1    
   245  124  244 1    
   246  124  245 1    
   247  125  126 1    
   248  126  246 1    
   249  126  247 1    
@<TRIPOS>SUBSTRUCTURE
     1 UNK         1 GROUP             0       ****    0 ROOT    
