@<TRIPOS>MOLECULE
3R540
247   249    1
SMALL
USER_CHARGES


@<TRIPOS>ATOM
      1 CA         -2.2372  -13.8019  -47.3452 C.3       0 UNK        -0.1800 
      2 C          -0.9683  -13.4877  -48.1220 C.2       0 UNK         0.5000 
      3 O          -1.0432  -12.9650  -49.2346 O.2       0 UNK        -0.5000 
      4 N           0.1970  -13.7808  -47.5301 N.am      1 UNK        -0.5000 
      5 CA          1.5273  -13.5967  -48.1269 C.3       1 UNK         0.1400 
      6 C6          2.6399  -14.2583  -47.2778 C.3       23 UNK        -0.0398 
      7 S7          2.5145  -16.0782  -47.2855 S.3       23 UNK        -0.2404 
      8 C8          3.7210  -16.4819  -48.5870 C.3       23 UNK        -0.0205 
      9 C9          3.7105  -17.9624  -48.9375 C.ar      23 UNK        -0.0193 
     10 C10         2.8747  -18.4376  -49.9514 C.ar      23 UNK        -0.1150 
     11 C11         2.8747  -19.7919  -50.3025 C.ar      23 UNK        -0.0193 
     12 C12         3.7403  -20.6661  -49.6376 C.ar      23 UNK        -0.1150 
     13 C13         4.5742  -20.2109  -48.6086 C.ar      23 UNK        -0.0193 
     14 C14         4.5512  -18.8547  -48.2666 C.ar      23 UNK        -0.1150 
     15 C15         5.5258  -21.1535  -47.8700 C.3       23 UNK        -0.0205 
     16 S16         4.8711  -22.8350  -47.5776 S.3       23 UNK        -0.2404 
     17 C17         3.3450  -22.4565  -46.6560 C.3       23 UNK        -0.0398 
     18 CA          2.7020  -23.6707  -45.9421 C.3       11 UNK         0.1400 
     19 N           1.6175  -23.2228  -45.0683 N.am      11 UNK        -0.5000 
     20 C           0.9344  -23.9691  -44.1912 C.2       10 UNK         0.5000 
     21 O           1.1588  -25.1590  -43.9728 O.2       10 UNK        -0.5000 
     22 CA         -0.2259  -23.2640  -43.4642 C.3       10 UNK         0.1400 
     23 CB          0.2844  -22.4480  -42.2663 C.3       10 UNK        -0.1800 
     24 N          -0.9809  -22.3934  -44.3681 N.am      10 UNK        -0.5000 
     25 C          -1.7874  -22.8466  -45.3376 C.2       9 UNK         0.5000 
     26 O          -2.0312  -24.0377  -45.5165 O.2       9 UNK        -0.5000 
     27 CA         -2.3952  -21.8073  -46.2934 C.3       9 UNK         0.1400 
     28 CB         -3.7473  -21.3002  -45.7741 C.3       9 UNK        -0.1800 
     29 N          -1.5039  -20.6780  -46.5538 N.am      9 UNK        -0.5000 
     30 C          -0.3875  -20.7719  -47.2907 C.2       8 UNK         0.5000 
     31 O           0.0059  -21.8179  -47.8054 O.2       8 UNK        -0.5000 
     32 CA          0.4520  -19.4919  -47.4383 C.3       8 UNK         0.1400 
     33 CB         -0.1883  -18.5534  -48.4733 C.3       8 UNK        -0.1800 
     34 N           0.6134  -18.7594  -46.1855 N.am      8 UNK        -0.5000 
     35 C           1.0689  -19.2529  -45.0264 C.2       7 UNK         0.5000 
     36 O           1.4690  -20.4063  -44.8819 O.2       7 UNK        -0.5000 
     37 CA          1.0156  -18.3157  -43.8071 C.3       7 UNK         0.1400 
     38 CB          2.3933  -17.6902  -43.5461 C.3       7 UNK        -0.1800 
     39 N           0.0239  -17.2473  -43.9448 N.am      7 UNK        -0.5000 
     40 C          -1.3032  -17.4057  -44.0351 C.2       6 UNK         0.5000 
     41 O          -1.8500  -18.5098  -43.9985 O.2       6 UNK        -0.5000 
     42 CA         -2.1489  -16.1246  -44.2372 C.3       6 UNK         0.1400 
     43 CB         -3.6300  -16.3351  -43.8764 C.3       6 UNK        -0.1800 
     44 N          -1.6527  -14.9444  -43.5171 N.am      6 UNK        -0.5000 
     45 C          -0.5535  -14.2393  -43.8124 C.2       5 UNK         0.5000 
     46 O           0.1942  -14.5170  -44.7522 O.2       5 UNK        -0.5000 
     47 CA         -0.2631  -13.0298  -42.9056 C.3       5 UNK         0.1400 
     48 CB          1.2207  -12.6035  -42.9410 C.3       5 UNK        -0.1800 
     49 N          -1.1512  -11.9029  -43.2130 N.am      5 UNK        -0.5000 
     50 C          -1.2065  -11.2117  -44.3601 C.2       4 UNK         0.5000 
     51 O          -0.4731  -11.4273  -45.3302 O.2       4 UNK        -0.5000 
     52 CA         -2.2417  -10.0674  -44.4138 C.3       4 UNK         0.1400 
     53 CB         -1.8371   -8.9199  -43.4740 C.3       4 UNK        -0.1800 
     54 N          -2.3247   -9.5371  -45.7702 N.am      4 UNK        -0.5000 
     55 C          -3.0162  -10.0871  -46.7726 C.2       3 UNK         0.5000 
     56 O          -3.9340  -10.8914  -46.6105 O.2       3 UNK        -0.5000 
     57 CA         -2.5452   -9.7381  -48.1994 C.3       3 UNK         0.1400 
     58 CB         -3.0481   -8.3541  -48.6525 C.3       3 UNK        -0.1800 
     59 N          -1.0892   -9.8910  -48.3606 N.am      3 UNK        -0.5000 
     60 C          -0.0987   -9.1553  -47.8274 C.2       2 UNK         0.5000 
     61 O          -0.2850   -8.1064  -47.2079 O.2       2 UNK        -0.5000 
     62 CA          1.3190   -9.7456  -47.9284 C.3       2 UNK         0.1400 
     63 CB          2.3090   -9.1144  -46.9320 C.3       2 UNK        -0.1800 
     64 N           1.2521  -11.1854  -47.6896 N.am      2 UNK        -0.5000 
     65 C           1.8697  -12.1193  -48.4211 C.2       1 UNK         0.5000 
     66 O           2.6658  -11.8580  -49.3243 O.2       1 UNK        -0.5000 
     67 C           2.2251  -24.7567  -46.9330 C.2       11 UNK         0.5000 
     68 O           2.8543  -25.8115  -47.0311 O.2       11 UNK        -0.5000 
     69 N           1.1068  -24.4940  -47.6241 N.am      12 UNK        -0.5000 
     70 CA          0.4922  -25.4135  -48.5851 C.3       12 UNK         0.1400 
     71 CB         -0.4243  -24.6079  -49.5107 C.3       12 UNK        -0.1800 
     72 C          -0.2830  -26.5756  -47.9334 C.2       12 UNK         0.5000 
     73 O          -0.5772  -27.5581  -48.6167 O.2       12 UNK        -0.5000 
     74 N          -0.6056  -26.4442  -46.6395 N.am      13 UNK        -0.5000 
     75 CA         -1.3132  -27.4047  -45.7927 C.3       13 UNK         0.1400 
     76 CB         -0.4100  -28.6231  -45.4974 C.3       13 UNK        -0.1800 
     77 C          -2.6983  -27.7622  -46.3699 C.2       13 UNK         0.5000 
     78 O          -3.5449  -26.8763  -46.4908 O.2       13 UNK        -0.5000 
     79 N          -2.9063  -29.0347  -46.7354 N.am      14 UNK        -0.5000 
     80 CA         -4.1606  -29.5776  -47.2651 C.3       14 UNK         0.1400 
     81 CB         -4.0109  -31.0973  -47.4341 C.3       14 UNK        -0.1800 
     82 C          -4.6371  -28.9343  -48.5836 C.2       14 UNK         0.5000 
     83 O          -5.8392  -28.9397  -48.8515 O.2       14 UNK        -0.5000 
     84 N          -3.7054  -28.3829  -49.3752 N.am      15 UNK        -0.5000 
     85 CA         -4.0097  -27.6522  -50.6078 C.3       15 UNK         0.1400 
     86 CB         -2.7622  -27.6365  -51.5037 C.3       15 UNK        -0.1800 
     87 C          -4.5207  -26.2194  -50.3508 C.2       15 UNK         0.5000 
     88 O          -5.1422  -25.6359  -51.2397 O.2       15 UNK        -0.5000 
     89 N          -4.2380  -25.6706  -49.1576 N.am      16 UNK        -0.5000 
     90 CA         -4.6748  -24.3727  -48.6216 C.3       16 UNK         0.1400 
     91 CB         -6.1990  -24.3792  -48.3924 C.3       16 UNK        -0.1800 
     92 C          -4.2360  -23.1247  -49.4194 C.2       16 UNK         0.5000 
     93 O          -4.6672  -22.0209  -49.0821 O.2       16 UNK        -0.5000 
     94 N          -3.4012  -23.3013  -50.4547 N.am      17 UNK        -0.5000 
     95 CA         -2.8830  -22.2754  -51.3684 C.3       17 UNK         0.1400 
     96 CB         -1.8741  -21.3654  -50.6394 C.3       17 UNK        -0.1800 
     97 C          -3.9946  -21.4716  -52.0750 C.2       17 UNK         0.5000 
     98 O          -3.8305  -20.2719  -52.2968 O.2       17 UNK        -0.5000 
     99 N          -5.1191  -22.1383  -52.3793 N.am      18 UNK        -0.5000 
    100 CA        -6.3543  -21.5579  -52.9208 C.3       18 UNK         0.1400 
    101 CB        -6.1436  -21.0758  -54.3718 C.3       18 UNK        -0.1800 
    102 C         -6.9375  -20.4686  -51.9923 C.2       18 UNK         0.5000 
    103 O         -7.2565  -19.3688  -52.4453 O.2       18 UNK        -0.5000 
    104 N         -7.0323  -20.8086  -50.6978 N.am      19 UNK        -0.5000 
    105 CA        -7.4491  -19.9602  -49.5766 C.3       19 UNK         0.1400 
    106 CB        -8.9037  -19.4710  -49.7438 C.3       19 UNK        -0.1800 
    107 C         -6.4403  -18.8250  -49.3101 C.2       19 UNK         0.5000 
    108 O         -6.8136  -17.6516  -49.2674 O.2       19 UNK        -0.5000 
    109 N         -5.1710  -19.2203  -49.1347 N.am      20 UNK        -0.5000 
    110 CA        -4.0082  -18.3867  -48.8068 C.3       20 UNK         0.1400 
    111 CB        -4.1801  -17.7167  -47.4261 C.3       20 UNK        -0.1800 
    112 C         -3.6097  -17.3695  -49.8995 C.2       20 UNK         0.5000 
    113 O         -2.8995  -16.4101  -49.5992 O.2       20 UNK        -0.5000 
    114 N         -4.0531  -17.5869  -51.1432 N.am      21 UNK        -0.5000 
    115 CA        -3.7576  -16.7246  -52.2860 C.3       21 UNK         0.1400 
    116 CB        -4.8261  -16.9411  -53.3682 C.3       21 UNK        -0.1800 
    117 C         -2.3493  -16.9703  -52.8559 C.2       21 UNK         0.5000 
    118 O         -1.6636  -16.0105  -53.2112 O.2       21 UNK        -0.5000 
    119 N         -1.9498  -18.2473  -52.9288 N.am      22 UNK        -0.5000 
    120 CA        -0.7084  -18.7316  -53.5535 C.3       22 UNK         0.1400 
    121 C         -0.6531  -18.4736  -55.0952 C.2       22 UNK         0.5000 
    122 N          0.5171  -18.5302  -55.7161 N.am      22 UNK        -0.7600 
    123 O         -1.6719  -18.2711  -55.7530 O.2       22 UNK        -0.5000 
    124 C124        0.5572  -18.2691  -52.7692 C.3       23 UNK        -0.0398 
    125 S125        1.9687  -19.4231  -52.9343 S.3       23 UNK        -0.2404 
    126 C126        1.9183  -20.3381  -51.3586 C.3       23 UNK        -0.0205 
    127 H127       -2.1371  -13.5214  -46.2975 H         1 UNK         0.0600 
    128 H128       -2.4589  -14.8662  -47.4050 H         1 UNK         0.0600 
    129 H129       -3.0855  -13.2580  -47.7601 H         1 UNK         0.0600 
    130 H130        0.1963  -14.1424  -46.5785 H         1 UNK         0.3000 
    131 H131        1.5074  -14.0961  -49.0980 H         1 UNK         0.0600 
    132 H132        3.6319  -13.9782  -47.6377 H         1 UNK         0.0800 
    133 H133        2.5863  -13.9108  -46.2444 H         1 UNK         0.0800 
    134 H134        4.7183  -16.1843  -48.2595 H         1 UNK         0.0800 
    135 H135        3.5018  -15.8921  -49.4786 H         1 UNK         0.0800 
    136 H136        2.2187  -17.7476  -50.4603 H         1 UNK         0.1150 
    137 H137        3.7514  -21.7114  -49.9111 H         1 UNK         0.1150 
    138 H138        5.1968  -18.4869  -47.4813 H         1 UNK         0.1150 
    139 H139        6.4466  -21.2353  -48.4485 H         1 UNK         0.0800 
    140 H140        5.8057  -20.7260  -46.9058 H         1 UNK         0.0800 
    141 H141        3.5941  -21.6935  -45.9171 H         1 UNK         0.0800 
    142 H142        2.6316  -21.9918  -47.3368 H         1 UNK         0.0800 
    143 H143        3.4598  -24.1235  -45.2994 H         1 UNK         0.0600 
    144 H144        1.3920  -22.2321  -45.1220 H         1 UNK         0.3000 
    145 H145       -0.9008  -24.0342  -43.0843 H         1 UNK         0.0600 
    146 H146       -0.5403  -21.9800  -41.7285 H         1 UNK         0.0600 
    147 H147        0.9741  -21.6613  -42.5721 H         1 UNK         0.0600 
    148 H148        0.8126  -23.0878  -41.5584 H         1 UNK         0.0600 
    149 H149       -0.8066  -21.4009  -44.3039 H         1 UNK         0.3000 
    150 H150       -2.5697  -22.3168  -47.2414 H         1 UNK         0.0600 
    151 H151       -4.3999  -22.1314  -45.5036 H         1 UNK         0.0600 
    152 H152       -4.2667  -20.7272  -46.5409 H         1 UNK         0.0600 
    153 H153       -3.6324  -20.6681  -44.8927 H         1 UNK         0.0600 
    154 H154       -1.7254  -19.8031  -46.0988 H         1 UNK         0.3000 
    155 H155        1.4445  -19.7824  -47.7841 H         1 UNK         0.0600 
    156 H156       -0.4006  -19.0717  -49.4079 H         1 UNK         0.0600 
    157 H157        0.4644  -17.7146  -48.7087 H         1 UNK         0.0600 
    158 H158       -1.1236  -18.1349  -48.1057 H         1 UNK         0.0600 
    159 H159        0.3564  -17.7840  -46.2035 H         1 UNK         0.3000 
    160 H160        0.7403  -18.9209  -42.9411 H         1 UNK         0.0600 
    161 H161        2.7056  -17.0467  -44.3693 H         1 UNK         0.0600 
    162 H162        3.1559  -18.4606  -43.4236 H         1 UNK         0.0600 
    163 H163        2.3881  -17.0905  -42.6359 H         1 UNK         0.0600 
    164 H164        0.3840  -16.3058  -44.0656 H         1 UNK         0.3000 
    165 H165       -2.1021  -15.9056  -45.3040 H         1 UNK         0.0600 
    166 H166       -4.2201  -15.4461  -44.1001 H         1 UNK         0.0600 
    167 H167       -4.0653  -17.1578  -44.4448 H         1 UNK         0.0600 
    168 H168       -3.7552  -16.5657  -42.8179 H         1 UNK         0.0600 
    169 H169       -2.2036  -14.6568  -42.7211 H         1 UNK         0.3000 
    170 H170       -0.4857  -13.3342  -41.8818 H         1 UNK         0.0600 
    171 H171        1.5463  -12.3113  -43.9397 H         1 UNK         0.0600 
    172 H172        1.4047  -11.7637  -42.2712 H         1 UNK         0.0600 
    173 H173        1.8650  -13.4230  -42.6205 H         1 UNK         0.0600 
    174 H174       -1.7975  -11.6524  -42.4777 H         1 UNK         0.3000 
    175 H175       -3.2152  -10.4572  -44.1097 H         1 UNK         0.0600 
    176 H176       -0.8513   -8.5250  -43.7244 H         1 UNK         0.0600 
    177 H177       -2.5500   -8.0969  -43.5293 H         1 UNK         0.0600 
    178 H178       -1.8055   -9.2490  -42.4349 H         1 UNK         0.0600 
    179 H179       -1.5709   -8.9131  -46.0426 H         1 UNK         0.3000 
    180 H180       -2.9893  -10.4792  -48.8660 H         1 UNK         0.0600 
    181 H181       -2.7061   -7.5538  -47.9963 H         1 UNK         0.0600 
    182 H182       -4.1382   -8.3237  -48.6548 H         1 UNK         0.0600 
    183 H183       -2.7140   -8.1254  -49.6644 H         1 UNK         0.0600 
    184 H184       -0.8167  -10.7587  -48.8083 H         1 UNK         0.3000 
    185 H185        1.6670   -9.5410  -48.9427 H         1 UNK         0.0600 
    186 H186        1.9851   -9.2622  -45.9008 H         1 UNK         0.0600 
    187 H187        3.3029   -9.5498  -47.0362 H         1 UNK         0.0600 
    188 H188        2.4062   -8.0412  -47.0994 H         1 UNK         0.0600 
    189 H189        0.6160  -11.4752  -46.9482 H         1 UNK         0.3000 
    190 H190        0.6658  -23.5823  -47.5265 H         1 UNK         0.3000 
    191 H191        1.2817  -25.8564  -49.1959 H         1 UNK         0.0600 
    192 H192        0.1498  -23.8662  -50.0651 H         1 UNK         0.0600 
    193 H193       -1.1982  -24.0892  -48.9445 H         1 UNK         0.0600 
    194 H194       -0.9158  -25.2463  -50.2433 H         1 UNK         0.0600 
    195 H195       -0.3968  -25.5604  -46.1953 H         1 UNK         0.3000 
    196 H196       -1.5013  -26.8960  -44.8461 H         1 UNK         0.0600 
    197 H197        0.5200  -28.3057  -45.0249 H         1 UNK         0.0600 
    198 H198       -0.1456  -29.1728  -46.4013 H         1 UNK         0.0600 
    199 H199       -0.8950  -29.3175  -44.8103 H         1 UNK         0.0600 
    200 H200       -2.1441  -29.6886  -46.6317 H         1 UNK         0.3000 
    201 H201       -4.9364  -29.3925  -46.5194 H         1 UNK         0.0600 
    202 H202       -3.7725  -31.5792  -46.4857 H         1 UNK         0.0600 
    203 H203       -3.2231  -31.3463  -48.1463 H         1 UNK         0.0600 
    204 H204       -4.9367  -31.5439  -47.7994 H         1 UNK         0.0600 
    205 H205       -2.7359  -28.4098  -49.0837 H         1 UNK         0.3000 
    206 H206       -4.7982  -28.1828  -51.1458 H         1 UNK         0.0600 
    207 H207       -2.4719  -28.6484  -51.7871 H         1 UNK         0.0600 
    208 H208       -1.9109  -27.1762  -51.0047 H         1 UNK         0.0600 
    209 H209       -2.9452  -27.0825  -52.4253 H         1 UNK         0.0600 
    210 H210       -3.7522  -26.2501  -48.4818 H         1 UNK         0.3000 
    211 H211       -4.1964  -24.2820  -47.6453 H         1 UNK         0.0600 
    212 H212       -6.7500  -24.4236  -49.3323 H         1 UNK         0.0600 
    213 H213       -6.5234  -23.4815  -47.8644 H         1 UNK         0.0600 
    214 H214       -6.5002  -25.2341  -47.7867 H         1 UNK         0.0600 
    215 H215       -3.1462  -24.2523  -50.6760 H         1 UNK         0.3000 
    216 H216       -2.3449  -22.8004  -52.1586 H         1 UNK         0.0600 
    217 H217       -1.4756  -20.5961  -51.2982 H         1 UNK         0.0600 
    218 H218       -1.0234  -21.9336  -50.2735 H         1 UNK         0.0600 
    219 H219       -2.3262  -20.8653  -49.7861 H         1 UNK         0.0600 
    220 H220       -5.1584  -23.1226  -52.1480 H         1 UNK         0.3000 
    221 H221       -7.0901  -22.3629  -52.9470 H         1 UNK         0.0600 
    222 H222       -5.4384  -20.2468  -54.4295 H         1 UNK         0.0600 
    223 H223       -5.7650  -21.8804  -55.0019 H         1 UNK         0.0600 
    224 H224       -7.0827  -20.7358  -54.8097 H         1 UNK         0.0600 
    225 H225       -6.6751  -21.7152  -50.4307 H         1 UNK         0.3000 
    226 H226       -7.4251  -20.5983  -48.6917 H         1 UNK         0.0600 
    227 H227       -9.5832  -20.3059  -49.9145 H         1 UNK         0.0600 
    228 H228       -9.2433  -18.9545  -48.8453 H         1 UNK         0.0600 
    229 H229       -9.0106  -18.7751  -50.5761 H         1 UNK         0.0600 
    230 H230       -4.9814  -20.2201  -49.1920 H         1 UNK         0.3000 
    231 H231       -3.1743  -19.0806  -48.7221 H         1 UNK         0.0600 
    232 H232       -3.2423  -17.2789  -47.0849 H         1 UNK         0.0600 
    233 H233       -4.4953  -18.4311  -46.6673 H         1 UNK         0.0600 
    234 H234       -4.9196  -16.9161  -47.4557 H         1 UNK         0.0600 
    235 H235       -4.5691  -18.4361  -51.3363 H         1 UNK         0.3000 
    236 H236       -3.8130  -15.6826  -51.9633 H         1 UNK         0.0600 
    237 H237       -4.8321  -17.9710  -53.7265 H         1 UNK         0.0600 
    238 H238       -5.8230  -16.7153  -52.9889 H         1 UNK         0.0600 
    239 H239       -4.6481  -16.2947  -54.2284 H         1 UNK         0.0600 
    240 H240       -2.6199  -18.9654  -52.6604 H         1 UNK         0.3000 
    241 H241       -0.7771  -19.8158  -53.4635 H         1 UNK         0.0600 
    242 H242        0.5577  -18.3837  -56.7127 H         1 UNK         0.3800 
    243 H243        1.3629  -18.7318  -55.2024 H         1 UNK         0.3800 
    244 H244        0.3177  -18.1672  -51.7105 H         1 UNK         0.0800 
    245 H245        0.8699  -17.2745  -53.0914 H         1 UNK         0.0800 
    246 H246        2.1593  -21.3794  -51.5776 H         1 UNK         0.0800 
    247 H247        0.9068  -20.3479  -50.9559 H         1 UNK         0.0800 
@<TRIPOS>BOND
     1    1    2 1    
     2    1  127 1    
     3    1  128 1    
     4    1  129 1    
     5    2    3 2    
     6    2    4 am   BACKBONE|DICT|INTERRES
     7    4    5 1    
     8    4  130 1    
     9    5    6 1    
    10    5   65 1    
    11    5  131 1    
    12    6    7 1    
    13    6  132 1    
    14    6  133 1    
    15    7    8 1    
    16    8    9 1    
    17    8  134 1    
    18    8  135 1    
    19    9   10 ar   
    20    9   14 ar   
    21   10   11 ar   
    22   10  136 1    
    23   11   12 ar   
    24   11  126 1    
    25   12   13 ar   
    26   12  137 1    
    27   13   14 ar   
    28   13   15 1    
    29   14  138 1    
    30   15   16 1    
    31   15  139 1    
    32   15  140 1    
    33   16   17 1    
    34   17   18 1    
    35   17  141 1    
    36   17  142 1    
    37   18   19 1    
    38   18   67 1    
    39   18  143 1    
    40   19   20 am   BACKBONE|DICT|INTERRES
    41   19  144 1    
    42   20   21 2    
    43   20   22 1    
    44   22   23 1    
    45   22   24 1    
    46   22  145 1    
    47   23  146 1    
    48   23  147 1    
    49   23  148 1    
    50   24   25 am   BACKBONE|DICT|INTERRES
    51   24  149 1    
    52   25   26 2    
    53   25   27 1    
    54   27   28 1    
    55   27   29 1    
    56   27  150 1    
    57   28  151 1    
    58   28  152 1    
    59   28  153 1    
    60   29   30 am   BACKBONE|DICT|INTERRES
    61   29  154 1    
    62   30   31 2    
    63   30   32 1    
    64   32   33 1    
    65   32   34 1    
    66   32  155 1    
    67   33  156 1    
    68   33  157 1    
    69   33  158 1    
    70   34   35 am   BACKBONE|DICT|INTERRES
    71   34  159 1    
    72   35   36 2    
    73   35   37 1    
    74   37   38 1    
    75   37   39 1    
    76   37  160 1    
    77   38  161 1    
    78   38  162 1    
    79   38  163 1    
    80   39   40 am   BACKBONE|DICT|INTERRES
    81   39  164 1    
    82   40   41 2    
    83   40   42 1    
    84   42   43 1    
    85   42   44 1    
    86   42  165 1    
    87   43  166 1    
    88   43  167 1    
    89   43  168 1    
    90   44   45 am   BACKBONE|DICT|INTERRES
    91   44  169 1    
    92   45   46 2    
    93   45   47 1    
    94   47   48 1    
    95   47   49 1    
    96   47  170 1    
    97   48  171 1    
    98   48  172 1    
    99   48  173 1    
   100   49   50 am   BACKBONE|DICT|INTERRES
   101   49  174 1    
   102   50   51 2    
   103   50   52 1    
   104   52   53 1    
   105   52   54 1    
   106   52  175 1    
   107   53  176 1    
   108   53  177 1    
   109   53  178 1    
   110   54   55 am   BACKBONE|DICT|INTERRES
   111   54  179 1    
   112   55   56 2    
   113   55   57 1    
   114   57   58 1    
   115   57   59 1    
   116   57  180 1    
   117   58  181 1    
   118   58  182 1    
   119   58  183 1    
   120   59   60 am   BACKBONE|DICT|INTERRES
   121   59  184 1    
   122   60   61 2    
   123   60   62 1    
   124   62   63 1    
   125   62   64 1    
   126   62  185 1    
   127   63  186 1    
   128   63  187 1    
   129   63  188 1    
   130   64   65 am   BACKBONE|DICT|INTERRES
   131   64  189 1    
   132   65   66 2    
   133   67   68 2    
   134   67   69 am   BACKBONE|DICT|INTERRES
   135   69   70 1    
   136   69  190 1    
   137   70   71 1    
   138   70   72 1    
   139   70  191 1    
   140   71  192 1    
   141   71  193 1    
   142   71  194 1    
   143   72   73 2    
   144   72   74 am   BACKBONE|DICT|INTERRES
   145   74   75 1    
   146   74  195 1    
   147   75   76 1    
   148   75   77 1    
   149   75  196 1    
   150   76  197 1    
   151   76  198 1    
   152   76  199 1    
   153   77   78 2    
   154   77   79 am   BACKBONE|DICT|INTERRES
   155   79   80 1    
   156   79  200 1    
   157   80   81 1    
   158   80   82 1    
   159   80  201 1    
   160   81  202 1    
   161   81  203 1    
   162   81  204 1    
   163   82   83 2    
   164   82   84 am   BACKBONE|DICT|INTERRES
   165   84   85 1    
   166   84  205 1    
   167   85   86 1    
   168   85   87 1    
   169   85  206 1    
   170   86  207 1    
   171   86  208 1    
   172   86  209 1    
   173   87   88 2    
   174   87   89 am   BACKBONE|DICT|INTERRES
   175   89   90 1    
   176   89  210 1    
   177   90   91 1    
   178   90   92 1    
   179   90  211 1    
   180   91  212 1    
   181   91  213 1    
   182   91  214 1    
   183   92   93 2    
   184   92   94 am   BACKBONE|DICT|INTERRES
   185   94   95 1    
   186   94  215 1    
   187   95   96 1    
   188   95   97 1    
   189   95  216 1    
   190   96  217 1    
   191   96  218 1    
   192   96  219 1    
   193   97   98 2    
   194   97   99 am   BACKBONE|DICT|INTERRES
   195   99  100 1    
   196   99  220 1    
   197  100  101 1    
   198  100  102 1    
   199  100  221 1    
   200  101  222 1    
   201  101  223 1    
   202  101  224 1    
   203  102  103 2    
   204  102  104 am   BACKBONE|DICT|INTERRES
   205  104  105 1    
   206  104  225 1    
   207  105  106 1    
   208  105  107 1    
   209  105  226 1    
   210  106  227 1    
   211  106  228 1    
   212  106  229 1    
   213  107  108 2    
   214  107  109 am   BACKBONE|DICT|INTERRES
   215  109  110 1    
   216  109  230 1    
   217  110  111 1    
   218  110  112 1    
   219  110  231 1    
   220  111  232 1    
   221  111  233 1    
   222  111  234 1    
   223  112  113 2    
   224  112  114 am   BACKBONE|DICT|INTERRES
   225  114  115 1    
   226  114  235 1    
   227  115  116 1    
   228  115  117 1    
   229  115  236 1    
   230  116  237 1    
   231  116  238 1    
   232  116  239 1    
   233  117  118 2    
   234  117  119 am   BACKBONE|DICT|INTERRES
   235  119  120 1    
   236  119  240 1    
   237  120  121 1    
   238  120  124 1    
   239  120  241 1    
   240  121  122 am   BACKBONE|DICT|INTERRES
   241  121  123 2    
   242  122  242 1    
   243  122  243 1    
   244  124  125 1    
   245  124  244 1    
   246  124  245 1    
   247  125  126 1    
   248  126  246 1    
   249  126  247 1    
@<TRIPOS>SUBSTRUCTURE
     1 UNK         1 GROUP             0       ****    0 ROOT    
