@<TRIPOS>MOLECULE
3R540
247   249    1
SMALL
USER_CHARGES


@<TRIPOS>ATOM
      1 CA         -6.6651  -12.8685  -46.3517 C.3       0 UNK        -0.1800 
      2 C          -5.5978  -13.2064  -47.3833 C.2       0 UNK         0.5000 
      3 O          -5.7359  -12.8393  -48.5506 O.2       0 UNK        -0.5000 
      4 N          -4.5406  -13.9095  -46.9588 N.am      1 UNK        -0.5000 
      5 CA         -3.3837  -14.2642  -47.7876 C.3       1 UNK         0.1400 
      6 C6         -2.5336  -15.3860  -47.1285 C.3       23 UNK        -0.0398 
      7 S7         -2.0504  -16.6980  -48.3009 S.3       23 UNK        -0.2404 
      8 C8         -0.2945  -16.3349  -48.6059 C.3       23 UNK        -0.0205 
      9 C9          0.3126  -17.3473  -49.5651 C.ar      23 UNK        -0.0193 
     10 C10         0.2897  -17.1110  -50.9412 C.ar      23 UNK        -0.1150 
     11 C11         0.8416  -18.0365  -51.8303 C.ar      23 UNK        -0.0193 
     12 C12         1.4172  -19.2083  -51.3303 C.ar      23 UNK        -0.1150 
     13 C13         1.4647  -19.4588  -49.9539 C.ar      23 UNK        -0.0193 
     14 C14         0.9090  -18.5141  -49.0782 C.ar      23 UNK        -0.1150 
     15 C15         2.1555  -20.7434  -49.4786 C.3       23 UNK        -0.0205 
     16 S16         2.0176  -21.1413  -47.6981 S.3       23 UNK        -0.2404 
     17 C17         0.2385  -21.4928  -47.5400 C.3       23 UNK        -0.0398 
     18 CA         -0.0739  -22.7664  -46.7155 C.3       11 UNK         0.1400 
     19 N           0.3336  -22.6927  -45.3032 N.am      11 UNK        -0.5000 
     20 C           0.2162  -23.7075  -44.4287 C.2       10 UNK         0.5000 
     21 O          -0.1800  -24.8299  -44.7413 O.2       10 UNK        -0.5000 
     22 CA          0.5206  -23.4206  -42.9452 C.3       10 UNK         0.1400 
     23 CB          2.0254  -23.4999  -42.6488 C.3       10 UNK        -0.1800 
     24 N          -0.0203  -22.1363  -42.5004 N.am      10 UNK        -0.5000 
     25 C          -1.3309  -21.8571  -42.4291 C.2       9 UNK         0.5000 
     26 O          -2.2171  -22.6816  -42.6524 O.2       9 UNK        -0.5000 
     27 CA         -1.7170  -20.3952  -42.1318 C.3       9 UNK         0.1400 
     28 CB         -1.7202  -20.1117  -40.6227 C.3       9 UNK        -0.1800 
     29 N          -0.8374  -19.4480  -42.8179 N.am      9 UNK        -0.5000 
     30 C          -0.7439  -19.3493  -44.1515 C.2       8 UNK         0.5000 
     31 O          -1.4650  -19.9676  -44.9331 O.2       8 UNK        -0.5000 
     32 CA          0.3733  -18.4530  -44.7065 C.3       8 UNK         0.1400 
     33 CB         -0.1215  -17.0134  -44.8546 C.3       8 UNK        -0.1800 
     34 N           1.5770  -18.4845  -43.8769 N.am      8 UNK        -0.5000 
     35 C           2.4034  -19.5366  -43.8039 C.2       7 UNK         0.5000 
     36 O           2.2371  -20.5714  -44.4450 O.2       7 UNK        -0.5000 
     37 CA          3.5784  -19.4361  -42.8132 C.3       7 UNK         0.1400 
     38 CB          4.7628  -18.6962  -43.4523 C.3       7 UNK        -0.1800 
     39 N           3.2033  -18.7672  -41.5668 N.am      7 UNK        -0.5000 
     40 C           2.3210  -19.2535  -40.6820 C.2       6 UNK         0.5000 
     41 O           1.7923  -20.3600  -40.7893 O.2       6 UNK        -0.5000 
     42 CA          1.9192  -18.3234  -39.5170 C.3       6 UNK         0.1400 
     43 CB          2.8248  -18.5638  -38.3004 C.3       6 UNK        -0.1800 
     44 N           1.9433  -16.8962  -39.8661 N.am      6 UNK        -0.5000 
     45 C           1.2048  -16.3385  -40.8354 C.2       5 UNK         0.5000 
     46 O           0.3968  -16.9788  -41.5158 O.2       5 UNK        -0.5000 
     47 CA          1.4429  -14.8469  -41.1381 C.3       5 UNK         0.1400 
     48 CB          2.9374  -14.5593  -41.4015 C.3       5 UNK        -0.1800 
     49 N           0.6494  -14.5070  -42.3157 N.am      5 UNK        -0.5000 
     50 C           0.4266  -13.2962  -42.8345 C.2       4 UNK         0.5000 
     51 O           0.8093  -12.2404  -42.3245 O.2       4 UNK        -0.5000 
     52 CA         -0.3928  -13.2756  -44.1421 C.3       4 UNK         0.1400 
     53 CB         -1.8879  -13.0941  -43.8384 C.3       4 UNK        -0.1800 
     54 N           0.0327  -12.2502  -45.0973 N.am      4 UNK        -0.5000 
     55 C           1.2668  -12.1164  -45.6065 C.2       3 UNK         0.5000 
     56 O           2.2098  -12.8616  -45.3322 O.2       3 UNK        -0.5000 
     57 CA          1.4450  -10.9733  -46.6299 C.3       3 UNK         0.1400 
     58 CB          2.8939  -10.8308  -47.1430 C.3       3 UNK        -0.1800 
     59 N           0.4995  -11.0882  -47.7476 N.am      3 UNK        -0.5000 
     60 C           0.3947  -12.1093  -48.6112 C.2       2 UNK         0.5000 
     61 O           1.1486  -13.0834  -48.6330 O.2       2 UNK        -0.5000 
     62 CA         -0.7950  -12.0585  -49.5899 C.3       2 UNK         0.1400 
     63 CB         -0.3476  -12.3294  -51.0362 C.3       2 UNK        -0.1800 
     64 N          -1.8054  -13.0473  -49.2165 N.am      2 UNK        -0.5000 
     65 C          -2.5176  -13.0209  -48.0839 C.2       1 UNK         0.5000 
     66 O          -2.4735  -12.0923  -47.2718 O.2       1 UNK        -0.5000 
     67 C          -1.5703  -23.0990  -46.8611 C.2       11 UNK         0.5000 
     68 O          -1.9147  -23.9756  -47.6515 O.2       11 UNK        -0.5000 
     69 N          -2.4246  -22.4121  -46.0906 N.am      12 UNK        -0.5000 
     70 CA         -3.8711  -22.6248  -46.0612 C.3       12 UNK         0.1400 
     71 CB         -4.5349  -21.5292  -45.2145 C.3       12 UNK        -0.1800 
     72 C          -4.2589  -24.0278  -45.5603 C.2       12 UNK         0.5000 
     73 O          -5.1295  -24.6601  -46.1584 O.2       12 UNK        -0.5000 
     74 N          -3.5824  -24.5048  -44.5056 N.am      13 UNK        -0.5000 
     75 CA         -3.7557  -25.8459  -43.9432 C.3       13 UNK         0.1400 
     76 CB         -2.9955  -25.9460  -42.6121 C.3       13 UNK        -0.1800 
     77 C          -3.3155  -26.9640  -44.9074 C.2       13 UNK         0.5000 
     78 O          -4.0016  -27.9813  -45.0123 O.2       13 UNK        -0.5000 
     79 N          -2.1942  -26.7477  -45.6081 N.am      14 UNK        -0.5000 
     80 CA         -1.6532  -27.6583  -46.6199 C.3       14 UNK         0.1400 
     81 CB         -0.1739  -27.3108  -46.8517 C.3       14 UNK        -0.1800 
     82 C          -2.4174  -27.6190  -47.9587 C.2       14 UNK         0.5000 
     83 O          -2.2489  -28.5307  -48.7694 O.2       14 UNK        -0.5000 
     84 N          -3.2046  -26.5550  -48.1772 N.am      15 UNK        -0.5000 
     85 CA         -3.8637  -26.1676  -49.4292 C.3       15 UNK         0.1400 
     86 CB         -4.9324  -27.1988  -49.8460 C.3       15 UNK        -0.1800 
     87 C          -2.8445  -25.8539  -50.5469 C.2       15 UNK         0.5000 
     88 O          -3.0842  -26.1502  -51.7193 O.2       15 UNK        -0.5000 
     89 N          -1.7163  -25.2450  -50.1597 N.am      16 UNK        -0.5000 
     90 CA         -0.5905  -24.8804  -51.0170 C.3       16 UNK         0.1400 
     91 CB          0.6893  -24.8414  -50.1633 C.3       16 UNK        -0.1800 
     92 C          -0.8599  -23.5488  -51.7417 C.2       16 UNK         0.5000 
     93 O          -0.1512  -22.5653  -51.5246 O.2       16 UNK        -0.5000 
     94 N          -1.9175  -23.5379  -52.5619 N.am      17 UNK        -0.5000 
     95 CA         -2.4365  -22.4510  -53.4017 C.3       17 UNK         0.1400 
     96 CB         -1.4006  -22.0167  -54.4530 C.3       17 UNK        -0.1800 
     97 C          -3.0252  -21.2445  -52.6383 C.2       17 UNK         0.5000 
     98 O          -4.0745  -20.7443  -53.0483 O.2       17 UNK        -0.5000 
     99 N          -2.3651  -20.8365  -51.5438 N.am      18 UNK        -0.5000 
    100 CA        -2.7996  -19.9153  -50.4865 C.3       18 UNK         0.1400 
    101 CB        -3.6858  -20.6809  -49.4858 C.3       18 UNK        -0.1800 
    102 C         -3.4586  -18.6189  -51.0012 C.2       18 UNK         0.5000 
    103 O         -4.5986  -18.3115  -50.6465 O.2       18 UNK        -0.5000 
    104 N         -2.7309  -17.9111  -51.8739 N.am      19 UNK        -0.5000 
    105 CA        -3.0661  -16.6685  -52.5817 C.3       19 UNK         0.1400 
    106 CB        -3.3767  -15.5168  -51.6090 C.3       19 UNK        -0.1800 
    107 C         -4.1677  -16.8193  -53.6465 C.2       19 UNK         0.5000 
    108 O         -4.0268  -16.2612  -54.7346 O.2       19 UNK        -0.5000 
    109 N         -5.2246  -17.5763  -53.3320 N.am      20 UNK        -0.5000 
    110 CA        -6.4061  -17.8040  -54.1628 C.3       20 UNK         0.1400 
    111 CB        -7.4126  -18.6570  -53.3759 C.3       20 UNK        -0.1800 
    112 C         -6.0986  -18.4505  -55.5251 C.2       20 UNK         0.5000 
    113 O         -6.6838  -18.0421  -56.5292 O.2       20 UNK        -0.5000 
    114 N         -5.1838  -19.4286  -55.5372 N.am      21 UNK        -0.5000 
    115 CA        -4.7658  -20.1527  -56.7408 C.3       21 UNK         0.1400 
    116 CB        -4.9257  -21.6608  -56.4931 C.3       21 UNK        -0.1800 
    117 C         -3.3305  -19.8000  -57.1787 C.2       21 UNK         0.5000 
    118 O         -2.8155  -20.4352  -58.1000 O.2       21 UNK        -0.5000 
    119 N         -2.7011  -18.8091  -56.5307 N.am      22 UNK        -0.5000 
    120 CA        -1.3426  -18.3361  -56.8613 C.3       22 UNK         0.1400 
    121 C         -1.2584  -17.4793  -58.1603 C.2       22 UNK         0.5000 
    122 N         -2.3642  -17.0128  -58.7282 N.am      22 UNK        -0.7600 
    123 O         -0.1661  -17.2389  -58.6673 O.2       22 UNK        -0.5000 
    124 C124       -0.6738  -17.5873  -55.6803 C.3       23 UNK        -0.0398 
    125 S125       -0.5183  -18.6059  -54.1759 S.3       23 UNK        -0.2404 
    126 C126        0.8419  -17.7509  -53.3251 C.3       23 UNK        -0.0205 
    127 H127       -6.4159  -13.2617  -45.3658 H         1 UNK         0.0600 
    128 H128       -7.6247  -13.2886  -46.6528 H         1 UNK         0.0600 
    129 H129       -6.7761  -11.7874  -46.2679 H         1 UNK         0.0600 
    130 H130       -4.4767  -14.1540  -45.9817 H         1 UNK         0.3000 
    131 H131       -3.7833  -14.6285  -48.7364 H         1 UNK         0.0600 
    132 H132       -1.6508  -14.9923  -46.6212 H         1 UNK         0.0800 
    133 H133       -3.1080  -15.8881  -46.3486 H         1 UNK         0.0800 
    134 H134       -0.1947  -15.3324  -49.0195 H         1 UNK         0.0800 
    135 H135        0.2572  -16.3345  -47.6660 H         1 UNK         0.0800 
    136 H136       -0.1573  -16.2027  -51.3196 H         1 UNK         0.1150 
    137 H137        1.8434  -19.9250  -52.0188 H         1 UNK         0.1150 
    138 H138        0.9398  -18.6695  -48.0116 H         1 UNK         0.1150 
    139 H139        1.7813  -21.5912  -50.0528 H         1 UNK         0.0800 
    140 H140        3.2163  -20.6617  -49.7181 H         1 UNK         0.0800 
    141 H141       -0.1740  -21.5902  -48.5469 H         1 UNK         0.0800 
    142 H142       -0.2476  -20.6193  -47.1076 H         1 UNK         0.0800 
    143 H143        0.4819  -23.5971  -47.1531 H         1 UNK         0.0600 
    144 H144        0.7453  -21.8197  -44.9894 H         1 UNK         0.3000 
    145 H145        0.0317  -24.1991  -42.3559 H         1 UNK         0.0600 
    146 H146        2.2294  -23.3178  -41.5934 H         1 UNK         0.0600 
    147 H147        2.4141  -24.4899  -42.8899 H         1 UNK         0.0600 
    148 H148        2.5980  -22.7782  -43.2285 H         1 UNK         0.0600 
    149 H149        0.6476  -21.4140  -42.2577 H         1 UNK         0.3000 
    150 H150       -2.7305  -20.2364  -42.5058 H         1 UNK         0.0600 
    151 H151       -2.4444  -20.7476  -40.1122 H         1 UNK         0.0600 
    152 H152       -1.9917  -19.0764  -40.4155 H         1 UNK         0.0600 
    153 H153       -0.7476  -20.3004  -40.1703 H         1 UNK         0.0600 
    154 H154       -0.2430  -18.8615  -42.2438 H         1 UNK         0.3000 
    155 H155        0.6370  -18.8224  -45.6987 H         1 UNK         0.0600 
    156 H156       -0.4779  -16.6049  -43.9110 H         1 UNK         0.0600 
    157 H157        0.6602  -16.3621  -45.2454 H         1 UNK         0.0600 
    158 H158       -0.9594  -16.9848  -45.5468 H         1 UNK         0.0600 
    159 H159        1.7298  -17.6988  -43.2624 H         1 UNK         0.3000 
    160 H160        3.8984  -20.4520  -42.5717 H         1 UNK         0.0600 
    161 H161        5.6265  -18.6861  -42.7873 H         1 UNK         0.0600 
    162 H162        4.5116  -17.6625  -43.6932 H         1 UNK         0.0600 
    163 H163        5.0722  -19.1833  -44.3781 H         1 UNK         0.0600 
    164 H164        3.6018  -17.8558  -41.3977 H         1 UNK         0.3000 
    165 H165        0.8953  -18.5776  -39.2357 H         1 UNK         0.0600 
    166 H166        2.4946  -17.9801  -37.4409 H         1 UNK         0.0600 
    167 H167        2.8093  -19.6135  -38.0035 H         1 UNK         0.0600 
    168 H168        3.8614  -18.2972  -38.5105 H         1 UNK         0.0600 
    169 H169        2.5847  -16.3175  -39.3432 H         1 UNK         0.3000 
    170 H170        1.0911  -14.2608  -40.2874 H         1 UNK         0.0600 
    171 H171        3.1080  -13.5098  -41.6406 H         1 UNK         0.0600 
    172 H172        3.3188  -15.1528  -42.2335 H         1 UNK         0.0600 
    173 H173        3.5499  -14.7820  -40.5275 H         1 UNK         0.0600 
    174 H174        0.2217  -15.3222  -42.7363 H         1 UNK         0.3000 
    175 H175       -0.2613  -14.2336  -44.6437 H         1 UNK         0.0600 
    176 H176       -2.4890  -13.1625  -44.7443 H         1 UNK         0.0600 
    177 H177       -2.0874  -12.1265  -43.3761 H         1 UNK         0.0600 
    178 H178       -2.2459  -13.8649  -43.1546 H         1 UNK         0.0600 
    179 H179       -0.6858  -11.6136  -45.4119 H         1 UNK         0.3000 
    180 H180        1.1948  -10.0500  -46.1051 H         1 UNK         0.0600 
    181 H181        3.2378  -11.7296  -47.6555 H         1 UNK         0.0600 
    182 H182        3.5812  -10.6449  -46.3170 H         1 UNK         0.0600 
    183 H183        2.9857   -9.9945  -47.8360 H         1 UNK         0.0600 
    184 H184       -0.2027  -10.3626  -47.7923 H         1 UNK         0.3000 
    185 H185       -1.2495  -11.0662  -49.5539 H         1 UNK         0.0600 
    186 H186        0.0782  -13.3274  -51.1496 H         1 UNK         0.0600 
    187 H187       -1.1835  -12.2418  -51.7305 H         1 UNK         0.0600 
    188 H188        0.4115  -11.6115  -51.3491 H         1 UNK         0.0600 
    189 H189       -1.8808  -13.8508  -49.8206 H         1 UNK         0.3000 
    190 H190       -2.0618  -21.6654  -45.5028 H         1 UNK         0.3000 
    191 H191       -4.2407  -22.5290  -47.0838 H         1 UNK         0.0600 
    192 H192       -4.3150  -20.5381  -45.6121 H         1 UNK         0.0600 
    193 H193       -5.6193  -21.6447  -45.2069 H         1 UNK         0.0600 
    194 H194       -4.1939  -21.5566  -44.1795 H         1 UNK         0.0600 
    195 H195       -2.9166  -23.8975  -44.0364 H         1 UNK         0.3000 
    196 H196       -4.8188  -25.9860  -43.7367 H         1 UNK         0.0600 
    197 H197       -3.1265  -26.9297  -42.1597 H         1 UNK         0.0600 
    198 H198       -3.3564  -25.2076  -41.8959 H         1 UNK         0.0600 
    199 H199       -1.9255  -25.7855  -42.7467 H         1 UNK         0.0600 
    200 H200       -1.6482  -25.9121  -45.4149 H         1 UNK         0.3000 
    201 H201       -1.7096  -28.6793  -46.2370 H         1 UNK         0.0600 
    202 H202        0.4008  -27.3981  -45.9296 H         1 UNK         0.0600 
    203 H203       -0.0561  -26.2921  -47.2238 H         1 UNK         0.0600 
    204 H204        0.2793  -27.9822  -47.5821 H         1 UNK         0.0600 
    205 H205       -3.2269  -25.8510  -47.4506 H         1 UNK         0.3000 
    206 H206       -4.3779  -25.2289  -49.2179 H         1 UNK         0.0600 
    207 H207       -5.6261  -27.3980  -49.0291 H         1 UNK         0.0600 
    208 H208       -5.5200  -26.8310  -50.6878 H         1 UNK         0.0600 
    209 H209       -4.4886  -28.1471  -50.1494 H         1 UNK         0.0600 
    210 H210       -1.6603  -24.9405  -49.1902 H         1 UNK         0.3000 
    211 H211       -0.4585  -25.6507  -51.7795 H         1 UNK         0.0600 
    212 H212        0.6407  -24.0636  -49.4026 H         1 UNK         0.0600 
    213 H213        1.5639  -24.6378  -50.7821 H         1 UNK         0.0600 
    214 H214        0.8599  -25.7939  -49.6614 H         1 UNK         0.0600 
    215 H215       -2.4556  -24.3979  -52.5971 H         1 UNK         0.3000 
    216 H216       -3.2717  -22.9043  -53.9345 H         1 UNK         0.0600 
    217 H217       -1.8090  -21.2497  -55.1096 H         1 UNK         0.0600 
    218 H218       -1.1021  -22.8554  -55.0816 H         1 UNK         0.0600 
    219 H219       -0.5012  -21.6063  -53.9941 H         1 UNK         0.0600 
    220 H220       -1.4769  -21.3042  -51.3755 H         1 UNK         0.3000 
    221 H221       -1.8965  -19.6082  -49.9565 H         1 UNK         0.0600 
    222 H222       -4.6161  -21.0146  -49.9468 H         1 UNK         0.0600 
    223 H223       -3.1696  -21.5599  -49.1005 H         1 UNK         0.0600 
    224 H224       -3.9439  -20.0546  -48.6307 H         1 UNK         0.0600 
    225 H225       -1.8376  -18.3070  -52.1383 H         1 UNK         0.3000 
    226 H226       -2.1602  -16.3848  -53.1175 H         1 UNK         0.0600 
    227 H227       -2.5415  -15.3480  -50.9320 H         1 UNK         0.0600 
    228 H228       -3.5485  -14.5856  -52.1502 H         1 UNK         0.0600 
    229 H229       -4.2658  -15.7126  -51.0093 H         1 UNK         0.0600 
    230 H230       -5.2270  -17.9973  -52.4067 H         1 UNK         0.3000 
    231 H231       -6.8610  -16.8305  -54.3561 H         1 UNK         0.0600 
    232 H232       -6.9923  -19.6280  -53.1094 H         1 UNK         0.0600 
    233 H233       -8.3160  -18.8371  -53.9600 H         1 UNK         0.0600 
    234 H234       -7.7150  -18.1595  -52.4541 H         1 UNK         0.0600 
    235 H235       -4.7693  -19.7250  -54.6575 H         1 UNK         0.3000 
    236 H236       -5.4101  -19.8950  -57.5834 H         1 UNK         0.0600 
    237 H237       -4.2535  -22.0087  -55.7132 H         1 UNK         0.0600 
    238 H238       -5.9445  -21.9058  -56.1927 H         1 UNK         0.0600 
    239 H239       -4.7072  -22.2346  -57.3944 H         1 UNK         0.0600 
    240 H240       -3.1955  -18.3037  -55.8096 H         1 UNK         0.3000 
    241 H241       -0.7331  -19.2206  -57.0575 H         1 UNK         0.0600 
    242 H242       -3.2670  -17.1935  -58.3194 H         1 UNK         0.3800 
    243 H243       -2.2961  -16.4638  -59.5710 H         1 UNK         0.3800 
    244 H244        0.3274  -17.2577  -55.9647 H         1 UNK         0.0800 
    245 H245       -1.2349  -16.6841  -55.4358 H         1 UNK         0.0800 
    246 H246        0.7612  -16.6759  -53.4950 H         1 UNK         0.0800 
    247 H247        1.7918  -18.0600  -53.7638 H         1 UNK         0.0800 
@<TRIPOS>BOND
     1    1    2 1    
     2    1  127 1    
     3    1  128 1    
     4    1  129 1    
     5    2    3 2    
     6    2    4 am   BACKBONE|DICT|INTERRES
     7    4    5 1    
     8    4  130 1    
     9    5    6 1    
    10    5   65 1    
    11    5  131 1    
    12    6    7 1    
    13    6  132 1    
    14    6  133 1    
    15    7    8 1    
    16    8    9 1    
    17    8  134 1    
    18    8  135 1    
    19    9   10 ar   
    20    9   14 ar   
    21   10   11 ar   
    22   10  136 1    
    23   11   12 ar   
    24   11  126 1    
    25   12   13 ar   
    26   12  137 1    
    27   13   14 ar   
    28   13   15 1    
    29   14  138 1    
    30   15   16 1    
    31   15  139 1    
    32   15  140 1    
    33   16   17 1    
    34   17   18 1    
    35   17  141 1    
    36   17  142 1    
    37   18   19 1    
    38   18   67 1    
    39   18  143 1    
    40   19   20 am   BACKBONE|DICT|INTERRES
    41   19  144 1    
    42   20   21 2    
    43   20   22 1    
    44   22   23 1    
    45   22   24 1    
    46   22  145 1    
    47   23  146 1    
    48   23  147 1    
    49   23  148 1    
    50   24   25 am   BACKBONE|DICT|INTERRES
    51   24  149 1    
    52   25   26 2    
    53   25   27 1    
    54   27   28 1    
    55   27   29 1    
    56   27  150 1    
    57   28  151 1    
    58   28  152 1    
    59   28  153 1    
    60   29   30 am   BACKBONE|DICT|INTERRES
    61   29  154 1    
    62   30   31 2    
    63   30   32 1    
    64   32   33 1    
    65   32   34 1    
    66   32  155 1    
    67   33  156 1    
    68   33  157 1    
    69   33  158 1    
    70   34   35 am   BACKBONE|DICT|INTERRES
    71   34  159 1    
    72   35   36 2    
    73   35   37 1    
    74   37   38 1    
    75   37   39 1    
    76   37  160 1    
    77   38  161 1    
    78   38  162 1    
    79   38  163 1    
    80   39   40 am   BACKBONE|DICT|INTERRES
    81   39  164 1    
    82   40   41 2    
    83   40   42 1    
    84   42   43 1    
    85   42   44 1    
    86   42  165 1    
    87   43  166 1    
    88   43  167 1    
    89   43  168 1    
    90   44   45 am   BACKBONE|DICT|INTERRES
    91   44  169 1    
    92   45   46 2    
    93   45   47 1    
    94   47   48 1    
    95   47   49 1    
    96   47  170 1    
    97   48  171 1    
    98   48  172 1    
    99   48  173 1    
   100   49   50 am   BACKBONE|DICT|INTERRES
   101   49  174 1    
   102   50   51 2    
   103   50   52 1    
   104   52   53 1    
   105   52   54 1    
   106   52  175 1    
   107   53  176 1    
   108   53  177 1    
   109   53  178 1    
   110   54   55 am   BACKBONE|DICT|INTERRES
   111   54  179 1    
   112   55   56 2    
   113   55   57 1    
   114   57   58 1    
   115   57   59 1    
   116   57  180 1    
   117   58  181 1    
   118   58  182 1    
   119   58  183 1    
   120   59   60 am   BACKBONE|DICT|INTERRES
   121   59  184 1    
   122   60   61 2    
   123   60   62 1    
   124   62   63 1    
   125   62   64 1    
   126   62  185 1    
   127   63  186 1    
   128   63  187 1    
   129   63  188 1    
   130   64   65 am   BACKBONE|DICT|INTERRES
   131   64  189 1    
   132   65   66 2    
   133   67   68 2    
   134   67   69 am   BACKBONE|DICT|INTERRES
   135   69   70 1    
   136   69  190 1    
   137   70   71 1    
   138   70   72 1    
   139   70  191 1    
   140   71  192 1    
   141   71  193 1    
   142   71  194 1    
   143   72   73 2    
   144   72   74 am   BACKBONE|DICT|INTERRES
   145   74   75 1    
   146   74  195 1    
   147   75   76 1    
   148   75   77 1    
   149   75  196 1    
   150   76  197 1    
   151   76  198 1    
   152   76  199 1    
   153   77   78 2    
   154   77   79 am   BACKBONE|DICT|INTERRES
   155   79   80 1    
   156   79  200 1    
   157   80   81 1    
   158   80   82 1    
   159   80  201 1    
   160   81  202 1    
   161   81  203 1    
   162   81  204 1    
   163   82   83 2    
   164   82   84 am   BACKBONE|DICT|INTERRES
   165   84   85 1    
   166   84  205 1    
   167   85   86 1    
   168   85   87 1    
   169   85  206 1    
   170   86  207 1    
   171   86  208 1    
   172   86  209 1    
   173   87   88 2    
   174   87   89 am   BACKBONE|DICT|INTERRES
   175   89   90 1    
   176   89  210 1    
   177   90   91 1    
   178   90   92 1    
   179   90  211 1    
   180   91  212 1    
   181   91  213 1    
   182   91  214 1    
   183   92   93 2    
   184   92   94 am   BACKBONE|DICT|INTERRES
   185   94   95 1    
   186   94  215 1    
   187   95   96 1    
   188   95   97 1    
   189   95  216 1    
   190   96  217 1    
   191   96  218 1    
   192   96  219 1    
   193   97   98 2    
   194   97   99 am   BACKBONE|DICT|INTERRES
   195   99  100 1    
   196   99  220 1    
   197  100  101 1    
   198  100  102 1    
   199  100  221 1    
   200  101  222 1    
   201  101  223 1    
   202  101  224 1    
   203  102  103 2    
   204  102  104 am   BACKBONE|DICT|INTERRES
   205  104  105 1    
   206  104  225 1    
   207  105  106 1    
   208  105  107 1    
   209  105  226 1    
   210  106  227 1    
   211  106  228 1    
   212  106  229 1    
   213  107  108 2    
   214  107  109 am   BACKBONE|DICT|INTERRES
   215  109  110 1    
   216  109  230 1    
   217  110  111 1    
   218  110  112 1    
   219  110  231 1    
   220  111  232 1    
   221  111  233 1    
   222  111  234 1    
   223  112  113 2    
   224  112  114 am   BACKBONE|DICT|INTERRES
   225  114  115 1    
   226  114  235 1    
   227  115  116 1    
   228  115  117 1    
   229  115  236 1    
   230  116  237 1    
   231  116  238 1    
   232  116  239 1    
   233  117  118 2    
   234  117  119 am   BACKBONE|DICT|INTERRES
   235  119  120 1    
   236  119  240 1    
   237  120  121 1    
   238  120  124 1    
   239  120  241 1    
   240  121  122 am   BACKBONE|DICT|INTERRES
   241  121  123 2    
   242  122  242 1    
   243  122  243 1    
   244  124  125 1    
   245  124  244 1    
   246  124  245 1    
   247  125  126 1    
   248  126  246 1    
   249  126  247 1    
@<TRIPOS>SUBSTRUCTURE
     1 UNK         1 GROUP             0       ****    0 ROOT    
