@<TRIPOS>MOLECULE
3R540
247   249    1
SMALL
USER_CHARGES


@<TRIPOS>ATOM
      1 CA         -3.5239  -13.3462  -46.8274 C.3       0 UNK        -0.1800 
      2 C          -2.4899  -12.6807  -47.7257 C.2       0 UNK         0.5000 
      3 O          -2.6923  -11.5463  -48.1581 O.2       0 UNK        -0.5000 
      4 N          -1.3854  -13.3852  -48.0092 N.am      1 UNK        -0.5000 
      5 CA         -0.2736  -12.9258  -48.8557 C.3       1 UNK         0.1400 
      6 C6          0.6701  -14.1048  -49.2086 C.3       23 UNK        -0.0398 
      7 S7          1.6512  -13.8341  -50.7234 S.3       23 UNK        -0.2404 
      8 C8          2.9417  -15.1092  -50.5468 C.3       23 UNK        -0.0205 
      9 C9          2.4414  -16.4848  -50.9653 C.ar      23 UNK        -0.0193 
     10 C10         2.6284  -16.9325  -52.2753 C.ar      23 UNK        -0.1150 
     11 C11         2.1687  -18.1927  -52.6727 C.ar      23 UNK        -0.0193 
     12 C12         1.5112  -19.0089  -51.7453 C.ar      23 UNK        -0.1150 
     13 C13         1.3330  -18.5774  -50.4263 C.ar      23 UNK        -0.0193 
     14 C14         1.8053  -17.3188  -50.0435 C.ar      23 UNK        -0.1150 
     15 C15         0.6361  -19.4619  -49.4054 C.3       23 UNK        -0.0205 
     16 S16         1.8081  -20.6021  -48.6083 S.3       23 UNK        -0.2404 
     17 C17         1.3542  -22.2026  -49.3705 C.3       23 UNK        -0.0398 
     18 CA          0.5444  -23.1342  -48.4304 C.3       11 UNK         0.1400 
     19 N           1.2535  -23.3800  -47.1706 N.am      11 UNK        -0.5000 
     20 C           0.9197  -24.3001  -46.2561 C.2       10 UNK         0.5000 
     21 O          -0.0353  -25.0661  -46.3724 O.2       10 UNK        -0.5000 
     22 CA          1.7705  -24.3332  -44.9725 C.3       10 UNK         0.1400 
     23 CB          2.9858  -25.2534  -45.1591 C.3       10 UNK        -0.1800 
     24 N           2.2274  -23.0104  -44.5356 N.am      10 UNK        -0.5000 
     25 C           1.4271  -21.9852  -44.2136 C.2       9 UNK         0.5000 
     26 O           0.1965  -22.0249  -44.2897 O.2       9 UNK        -0.5000 
     27 CA          2.1335  -20.6810  -43.8169 C.3       9 UNK         0.1400 
     28 CB          2.4177  -19.8369  -45.0663 C.3       9 UNK        -0.1800 
     29 N           1.3321  -19.8851  -42.8932 N.am      9 UNK        -0.5000 
     30 C           1.2607  -20.0863  -41.5716 C.2       8 UNK         0.5000 
     31 O           1.8134  -21.0248  -40.9938 O.2       8 UNK        -0.5000 
     32 CA          0.4837  -19.0165  -40.7683 C.3       8 UNK         0.1400 
     33 CB          0.6305  -19.1729  -39.2408 C.3       8 UNK        -0.1800 
     34 N           0.8239  -17.6474  -41.1874 N.am      8 UNK        -0.5000 
     35 C           2.0509  -17.0978  -41.2117 C.2       7 UNK         0.5000 
     36 O           3.0520  -17.6352  -40.7349 O.2       7 UNK        -0.5000 
     37 CA          2.1823  -15.7614  -41.9659 C.3       7 UNK         0.1400 
     38 CB          3.6540  -15.3328  -42.1637 C.3       7 UNK        -0.1800 
     39 N           1.4885  -15.9022  -43.2442 N.am      7 UNK        -0.5000 
     40 C           1.2725  -14.9736  -44.1777 C.2       6 UNK         0.5000 
     41 O           1.7125  -13.8253  -44.1390 O.2       6 UNK        -0.5000 
     42 CA          0.3545  -15.3845  -45.3410 C.3       6 UNK         0.1400 
     43 CB          1.0449  -16.3575  -46.3125 C.3       6 UNK        -0.1800 
     44 N          -0.9479  -15.8843  -44.8852 N.am      6 UNK        -0.5000 
     45 C          -1.2373  -17.0342  -44.2563 C.2       5 UNK         0.5000 
     46 O          -0.4105  -17.9197  -44.0294 O.2       5 UNK        -0.5000 
     47 CA         -2.6824  -17.1550  -43.7222 C.3       5 UNK         0.1400 
     48 CB         -2.8925  -18.3360  -42.7510 C.3       5 UNK        -0.1800 
     49 N          -3.1509  -15.9043  -43.1120 N.am      5 UNK        -0.5000 
     50 C          -2.5560  -15.2374  -42.1108 C.2       4 UNK         0.5000 
     51 O          -1.5540  -15.6342  -41.5076 O.2       4 UNK        -0.5000 
     52 CA         -3.1636  -13.8669  -41.7593 C.3       4 UNK         0.1400 
     53 CB         -3.7767  -13.8868  -40.3509 C.3       4 UNK        -0.1800 
     54 N          -2.1631  -12.8017  -41.8357 N.am      4 UNK        -0.5000 
     55 C          -1.4592  -12.4798  -42.9296 C.2       3 UNK         0.5000 
     56 O          -1.6398  -13.0015  -44.0357 O.2       3 UNK        -0.5000 
     57 CA         -0.3774  -11.3976  -42.7479 C.3       3 UNK         0.1400 
     58 CB          0.5808  -11.7360  -41.5908 C.3       3 UNK        -0.1800 
     59 N           0.4076  -11.2817  -43.9732 N.am      3 UNK        -0.5000 
     60 C           0.3038  -10.2960  -44.8708 C.2       2 UNK         0.5000 
     61 O          -0.3995   -9.2952  -44.7238 O.2       2 UNK        -0.5000 
     62 CA          1.0820  -10.4918  -46.1761 C.3       2 UNK         0.1400 
     63 CB          2.5856  -10.7373  -45.9441 C.3       2 UNK        -0.1800 
     64 N           0.4827  -11.5999  -46.9138 N.am      2 UNK        -0.5000 
     65 C           0.5023  -11.7304  -48.2468 C.2       1 UNK         0.5000 
     66 O           1.0825  -10.9408  -48.9939 O.2       1 UNK        -0.5000 
     67 C          -0.9000  -22.6214  -48.2262 C.2       11 UNK         0.5000 
     68 O          -1.7704  -22.8984  -49.0545 O.2       11 UNK        -0.5000 
     69 N          -1.1220  -21.8892  -47.1272 N.am      12 UNK        -0.5000 
     70 CA         -2.4281  -21.3956  -46.7103 C.3       12 UNK         0.1400 
     71 CB         -2.2501  -20.0604  -45.9794 C.3       12 UNK        -0.1800 
     72 C          -3.1509  -22.4246  -45.8263 C.2       12 UNK         0.5000 
     73 O          -4.3536  -22.6235  -45.9934 O.2       12 UNK        -0.5000 
     74 N          -2.4084  -23.0819  -44.9229 N.am      13 UNK        -0.5000 
     75 CA         -2.9193  -24.1053  -44.0067 C.3       13 UNK         0.1400 
     76 CB         -1.8217  -24.4928  -43.0065 C.3       13 UNK        -0.1800 
     77 C          -3.4664  -25.3571  -44.7200 C.2       13 UNK         0.5000 
     78 O          -4.4304  -25.9535  -44.2370 O.2       13 UNK        -0.5000 
     79 N          -2.8801  -25.7128  -45.8721 N.am      14 UNK        -0.5000 
     80 CA         -3.3126  -26.7919  -46.7643 C.3       14 UNK         0.1400 
     81 CB         -2.1426  -27.1622  -47.6938 C.3       14 UNK        -0.1800 
     82 C          -4.5933  -26.4291  -47.5499 C.2       14 UNK         0.5000 
     83 O          -4.5804  -26.4072  -48.7823 O.2       14 UNK        -0.5000 
     84 N          -5.6708  -26.1112  -46.8166 N.am      15 UNK        -0.5000 
     85 CA         -7.0162  -25.7516  -47.2894 C.3       15 UNK         0.1400 
     86 CB         -7.7154  -26.9967  -47.8728 C.3       15 UNK        -0.1800 
     87 C          -7.0451  -24.5537  -48.2666 C.2       15 UNK         0.5000 
     88 O          -7.9548  -24.4561  -49.0918 O.2       15 UNK        -0.5000 
     89 N          -6.0268  -23.6855  -48.1744 N.am      16 UNK        -0.5000 
     90 CA         -5.7086  -22.5689  -49.0666 C.3       16 UNK         0.1400 
     91 CB         -6.7524  -21.4430  -48.9218 C.3       16 UNK        -0.1800 
     92 C          -5.4712  -22.9734  -50.5376 C.2       16 UNK         0.5000 
     93 O          -5.5555  -22.1125  -51.4119 O.2       16 UNK        -0.5000 
     94 N          -5.1679  -24.2532  -50.8045 N.am      17 UNK        -0.5000 
     95 CA         -5.0343  -24.7990  -52.1563 C.3       17 UNK         0.1400 
     96 CB         -4.9329  -26.3302  -52.0888 C.3       17 UNK        -0.1800 
     97 C          -3.8457  -24.1989  -52.9234 C.2       17 UNK         0.5000 
     98 O          -4.0180  -23.7256  -54.0470 O.2       17 UNK        -0.5000 
     99 N          -2.6694  -24.1875  -52.2835 N.am      18 UNK        -0.5000 
    100 CA        -1.4490  -23.6088  -52.8453 C.3       18 UNK         0.1400 
    101 CB        -0.2281  -24.1704  -52.1082 C.3       18 UNK        -0.1800 
    102 C         -1.4648  -22.0689  -52.8359 C.2       18 UNK         0.5000 
    103 O         -0.8482  -21.4570  -53.7070 O.2       18 UNK        -0.5000 
    104 N         -2.1954  -21.4696  -51.8839 N.am      19 UNK        -0.5000 
    105 CA        -2.4682  -20.0326  -51.8355 C.3       19 UNK         0.1400 
    106 CB        -3.1098  -19.6665  -50.4872 C.3       19 UNK        -0.1800 
    107 C         -3.3485  -19.5758  -53.0140 C.2       19 UNK         0.5000 
    108 O         -3.0179  -18.5868  -53.6668 O.2       19 UNK        -0.5000 
    109 N         -4.4241  -20.3266  -53.2944 N.am      20 UNK        -0.5000 
    110 CA        -5.3260  -20.1066  -54.4264 C.3       20 UNK         0.1400 
    111 CB        -6.5623  -21.0078  -54.2889 C.3       20 UNK        -0.1800 
    112 C         -4.6349  -20.3313  -55.7821 C.2       20 UNK         0.5000 
    113 O         -4.8101  -19.5207  -56.6934 O.2       20 UNK        -0.5000 
    114 N         -3.8149  -21.3897  -55.8759 N.am      21 UNK        -0.5000 
    115 CA        -2.9924  -21.7104  -57.0484 C.3       21 UNK         0.1400 
    116 CB        -2.3134  -23.0717  -56.8411 C.3       21 UNK        -0.1800 
    117 C         -1.9407  -20.6330  -57.3851 C.2       21 UNK         0.5000 
    118 O         -1.5121  -20.5476  -58.5367 O.2       21 UNK        -0.5000 
    119 N         -1.5679  -19.8179  -56.3901 N.am      22 UNK        -0.5000 
    120 CA        -0.7354  -18.6180  -56.5455 C.3       22 UNK         0.1400 
    121 C         -1.4385  -17.4346  -57.2815 C.2       22 UNK         0.5000 
    122 N         -2.7510  -17.4545  -57.4907 N.am      22 UNK        -0.7600 
    123 O         -0.7784  -16.4815  -57.6855 O.2       22 UNK        -0.5000 
    124 C124       -0.1384  -18.1684  -55.1826 C.3       23 UNK        -0.0398 
    125 S125        1.5957  -17.6254  -55.3348 S.3       23 UNK        -0.2404 
    126 C126        2.4196  -18.6759  -54.0951 C.3       23 UNK        -0.0205 
    127 H127       -3.2075  -14.3394  -46.5086 H         1 UNK         0.0600 
    128 H128       -4.4726  -13.4440  -47.3553 H         1 UNK         0.0600 
    129 H129       -3.6897  -12.7410  -45.9359 H         1 UNK         0.0600 
    130 H130       -1.3074  -14.3263  -47.6543 H         1 UNK         0.3000 
    131 H131       -0.7246  -12.5681  -49.7844 H         1 UNK         0.0600 
    132 H132        1.3405  -14.3220  -48.3767 H         1 UNK         0.0800 
    133 H133        0.0859  -15.0106  -49.3764 H         1 UNK         0.0800 
    134 H134        3.3104  -15.1336  -49.5202 H         1 UNK         0.0800 
    135 H135        3.7957  -14.8257  -51.1643 H         1 UNK         0.0800 
    136 H136        3.1325  -16.2984  -52.9914 H         1 UNK         0.1150 
    137 H137        1.1533  -19.9848  -52.0437 H         1 UNK         0.1150 
    138 H138        1.6794  -16.9871  -49.0246 H         1 UNK         0.1150 
    139 H139        0.1681  -18.8484  -48.6340 H         1 UNK         0.0800 
    140 H140       -0.1736  -20.0141  -49.8797 H         1 UNK         0.0800 
    141 H141        2.2820  -22.7018  -49.6525 H         1 UNK         0.0800 
    142 H142        0.8257  -22.0340  -50.3096 H         1 UNK         0.0800 
    143 H143        0.4577  -24.1050  -48.9208 H         1 UNK         0.0600 
    144 H144        2.0426  -22.7785  -46.9835 H         1 UNK         0.3000 
    145 H145        1.1545  -24.7485  -44.1746 H         1 UNK         0.0600 
    146 H146        3.5470  -25.3597  -44.2305 H         1 UNK         0.0600 
    147 H147        2.6749  -26.2535  -45.4647 H         1 UNK         0.0600 
    148 H148        3.6665  -24.8737  -45.9221 H         1 UNK         0.0600 
    149 H149        3.2272  -22.8875  -44.4634 H         1 UNK         0.3000 
    150 H150        3.0844  -20.9227  -43.3373 H         1 UNK         0.0600 
    151 H151        3.0826  -20.3622  -45.7526 H         1 UNK         0.0600 
    152 H152        2.9011  -18.8952  -44.8056 H         1 UNK         0.0600 
    153 H153        1.4993  -19.6081  -45.6090 H         1 UNK         0.0600 
    154 H154        0.7621  -19.1524  -43.3082 H         1 UNK         0.3000 
    155 H155       -0.5666  -19.1693  -41.0102 H         1 UNK         0.0600 
    156 H156        1.6685  -19.0816  -38.9198 H         1 UNK         0.0600 
    157 H157        0.2718  -20.1491  -38.9127 H         1 UNK         0.0600 
    158 H158        0.0482  -18.4191  -38.7111 H         1 UNK         0.0600 
    159 H159        0.0496  -17.0980  -41.5453 H         1 UNK         0.3000 
    160 H160        1.6674  -15.0040  -41.3732 H         1 UNK         0.0600 
    161 H161        4.1906  -16.0339  -42.8038 H         1 UNK         0.0600 
    162 H162        4.1807  -15.2864  -41.2097 H         1 UNK         0.0600 
    163 H163        3.7331  -14.3425  -42.6104 H         1 UNK         0.0600 
    164 H164        1.0420  -16.8018  -43.3954 H         1 UNK         0.3000 
    165 H165        0.1399  -14.4716  -45.8958 H         1 UNK         0.0600 
    166 H166        1.3382  -17.2846  -45.8257 H         1 UNK         0.0600 
    167 H167        0.3861  -16.6119  -47.1419 H         1 UNK         0.0600 
    168 H168        1.9526  -15.9171  -46.7258 H         1 UNK         0.0600 
    169 H169       -1.6755  -15.1810  -44.8829 H         1 UNK         0.3000 
    170 H170       -3.3069  -17.3342  -44.5983 H         1 UNK         0.0600 
    171 H171       -2.4961  -19.2696  -43.1491 H         1 UNK         0.0600 
    172 H172       -2.4138  -18.1598  -41.7897 H         1 UNK         0.0600 
    173 H173       -3.9538  -18.4944  -42.5609 H         1 UNK         0.0600 
    174 H174       -3.9651  -15.4893  -43.5436 H         1 UNK         0.3000 
    175 H175       -3.9543  -13.6309  -42.4745 H         1 UNK         0.0600 
    176 H176       -3.0239  -14.0852  -39.5867 H         1 UNK         0.0600 
    177 H177       -4.2542  -12.9359  -40.1139 H         1 UNK         0.0600 
    178 H178       -4.5395  -14.6622  -40.2688 H         1 UNK         0.0600 
    179 H179       -1.9412  -12.3416  -40.9655 H         1 UNK         0.3000 
    180 H180       -0.8809  -10.4561  -42.5207 H         1 UNK         0.0600 
    181 H181        1.0383  -12.7165  -41.7210 H         1 UNK         0.0600 
    182 H182        0.0666  -11.7363  -40.6295 H         1 UNK         0.0600 
    183 H183        1.3845  -11.0028  -41.5215 H         1 UNK         0.0600 
    184 H184        0.9805  -12.0952  -44.1869 H         1 UNK         0.3000 
    185 H185        0.9701   -9.5721  -46.7548 H         1 UNK         0.0600 
    186 H186        3.1318  -10.7405  -46.8875 H         1 UNK         0.0600 
    187 H187        3.0178   -9.9525  -45.3222 H         1 UNK         0.0600 
    188 H188        2.7742  -11.6911  -45.4511 H         1 UNK         0.0600 
    189 H189       -0.0836  -12.2348  -46.3682 H         1 UNK         0.3000 
    190 H190       -0.3585  -21.7406  -46.4812 H         1 UNK         0.3000 
    191 H191       -3.0461  -21.2077  -47.5885 H         1 UNK         0.0600 
    192 H192       -3.2094  -19.6755  -45.6320 H         1 UNK         0.0600 
    193 H193       -1.8124  -19.3078  -46.6355 H         1 UNK         0.0600 
    194 H194       -1.5971  -20.1646  -45.1131 H         1 UNK         0.0600 
    195 H195       -1.4341  -22.8164  -44.8061 H         1 UNK         0.3000 
    196 H196       -3.7441  -23.6587  -43.4476 H         1 UNK         0.0600 
    197 H197       -0.9971  -25.0044  -43.5005 H         1 UNK         0.0600 
    198 H198       -1.4204  -23.6174  -42.4952 H         1 UNK         0.0600 
    199 H199       -2.2122  -25.1666  -42.2429 H         1 UNK         0.0600 
    200 H200       -2.0526  -25.2026  -46.1635 H         1 UNK         0.3000 
    201 H201       -3.5459  -27.6700  -46.1587 H         1 UNK         0.0600 
    202 H202       -1.8386  -26.3164  -48.3125 H         1 UNK         0.0600 
    203 H203       -2.4133  -27.9808  -48.3618 H         1 UNK         0.0600 
    204 H204       -1.2732  -27.4865  -47.1216 H         1 UNK         0.0600 
    205 H205       -5.5434  -26.1084  -45.8080 H         1 UNK         0.3000 
    206 H206       -7.5762  -25.4363  -46.4081 H         1 UNK         0.0600 
    207 H207       -7.6992  -27.8260  -47.1656 H         1 UNK         0.0600 
    208 H208       -8.7614  -26.7905  -48.1027 H         1 UNK         0.0600 
    209 H209       -7.2370  -27.3319  -48.7939 H         1 UNK         0.0600 
    210 H210       -5.3647  -23.8187  -47.4186 H         1 UNK         0.3000 
    211 H211       -4.7535  -22.1761  -48.7232 H         1 UNK         0.0600 
    212 H212       -6.4494  -20.5500  -49.4696 H         1 UNK         0.0600 
    213 H213       -6.8748  -21.1537  -47.8780 H         1 UNK         0.0600 
    214 H214       -7.7277  -21.7448  -49.3043 H         1 UNK         0.0600 
    215 H215       -5.0792  -24.9125  -50.0371 H         1 UNK         0.3000 
    216 H216       -5.9430  -24.5467  -52.7070 H         1 UNK         0.0600 
    217 H217       -4.0542  -26.6538  -51.5296 H         1 UNK         0.0600 
    218 H218       -4.8649  -26.7619  -53.0881 H         1 UNK         0.0600 
    219 H219       -5.8106  -26.7609  -51.6063 H         1 UNK         0.0600 
    220 H220       -2.6175  -24.5610  -51.3463 H         1 UNK         0.3000 
    221 H221       -1.3689  -23.9232  -53.8871 H         1 UNK         0.0600 
    222 H222       -0.1146  -25.2378  -52.2981 H         1 UNK         0.0600 
    223 H223       -0.3214  -24.0356  -51.0348 H         1 UNK         0.0600 
    224 H224        0.6921  -23.6820  -52.4319 H         1 UNK         0.0600 
    225 H225       -2.6444  -22.0483  -51.1880 H         1 UNK         0.3000 
    226 H226       -1.5146  -19.5061  -51.9109 H         1 UNK         0.0600 
    227 H227       -4.0930  -20.1196  -50.3679 H         1 UNK         0.0600 
    228 H228       -2.4932  -19.9885  -49.6493 H         1 UNK         0.0600 
    229 H229       -3.2369  -18.5868  -50.4007 H         1 UNK         0.0600 
    230 H230       -4.6669  -21.0956  -52.6736 H         1 UNK         0.3000 
    231 H231       -5.6590  -19.0672  -54.3918 H         1 UNK         0.0600 
    232 H232       -6.2912  -22.0641  -54.2693 H         1 UNK         0.0600 
    233 H233       -7.2506  -20.8590  -55.1217 H         1 UNK         0.0600 
    234 H234       -7.1089  -20.7873  -53.3718 H         1 UNK         0.0600 
    235 H235       -3.7694  -22.0417  -55.0984 H         1 UNK         0.3000 
    236 H236       -3.6625  -21.7914  -57.9066 H         1 UNK         0.0600 
    237 H237       -3.0438  -23.8543  -56.6357 H         1 UNK         0.0600 
    238 H238       -1.7596  -23.3707  -57.7319 H         1 UNK         0.0600 
    239 H239       -1.6061  -23.0405  -56.0132 H         1 UNK         0.0600 
    240 H240       -1.9609  -19.9706  -55.4715 H         1 UNK         0.3000 
    241 H241        0.0889  -18.9176  -57.1956 H         1 UNK         0.0600 
    242 H242       -3.1830  -16.6830  -57.9739 H         1 UNK         0.3800 
    243 H243       -3.3264  -18.2261  -57.1715 H         1 UNK         0.3800 
    244 H244       -0.1749  -18.9865  -54.4628 H         1 UNK         0.0800 
    245 H245       -0.7236  -17.3676  -54.7264 H         1 UNK         0.0800 
    246 H246        2.1035  -19.7127  -54.2229 H         1 UNK         0.0800 
    247 H247        3.4940  -18.6601  -54.2833 H         1 UNK         0.0800 
@<TRIPOS>BOND
     1    1    2 1    
     2    1  127 1    
     3    1  128 1    
     4    1  129 1    
     5    2    3 2    
     6    2    4 am   BACKBONE|DICT|INTERRES
     7    4    5 1    
     8    4  130 1    
     9    5    6 1    
    10    5   65 1    
    11    5  131 1    
    12    6    7 1    
    13    6  132 1    
    14    6  133 1    
    15    7    8 1    
    16    8    9 1    
    17    8  134 1    
    18    8  135 1    
    19    9   10 ar   
    20    9   14 ar   
    21   10   11 ar   
    22   10  136 1    
    23   11   12 ar   
    24   11  126 1    
    25   12   13 ar   
    26   12  137 1    
    27   13   14 ar   
    28   13   15 1    
    29   14  138 1    
    30   15   16 1    
    31   15  139 1    
    32   15  140 1    
    33   16   17 1    
    34   17   18 1    
    35   17  141 1    
    36   17  142 1    
    37   18   19 1    
    38   18   67 1    
    39   18  143 1    
    40   19   20 am   BACKBONE|DICT|INTERRES
    41   19  144 1    
    42   20   21 2    
    43   20   22 1    
    44   22   23 1    
    45   22   24 1    
    46   22  145 1    
    47   23  146 1    
    48   23  147 1    
    49   23  148 1    
    50   24   25 am   BACKBONE|DICT|INTERRES
    51   24  149 1    
    52   25   26 2    
    53   25   27 1    
    54   27   28 1    
    55   27   29 1    
    56   27  150 1    
    57   28  151 1    
    58   28  152 1    
    59   28  153 1    
    60   29   30 am   BACKBONE|DICT|INTERRES
    61   29  154 1    
    62   30   31 2    
    63   30   32 1    
    64   32   33 1    
    65   32   34 1    
    66   32  155 1    
    67   33  156 1    
    68   33  157 1    
    69   33  158 1    
    70   34   35 am   BACKBONE|DICT|INTERRES
    71   34  159 1    
    72   35   36 2    
    73   35   37 1    
    74   37   38 1    
    75   37   39 1    
    76   37  160 1    
    77   38  161 1    
    78   38  162 1    
    79   38  163 1    
    80   39   40 am   BACKBONE|DICT|INTERRES
    81   39  164 1    
    82   40   41 2    
    83   40   42 1    
    84   42   43 1    
    85   42   44 1    
    86   42  165 1    
    87   43  166 1    
    88   43  167 1    
    89   43  168 1    
    90   44   45 am   BACKBONE|DICT|INTERRES
    91   44  169 1    
    92   45   46 2    
    93   45   47 1    
    94   47   48 1    
    95   47   49 1    
    96   47  170 1    
    97   48  171 1    
    98   48  172 1    
    99   48  173 1    
   100   49   50 am   BACKBONE|DICT|INTERRES
   101   49  174 1    
   102   50   51 2    
   103   50   52 1    
   104   52   53 1    
   105   52   54 1    
   106   52  175 1    
   107   53  176 1    
   108   53  177 1    
   109   53  178 1    
   110   54   55 am   BACKBONE|DICT|INTERRES
   111   54  179 1    
   112   55   56 2    
   113   55   57 1    
   114   57   58 1    
   115   57   59 1    
   116   57  180 1    
   117   58  181 1    
   118   58  182 1    
   119   58  183 1    
   120   59   60 am   BACKBONE|DICT|INTERRES
   121   59  184 1    
   122   60   61 2    
   123   60   62 1    
   124   62   63 1    
   125   62   64 1    
   126   62  185 1    
   127   63  186 1    
   128   63  187 1    
   129   63  188 1    
   130   64   65 am   BACKBONE|DICT|INTERRES
   131   64  189 1    
   132   65   66 2    
   133   67   68 2    
   134   67   69 am   BACKBONE|DICT|INTERRES
   135   69   70 1    
   136   69  190 1    
   137   70   71 1    
   138   70   72 1    
   139   70  191 1    
   140   71  192 1    
   141   71  193 1    
   142   71  194 1    
   143   72   73 2    
   144   72   74 am   BACKBONE|DICT|INTERRES
   145   74   75 1    
   146   74  195 1    
   147   75   76 1    
   148   75   77 1    
   149   75  196 1    
   150   76  197 1    
   151   76  198 1    
   152   76  199 1    
   153   77   78 2    
   154   77   79 am   BACKBONE|DICT|INTERRES
   155   79   80 1    
   156   79  200 1    
   157   80   81 1    
   158   80   82 1    
   159   80  201 1    
   160   81  202 1    
   161   81  203 1    
   162   81  204 1    
   163   82   83 2    
   164   82   84 am   BACKBONE|DICT|INTERRES
   165   84   85 1    
   166   84  205 1    
   167   85   86 1    
   168   85   87 1    
   169   85  206 1    
   170   86  207 1    
   171   86  208 1    
   172   86  209 1    
   173   87   88 2    
   174   87   89 am   BACKBONE|DICT|INTERRES
   175   89   90 1    
   176   89  210 1    
   177   90   91 1    
   178   90   92 1    
   179   90  211 1    
   180   91  212 1    
   181   91  213 1    
   182   91  214 1    
   183   92   93 2    
   184   92   94 am   BACKBONE|DICT|INTERRES
   185   94   95 1    
   186   94  215 1    
   187   95   96 1    
   188   95   97 1    
   189   95  216 1    
   190   96  217 1    
   191   96  218 1    
   192   96  219 1    
   193   97   98 2    
   194   97   99 am   BACKBONE|DICT|INTERRES
   195   99  100 1    
   196   99  220 1    
   197  100  101 1    
   198  100  102 1    
   199  100  221 1    
   200  101  222 1    
   201  101  223 1    
   202  101  224 1    
   203  102  103 2    
   204  102  104 am   BACKBONE|DICT|INTERRES
   205  104  105 1    
   206  104  225 1    
   207  105  106 1    
   208  105  107 1    
   209  105  226 1    
   210  106  227 1    
   211  106  228 1    
   212  106  229 1    
   213  107  108 2    
   214  107  109 am   BACKBONE|DICT|INTERRES
   215  109  110 1    
   216  109  230 1    
   217  110  111 1    
   218  110  112 1    
   219  110  231 1    
   220  111  232 1    
   221  111  233 1    
   222  111  234 1    
   223  112  113 2    
   224  112  114 am   BACKBONE|DICT|INTERRES
   225  114  115 1    
   226  114  235 1    
   227  115  116 1    
   228  115  117 1    
   229  115  236 1    
   230  116  237 1    
   231  116  238 1    
   232  116  239 1    
   233  117  118 2    
   234  117  119 am   BACKBONE|DICT|INTERRES
   235  119  120 1    
   236  119  240 1    
   237  120  121 1    
   238  120  124 1    
   239  120  241 1    
   240  121  122 am   BACKBONE|DICT|INTERRES
   241  121  123 2    
   242  122  242 1    
   243  122  243 1    
   244  124  125 1    
   245  124  244 1    
   246  124  245 1    
   247  125  126 1    
   248  126  246 1    
   249  126  247 1    
@<TRIPOS>SUBSTRUCTURE
     1 UNK         1 GROUP             0       ****    0 ROOT    
