@<TRIPOS>MOLECULE
3R540
247   249    1
SMALL
USER_CHARGES


@<TRIPOS>ATOM
      1 CA         -1.0381  -13.5478  -48.0770 C.3       0 UNK        -0.1800 
      2 C           0.4651  -13.3324  -48.1405 C.2       0 UNK         0.5000 
      3 O           1.1456  -13.4138  -47.1183 O.2       0 UNK        -0.5000 
      4 N           0.9835  -13.0297  -49.3389 N.am      1 UNK        -0.5000 
      5 CA          2.4085  -12.8187  -49.6612 C.3       1 UNK         0.1400 
      6 C6          3.2797  -14.0954  -49.4820 C.3       23 UNK        -0.0398 
      7 S7          2.6790  -15.5475  -50.4136 S.3       23 UNK        -0.2404 
      8 C8          2.0949  -16.5883  -49.0429 C.3       23 UNK        -0.0205 
      9 C9          1.6524  -17.9657  -49.5088 C.ar      23 UNK        -0.0193 
     10 C10         0.4268  -18.1330  -50.1613 C.ar      23 UNK        -0.1150 
     11 C11        -0.0020  -19.4069  -50.5475 C.ar      23 UNK        -0.0193 
     12 C12         0.7921  -20.5175  -50.2530 C.ar      23 UNK        -0.1150 
     13 C13         2.0048  -20.3663  -49.5777 C.ar      23 UNK        -0.0193 
     14 C14         2.4439  -19.0846  -49.2333 C.ar      23 UNK        -0.1150 
     15 C15         2.8008  -21.5993  -49.1717 C.3       23 UNK        -0.0205 
     16 S16         3.0910  -21.7186  -47.3703 S.3       23 UNK        -0.2404 
     17 C17         1.4766  -21.2922  -46.6233 C.3       23 UNK        -0.0398 
     18 CA          0.5947  -22.5192  -46.2961 C.3       11 UNK         0.1400 
     19 N          -0.2864  -22.2591  -45.1552 N.am      11 UNK        -0.5000 
     20 C          -1.0670  -23.1710  -44.5589 C.2       10 UNK         0.5000 
     21 O          -1.0934  -24.3612  -44.8708 O.2       10 UNK        -0.5000 
     22 CA         -2.0191  -22.6484  -43.4695 C.3       10 UNK         0.1400 
     23 CB         -1.2909  -22.4912  -42.1261 C.3       10 UNK        -0.1800 
     24 N          -2.6296  -21.3747  -43.8537 N.am      10 UNK        -0.5000 
     25 C          -3.5409  -21.2422  -44.8281 C.2       9 UNK         0.5000 
     26 O          -4.0065  -22.1905  -45.4604 O.2       9 UNK        -0.5000 
     27 CA         -3.9593  -19.8049  -45.1914 C.3       9 UNK         0.1400 
     28 CB         -5.0433  -19.2865  -44.2365 C.3       9 UNK        -0.1800 
     29 N          -2.8239  -18.8811  -45.1890 N.am      9 UNK        -0.5000 
     30 C          -1.8233  -18.9196  -46.0808 C.2       8 UNK         0.5000 
     31 O          -1.7983  -19.6909  -47.0357 O.2       8 UNK        -0.5000 
     32 CA         -0.6379  -17.9649  -45.8642 C.3       8 UNK         0.1400 
     33 CB         -0.8414  -16.6800  -46.6712 C.3       8 UNK        -0.1800 
     34 N          -0.4222  -17.6366  -44.4554 N.am      8 UNK        -0.5000 
     35 C          -0.0413  -18.5284  -43.5277 C.2       7 UNK         0.5000 
     36 O           0.1702  -19.7143  -43.7828 O.2       7 UNK        -0.5000 
     37 CA          0.0981  -18.0386  -42.0745 C.3       7 UNK         0.1400 
     38 CB          1.5794  -17.9079  -41.6908 C.3       7 UNK        -0.1800 
     39 N          -0.5908  -16.7698  -41.8267 N.am      7 UNK        -0.5000 
     40 C          -1.9244  -16.6445  -41.7429 C.2       6 UNK         0.5000 
     41 O          -2.7008  -17.5944  -41.8521 O.2       6 UNK        -0.5000 
     42 CA         -2.4925  -15.2241  -41.5447 C.3       6 UNK         0.1400 
     43 CB         -2.6992  -14.9322  -40.0511 C.3       6 UNK        -0.1800 
     44 N          -1.6613  -14.1682  -42.1285 N.am      6 UNK        -0.5000 
     45 C          -1.3864  -14.0447  -43.4339 C.2       5 UNK         0.5000 
     46 O          -1.8304  -14.8068  -44.2910 O.2       5 UNK        -0.5000 
     47 CA         -0.4182  -12.9228  -43.8601 C.3       5 UNK         0.1400 
     48 CB         -0.2128  -11.8246  -42.7935 C.3       5 UNK        -0.1800 
     49 N           0.8742  -13.4658  -44.2844 N.am      5 UNK        -0.5000 
     50 C           1.6951  -14.2529  -43.5738 C.2       4 UNK         0.5000 
     51 O           1.4537  -14.6527  -42.4338 O.2       4 UNK        -0.5000 
     52 CA          3.0251  -14.6347  -44.2427 C.3       4 UNK         0.1400 
     53 CB          2.8451  -15.7716  -45.2620 C.3       4 UNK        -0.1800 
     54 N           3.6629  -13.4783  -44.8784 N.am      4 UNK        -0.5000 
     55 C           4.3776  -12.5678  -44.2002 C.2       3 UNK         0.5000 
     56 O           4.5561  -12.6113  -42.9821 O.2       3 UNK        -0.5000 
     57 CA          5.0325  -11.4320  -45.0059 C.3       3 UNK         0.1400 
     58 CB          6.4031  -11.8769  -45.5393 C.3       3 UNK        -0.1800 
     59 N           4.2222  -10.9592  -46.1251 N.am      3 UNK        -0.5000 
     60 C           3.1581  -10.1548  -46.0267 C.2       2 UNK         0.5000 
     61 O           2.6905   -9.7718  -44.9541 O.2       2 UNK        -0.5000 
     62 CA          2.5111   -9.6849  -47.3475 C.3       2 UNK         0.1400 
     63 CB          3.3420   -8.5722  -48.0147 C.3       2 UNK        -0.1800 
     64 N           2.2098  -10.7731  -48.2861 N.am      2 UNK        -0.5000 
     65 C           3.0431  -11.6141  -48.9180 C.2       1 UNK         0.5000 
     66 O           4.2693  -11.4920  -48.8975 O.2       1 UNK        -0.5000 
     67 C          -0.1981  -23.0022  -47.5295 C.2       11 UNK         0.5000 
     68 O           0.1940  -23.9892  -48.1487 O.2       11 UNK        -0.5000 
     69 N          -1.3277  -22.3415  -47.8268 N.am      12 UNK        -0.5000 
     70 CA         -2.2695  -22.7097  -48.8842 C.3       12 UNK         0.1400 
     71 CB         -3.3981  -21.6701  -48.9628 C.3       12 UNK        -0.1800 
     72 C          -2.8660  -24.1116  -48.6967 C.2       12 UNK         0.5000 
     73 O          -2.9406  -24.8667  -49.6654 O.2       12 UNK        -0.5000 
     74 N          -3.2543  -24.4395  -47.4569 N.am      13 UNK        -0.5000 
     75 CA         -3.7679  -25.7546  -47.0770 C.3       13 UNK         0.1400 
     76 CB         -4.3353  -25.6942  -45.6507 C.3       13 UNK        -0.1800 
     77 C          -2.7056  -26.8621  -47.2052 C.2       13 UNK         0.5000 
     78 O          -3.0155  -27.9397  -47.7134 O.2       13 UNK        -0.5000 
     79 N          -1.4713  -26.5677  -46.7732 N.am      14 UNK        -0.5000 
     80 CA         -0.3194  -27.4658  -46.8664 C.3       14 UNK         0.1400 
     81 CB          0.8368  -26.9024  -46.0257 C.3       14 UNK        -0.1800 
     82 C           0.1311  -27.7149  -48.3182 C.2       14 UNK         0.5000 
     83 O           0.4164  -28.8575  -48.6789 O.2       14 UNK        -0.5000 
     84 N           0.1751  -26.6469  -49.1256 N.am      15 UNK        -0.5000 
     85 CA          0.5510  -26.6829  -50.5403 C.3       15 UNK         0.1400 
     86 CB          0.9169  -25.2595  -50.9922 C.3       15 UNK        -0.1800 
     87 C          -0.5457  -27.2584  -51.4566 C.2       15 UNK         0.5000 
     88 O          -0.2341  -27.6553  -52.5801 O.2       15 UNK        -0.5000 
     89 N          -1.7984  -27.2633  -50.9760 N.am      16 UNK        -0.5000 
     90 CA         -3.0337  -27.5641  -51.7071 C.3       16 UNK         0.1400 
     91 CB         -3.0744  -29.0377  -52.1627 C.3       16 UNK        -0.1800 
     92 C          -3.2627  -26.5532  -52.8506 C.2       16 UNK         0.5000 
     93 O          -3.4919  -26.9399  -53.9989 O.2       16 UNK        -0.5000 
     94 N          -3.1494  -25.2642  -52.5045 N.am      17 UNK        -0.5000 
     95 CA         -3.2958  -24.1250  -53.4086 C.3       17 UNK         0.1400 
     96 CB         -2.7827  -22.8636  -52.6978 C.3       17 UNK        -0.1800 
     97 C          -4.7467  -23.9242  -53.8868 C.2       17 UNK         0.5000 
     98 O          -5.6887  -24.4210  -53.2638 O.2       17 UNK        -0.5000 
     99 N          -4.8940  -23.1698  -54.9832 N.am      18 UNK        -0.5000 
    100 CA        -6.1703  -22.8820  -55.6434 C.3       18 UNK         0.1400 
    101 CB        -5.8842  -22.2604  -57.0196 C.3       18 UNK        -0.1800 
    102 C         -7.1211  -21.9762  -54.8344 C.2       18 UNK         0.5000 
    103 O         -8.3257  -21.9942  -55.0930 O.2       18 UNK        -0.5000 
    104 N         -6.5821  -21.2041  -53.8838 N.am      19 UNK        -0.5000 
    105 CA        -7.3339  -20.3241  -52.9977 C.3       19 UNK         0.1400 
    106 CB        -7.4966  -18.9412  -53.6522 C.3       19 UNK        -0.1800 
    107 C         -6.5932  -20.2058  -51.6624 C.2       19 UNK         0.5000 
    108 O         -5.3582  -20.2075  -51.6455 O.2       19 UNK        -0.5000 
    109 N         -7.3581  -20.0590  -50.5728 N.am      20 UNK        -0.5000 
    110 CA        -6.8491  -19.7766  -49.2316 C.3       20 UNK         0.1400 
    111 CB        -8.0020  -19.8333  -48.2181 C.3       20 UNK        -0.1800 
    112 C         -6.1537  -18.4052  -49.2031 C.2       20 UNK         0.5000 
    113 O         -6.7638  -17.4072  -49.5921 O.2       20 UNK        -0.5000 
    114 N         -4.8757  -18.4037  -48.8043 N.am      21 UNK        -0.5000 
    115 CA        -3.9516  -17.2644  -48.8218 C.3       21 UNK         0.1400 
    116 CB        -4.4117  -16.1532  -47.8552 C.3       21 UNK        -0.1800 
    117 C         -3.6133  -16.7349  -50.2342 C.2       21 UNK         0.5000 
    118 O         -3.0189  -15.6629  -50.3442 O.2       21 UNK        -0.5000 
    119 N         -3.9355  -17.5129  -51.2815 N.am      22 UNK        -0.5000 
    120 CA        -3.5599  -17.2778  -52.6871 C.3       22 UNK         0.1400 
    121 C         -4.2066  -16.0084  -53.3267 C.2       22 UNK         0.5000 
    122 N         -5.2801  -15.4641  -52.7655 N.am      22 UNK        -0.7600 
    123 O         -3.7624  -15.5303  -54.3670 O.2       22 UNK        -0.5000 
    124 C124       -2.0177  -17.3844  -52.9097 C.3       23 UNK        -0.0398 
    125 S125       -1.4193  -19.1128  -52.9520 S.3       23 UNK        -0.2404 
    126 C126       -1.3579  -19.6106  -51.2012 C.3       23 UNK        -0.0205 
    127 H127       -1.5691  -12.7260  -48.5571 H         1 UNK         0.0600 
    128 H128       -1.3763  -13.6142  -47.0427 H         1 UNK         0.0600 
    129 H129       -1.3053  -14.4746  -48.5834 H         1 UNK         0.0600 
    130 H130        0.3593  -12.9698  -50.1315 H         1 UNK         0.3000 
    131 H131        2.4351  -12.5519  -50.7186 H         1 UNK         0.0600 
    132 H132        3.3718  -14.3474  -48.4244 H         1 UNK         0.0800 
    133 H133        4.2976  -13.9092  -49.8289 H         1 UNK         0.0800 
    134 H134        1.2647  -16.0891  -48.5471 H         1 UNK         0.0800 
    135 H135        2.8868  -16.6821  -48.2982 H         1 UNK         0.0800 
    136 H136       -0.1960  -17.2714  -50.3514 H         1 UNK         0.1150 
    137 H137        0.4474  -21.5075  -50.5167 H         1 UNK         0.1150 
    138 H138        3.3807  -18.9666  -48.7069 H         1 UNK         0.1150 
    139 H139        2.2939  -22.5090  -49.4975 H         1 UNK         0.0800 
    140 H140        3.7629  -21.5858  -49.6851 H         1 UNK         0.0800 
    141 H141        0.9341  -20.5582  -47.2182 H         1 UNK         0.0800 
    142 H142        1.7261  -20.7705  -45.6987 H         1 UNK         0.0800 
    143 H143        1.2492  -23.3384  -45.9905 H         1 UNK         0.0600 
    144 H144       -0.2873  -21.3124  -44.7875 H         1 UNK         0.3000 
    145 H145       -2.8150  -23.3849  -43.3395 H         1 UNK         0.0600 
    146 H146       -1.9756  -22.1663  -41.3427 H         1 UNK         0.0600 
    147 H147       -0.4794  -21.7656  -42.1840 H         1 UNK         0.0600 
    148 H148       -0.8584  -23.4401  -41.8064 H         1 UNK         0.0600 
    149 H149       -2.2723  -20.5439  -43.4056 H         1 UNK         0.3000 
    150 H150       -4.3804  -19.8263  -46.1982 H         1 UNK         0.0600 
    151 H151       -5.9096  -19.9494  -44.2327 H         1 UNK         0.0600 
    152 H152       -5.3918  -18.2982  -44.5372 H         1 UNK         0.0600 
    153 H153       -4.6781  -19.2155  -43.2111 H         1 UNK         0.0600 
    154 H154       -2.7706  -18.2212  -44.4254 H         1 UNK         0.3000 
    155 H155        0.2643  -18.4553  -46.2342 H         1 UNK         0.0600 
    156 H156       -0.8349  -16.8889  -47.7407 H         1 UNK         0.0600 
    157 H157       -0.0540  -15.9553  -46.4704 H         1 UNK         0.0600 
    158 H158       -1.7951  -16.2075  -46.4398 H         1 UNK         0.0600 
    159 H159       -0.6355  -16.6877  -44.1735 H         1 UNK         0.3000 
    160 H160       -0.3476  -18.8003  -41.4311 H         1 UNK         0.0600 
    161 H161        2.1088  -17.2137  -42.3427 H         1 UNK         0.0600 
    162 H162        2.0854  -18.8714  -41.7651 H         1 UNK         0.0600 
    163 H163        1.6938  -17.5596  -40.6642 H         1 UNK         0.0600 
    164 H164       -0.0095  -15.9384  -41.7815 H         1 UNK         0.3000 
    165 H165       -3.4664  -15.1911  -42.0375 H         1 UNK         0.0600 
    166 H166       -3.1818  -13.9664  -39.9004 H         1 UNK         0.0600 
    167 H167       -3.3366  -15.6879  -39.5898 H         1 UNK         0.0600 
    168 H168       -1.7532  -14.9245  -39.5081 H         1 UNK         0.0600 
    169 H169       -1.2254  -13.5252  -41.4838 H         1 UNK         0.3000 
    170 H170       -0.8611  -12.4524  -44.7390 H         1 UNK         0.0600 
    171 H171       -1.1646  -11.3857  -42.4916 H         1 UNK         0.0600 
    172 H172        0.2820  -12.2012  -41.8978 H         1 UNK         0.0600 
    173 H173        0.4021  -11.0155  -43.1887 H         1 UNK         0.0600 
    174 H174        1.1237  -13.2807  -45.2532 H         1 UNK         0.3000 
    175 H175        3.6851  -15.0121  -43.4583 H         1 UNK         0.0600 
    176 H176        2.2349  -15.4699  -46.1102 H         1 UNK         0.0600 
    177 H177        3.8076  -16.1055  -45.6494 H         1 UNK         0.0600 
    178 H178        2.3633  -16.6361  -44.8046 H         1 UNK         0.0600 
    179 H179        3.5132  -13.3520  -45.8687 H         1 UNK         0.3000 
    180 H180        5.1936  -10.5946  -44.3234 H         1 UNK         0.0600 
    181 H181        6.9184  -11.0544  -46.0357 H         1 UNK         0.0600 
    182 H182        6.3104  -12.6948  -46.2550 H         1 UNK         0.0600 
    183 H183        7.0465  -12.2204  -44.7281 H         1 UNK         0.0600 
    184 H184        4.5205  -11.2210  -47.0611 H         1 UNK         0.3000 
    185 H185        1.5449   -9.2524  -47.0829 H         1 UNK         0.0600 
    186 H186        4.3392   -8.9131  -48.2933 H         1 UNK         0.0600 
    187 H187        2.8514   -8.2007  -48.9143 H         1 UNK         0.0600 
    188 H188        3.4669   -7.7251  -47.3392 H         1 UNK         0.0600 
    189 H189        1.2281  -10.9995  -48.3592 H         1 UNK         0.3000 
    190 H190       -1.5474  -21.4901  -47.3158 H         1 UNK         0.3000 
    191 H191       -1.7220  -22.7053  -49.8277 H         1 UNK         0.0600 
    192 H192       -3.0076  -20.6766  -49.1671 H         1 UNK         0.0600 
    193 H193       -3.9619  -21.6191  -48.0325 H         1 UNK         0.0600 
    194 H194       -4.1056  -21.9127  -49.7557 H         1 UNK         0.0600 
    195 H195       -3.1951  -23.7416  -46.7243 H         1 UNK         0.3000 
    196 H196       -4.5873  -26.0009  -47.7557 H         1 UNK         0.0600 
    197 H197       -5.1298  -24.9516  -45.5745 H         1 UNK         0.0600 
    198 H198       -3.5686  -25.4374  -44.9198 H         1 UNK         0.0600 
    199 H199       -4.7586  -26.6559  -45.3585 H         1 UNK         0.0600 
    200 H200       -1.3132  -25.6706  -46.3232 H         1 UNK         0.3000 
    201 H201       -0.6095  -28.4279  -46.4392 H         1 UNK         0.0600 
    202 H202        0.5474  -26.7954  -44.9801 H         1 UNK         0.0600 
    203 H203        1.1569  -25.9237  -46.3844 H         1 UNK         0.0600 
    204 H204        1.7030  -27.5644  -46.0583 H         1 UNK         0.0600 
    205 H205       -0.0105  -25.7259  -48.7328 H         1 UNK         0.3000 
    206 H206        1.4359  -27.3135  -50.6476 H         1 UNK         0.0600 
    207 H207        0.0688  -24.5793  -50.8998 H         1 UNK         0.0600 
    208 H208        1.7365  -24.8561  -50.3976 H         1 UNK         0.0600 
    209 H209        1.2356  -25.2472  -52.0351 H         1 UNK         0.0600 
    210 H210       -1.9361  -26.8624  -50.0571 H         1 UNK         0.3000 
    211 H211       -3.8502  -27.4173  -50.9984 H         1 UNK         0.0600 
    212 H212       -2.3195  -29.2550  -52.9185 H         1 UNK         0.0600 
    213 H213       -4.0456  -29.2826  -52.5940 H         1 UNK         0.0600 
    214 H214       -2.9123  -29.7129  -51.3225 H         1 UNK         0.0600 
    215 H215       -3.0095  -25.0509  -51.5200 H         1 UNK         0.3000 
    216 H216       -2.6693  -24.3105  -54.2835 H         1 UNK         0.0600 
    217 H217       -2.7919  -22.0010  -53.3649 H         1 UNK         0.0600 
    218 H218       -1.7568  -22.9930  -52.3523 H         1 UNK         0.0600 
    219 H219       -3.4023  -22.6143  -51.8375 H         1 UNK         0.0600 
    220 H220       -4.0706  -22.7866  -55.4251 H         1 UNK         0.3000 
    221 H221       -6.6865  -23.8314  -55.8006 H         1 UNK         0.0600 
    222 H222       -5.3483  -21.3146  -56.9298 H         1 UNK         0.0600 
    223 H223       -5.2866  -22.9292  -57.6393 H         1 UNK         0.0600 
    224 H224       -6.8108  -22.0620  -57.5601 H         1 UNK         0.0600 
    225 H225       -5.5923  -21.2668  -53.6855 H         1 UNK         0.3000 
    226 H226       -8.3200  -20.7529  -52.8059 H         1 UNK         0.0600 
    227 H227       -8.0584  -19.0085  -54.5839 H         1 UNK         0.0600 
    228 H228       -8.0366  -18.2575  -52.9958 H         1 UNK         0.0600 
    229 H229       -6.5308  -18.4866  -53.8761 H         1 UNK         0.0600 
    230 H230       -8.3615  -20.0309  -50.6811 H         1 UNK         0.3000 
    231 H231       -6.1303  -20.5556  -48.9716 H         1 UNK         0.0600 
    232 H232       -7.6406  -19.6412  -47.2069 H         1 UNK         0.0600 
    233 H233       -8.4747  -20.8157  -48.2126 H         1 UNK         0.0600 
    234 H234       -8.7707  -19.0915  -48.4386 H         1 UNK         0.0600 
    235 H235       -4.4591  -19.2831  -48.5360 H         1 UNK         0.3000 
    236 H236       -3.0089  -17.6534  -48.4413 H         1 UNK         0.0600 
    237 H237       -5.3372  -15.6819  -48.1857 H         1 UNK         0.0600 
    238 H238       -4.5734  -16.5481  -46.8520 H         1 UNK         0.0600 
    239 H239       -3.6620  -15.3658  -47.7737 H         1 UNK         0.0600 
    240 H240       -4.4319  -18.3804  -51.1145 H         1 UNK         0.3000 
    241 H241       -4.0206  -18.0950  -53.2432 H         1 UNK         0.0600 
    242 H242       -5.7041  -14.6526  -53.1864 H         1 UNK         0.3800 
    243 H243       -5.6590  -15.8461  -51.9127 H         1 UNK         0.3800 
    244 H244       -1.4612  -16.8077  -52.1726 H         1 UNK         0.0800 
    245 H245       -1.7350  -16.9612  -53.8742 H         1 UNK         0.0800 
    246 H246       -1.6312  -20.6641  -51.1614 H         1 UNK         0.0800 
    247 H247       -2.1075  -19.0982  -50.6103 H         1 UNK         0.0800 
@<TRIPOS>BOND
     1    1    2 1    
     2    1  127 1    
     3    1  128 1    
     4    1  129 1    
     5    2    3 2    
     6    2    4 am   BACKBONE|DICT|INTERRES
     7    4    5 1    
     8    4  130 1    
     9    5    6 1    
    10    5   65 1    
    11    5  131 1    
    12    6    7 1    
    13    6  132 1    
    14    6  133 1    
    15    7    8 1    
    16    8    9 1    
    17    8  134 1    
    18    8  135 1    
    19    9   10 ar   
    20    9   14 ar   
    21   10   11 ar   
    22   10  136 1    
    23   11   12 ar   
    24   11  126 1    
    25   12   13 ar   
    26   12  137 1    
    27   13   14 ar   
    28   13   15 1    
    29   14  138 1    
    30   15   16 1    
    31   15  139 1    
    32   15  140 1    
    33   16   17 1    
    34   17   18 1    
    35   17  141 1    
    36   17  142 1    
    37   18   19 1    
    38   18   67 1    
    39   18  143 1    
    40   19   20 am   BACKBONE|DICT|INTERRES
    41   19  144 1    
    42   20   21 2    
    43   20   22 1    
    44   22   23 1    
    45   22   24 1    
    46   22  145 1    
    47   23  146 1    
    48   23  147 1    
    49   23  148 1    
    50   24   25 am   BACKBONE|DICT|INTERRES
    51   24  149 1    
    52   25   26 2    
    53   25   27 1    
    54   27   28 1    
    55   27   29 1    
    56   27  150 1    
    57   28  151 1    
    58   28  152 1    
    59   28  153 1    
    60   29   30 am   BACKBONE|DICT|INTERRES
    61   29  154 1    
    62   30   31 2    
    63   30   32 1    
    64   32   33 1    
    65   32   34 1    
    66   32  155 1    
    67   33  156 1    
    68   33  157 1    
    69   33  158 1    
    70   34   35 am   BACKBONE|DICT|INTERRES
    71   34  159 1    
    72   35   36 2    
    73   35   37 1    
    74   37   38 1    
    75   37   39 1    
    76   37  160 1    
    77   38  161 1    
    78   38  162 1    
    79   38  163 1    
    80   39   40 am   BACKBONE|DICT|INTERRES
    81   39  164 1    
    82   40   41 2    
    83   40   42 1    
    84   42   43 1    
    85   42   44 1    
    86   42  165 1    
    87   43  166 1    
    88   43  167 1    
    89   43  168 1    
    90   44   45 am   BACKBONE|DICT|INTERRES
    91   44  169 1    
    92   45   46 2    
    93   45   47 1    
    94   47   48 1    
    95   47   49 1    
    96   47  170 1    
    97   48  171 1    
    98   48  172 1    
    99   48  173 1    
   100   49   50 am   BACKBONE|DICT|INTERRES
   101   49  174 1    
   102   50   51 2    
   103   50   52 1    
   104   52   53 1    
   105   52   54 1    
   106   52  175 1    
   107   53  176 1    
   108   53  177 1    
   109   53  178 1    
   110   54   55 am   BACKBONE|DICT|INTERRES
   111   54  179 1    
   112   55   56 2    
   113   55   57 1    
   114   57   58 1    
   115   57   59 1    
   116   57  180 1    
   117   58  181 1    
   118   58  182 1    
   119   58  183 1    
   120   59   60 am   BACKBONE|DICT|INTERRES
   121   59  184 1    
   122   60   61 2    
   123   60   62 1    
   124   62   63 1    
   125   62   64 1    
   126   62  185 1    
   127   63  186 1    
   128   63  187 1    
   129   63  188 1    
   130   64   65 am   BACKBONE|DICT|INTERRES
   131   64  189 1    
   132   65   66 2    
   133   67   68 2    
   134   67   69 am   BACKBONE|DICT|INTERRES
   135   69   70 1    
   136   69  190 1    
   137   70   71 1    
   138   70   72 1    
   139   70  191 1    
   140   71  192 1    
   141   71  193 1    
   142   71  194 1    
   143   72   73 2    
   144   72   74 am   BACKBONE|DICT|INTERRES
   145   74   75 1    
   146   74  195 1    
   147   75   76 1    
   148   75   77 1    
   149   75  196 1    
   150   76  197 1    
   151   76  198 1    
   152   76  199 1    
   153   77   78 2    
   154   77   79 am   BACKBONE|DICT|INTERRES
   155   79   80 1    
   156   79  200 1    
   157   80   81 1    
   158   80   82 1    
   159   80  201 1    
   160   81  202 1    
   161   81  203 1    
   162   81  204 1    
   163   82   83 2    
   164   82   84 am   BACKBONE|DICT|INTERRES
   165   84   85 1    
   166   84  205 1    
   167   85   86 1    
   168   85   87 1    
   169   85  206 1    
   170   86  207 1    
   171   86  208 1    
   172   86  209 1    
   173   87   88 2    
   174   87   89 am   BACKBONE|DICT|INTERRES
   175   89   90 1    
   176   89  210 1    
   177   90   91 1    
   178   90   92 1    
   179   90  211 1    
   180   91  212 1    
   181   91  213 1    
   182   91  214 1    
   183   92   93 2    
   184   92   94 am   BACKBONE|DICT|INTERRES
   185   94   95 1    
   186   94  215 1    
   187   95   96 1    
   188   95   97 1    
   189   95  216 1    
   190   96  217 1    
   191   96  218 1    
   192   96  219 1    
   193   97   98 2    
   194   97   99 am   BACKBONE|DICT|INTERRES
   195   99  100 1    
   196   99  220 1    
   197  100  101 1    
   198  100  102 1    
   199  100  221 1    
   200  101  222 1    
   201  101  223 1    
   202  101  224 1    
   203  102  103 2    
   204  102  104 am   BACKBONE|DICT|INTERRES
   205  104  105 1    
   206  104  225 1    
   207  105  106 1    
   208  105  107 1    
   209  105  226 1    
   210  106  227 1    
   211  106  228 1    
   212  106  229 1    
   213  107  108 2    
   214  107  109 am   BACKBONE|DICT|INTERRES
   215  109  110 1    
   216  109  230 1    
   217  110  111 1    
   218  110  112 1    
   219  110  231 1    
   220  111  232 1    
   221  111  233 1    
   222  111  234 1    
   223  112  113 2    
   224  112  114 am   BACKBONE|DICT|INTERRES
   225  114  115 1    
   226  114  235 1    
   227  115  116 1    
   228  115  117 1    
   229  115  236 1    
   230  116  237 1    
   231  116  238 1    
   232  116  239 1    
   233  117  118 2    
   234  117  119 am   BACKBONE|DICT|INTERRES
   235  119  120 1    
   236  119  240 1    
   237  120  121 1    
   238  120  124 1    
   239  120  241 1    
   240  121  122 am   BACKBONE|DICT|INTERRES
   241  121  123 2    
   242  122  242 1    
   243  122  243 1    
   244  124  125 1    
   245  124  244 1    
   246  124  245 1    
   247  125  126 1    
   248  126  246 1    
   249  126  247 1    
@<TRIPOS>SUBSTRUCTURE
     1 UNK         1 GROUP             0       ****    0 ROOT    
