@<TRIPOS>MOLECULE
3R540
247   249    1
SMALL
USER_CHARGES


@<TRIPOS>ATOM
      1 CA         -4.5168  -13.2684  -49.2605 C.3       0 UNK        -0.1800 
      2 C          -3.0330  -12.9767  -49.4377 C.2       0 UNK         0.5000 
      3 O          -2.6689  -12.1101  -50.2333 O.2       0 UNK        -0.5000 
      4 N          -2.1782  -13.7023  -48.7078 N.am      1 UNK        -0.5000 
      5 CA         -0.7219  -13.5353  -48.7066 C.3       1 UNK         0.1400 
      6 C6         -0.0109  -14.7264  -48.0190 C.3       23 UNK        -0.0398 
      7 S7         -0.2204  -16.2960  -48.9178 S.3       23 UNK        -0.2404 
      8 C8          1.2917  -16.3036  -49.9337 C.3       23 UNK        -0.0205 
      9 C9          1.5522  -17.6802  -50.5202 C.ar      23 UNK        -0.0193 
     10 C10         1.2013  -17.9784  -51.8391 C.ar      23 UNK        -0.1150 
     11 C11         1.4418  -19.2520  -52.3644 C.ar      23 UNK        -0.0193 
     12 C12         2.0183  -20.2349  -51.5531 C.ar      23 UNK        -0.1150 
     13 C13         2.3738  -19.9502  -50.2301 C.ar      23 UNK        -0.0193 
     14 C14         2.1553  -18.6608  -49.7314 C.ar      23 UNK        -0.1150 
     15 C15         2.9846  -21.0501  -49.3598 C.3       23 UNK        -0.0205 
     16 S16         2.5574  -20.9408  -47.5834 S.3       23 UNK        -0.2404 
     17 C17         0.7341  -20.9257  -47.6506 C.3       23 UNK        -0.0398 
     18 CA          0.1157  -22.1671  -46.9820 C.3       11 UNK         0.1400 
     19 N           0.2508  -22.1415  -45.5240 N.am      11 UNK        -0.5000 
     20 C           0.0039  -23.1866  -44.7245 C.2       10 UNK         0.5000 
     21 O          -0.3635  -24.2859  -45.1384 O.2       10 UNK        -0.5000 
     22 CA          0.1236  -22.9478  -43.2102 C.3       10 UNK         0.1400 
     23 CB          1.5943  -22.8776  -42.7731 C.3       10 UNK        -0.1800 
     24 N          -0.5852  -21.7385  -42.7909 N.am      10 UNK        -0.5000 
     25 C          -1.9146  -21.5820  -42.8749 C.2       9 UNK         0.5000 
     26 O          -2.6833  -22.4670  -43.2519 O.2       9 UNK        -0.5000 
     27 CA         -2.4820  -20.1993  -42.5073 C.3       9 UNK         0.1400 
     28 CB         -2.6745  -20.0839  -40.9880 C.3       9 UNK        -0.1800 
     29 N          -1.6555  -19.0903  -42.9886 N.am      9 UNK        -0.5000 
     30 C          -1.4287  -18.8140  -44.2817 C.2       8 UNK         0.5000 
     31 O          -1.9126  -19.4564  -45.2110 O.2       8 UNK        -0.5000 
     32 CA         -0.4522  -17.6654  -44.5942 C.3       8 UNK         0.1400 
     33 CB         -1.1254  -16.2976  -44.4085 C.3       8 UNK        -0.1800 
     34 N           0.7596  -17.7289  -43.7802 N.am      8 UNK        -0.5000 
     35 C           1.6277  -18.7499  -43.7809 C.2       7 UNK         0.5000 
     36 O           1.5189  -19.7442  -44.4974 O.2       7 UNK        -0.5000 
     37 CA          2.7765  -18.6697  -42.7639 C.3       7 UNK         0.1400 
     38 CB          3.8937  -17.7398  -43.2630 C.3       7 UNK        -0.1800 
     39 N           2.3038  -18.2194  -41.4549 N.am      7 UNK        -0.5000 
     40 C           1.5252  -18.9469  -40.6415 C.2       6 UNK         0.5000 
     41 O           1.1513  -20.0922  -40.8949 O.2       6 UNK        -0.5000 
     42 CA          1.0577  -18.2639  -39.3430 C.3       6 UNK         0.1400 
     43 CB          2.1496  -18.3403  -38.2653 C.3       6 UNK        -0.1800 
     44 N           0.6723  -16.8662  -39.5465 N.am      6 UNK        -0.5000 
     45 C          -0.3880  -16.4754  -40.2670 C.2       5 UNK         0.5000 
     46 O          -1.1626  -17.2540  -40.8199 O.2       5 UNK        -0.5000 
     47 CA         -0.5967  -14.9597  -40.4372 C.3       5 UNK         0.1400 
     48 CB         -1.3836  -14.3882  -39.2483 C.3       5 UNK        -0.1800 
     49 N           0.6410  -14.1938  -40.6140 N.am      5 UNK        -0.5000 
     50 C           1.5484  -14.4063  -41.5762 C.2       4 UNK         0.5000 
     51 O           1.5076  -15.3566  -42.3610 O.2       4 UNK        -0.5000 
     52 CA          2.7176  -13.4053  -41.6456 C.3       4 UNK         0.1400 
     53 CB          3.8460  -13.8488  -40.7015 C.3       4 UNK        -0.1800 
     54 N           3.2637  -13.2704  -42.9981 N.am      4 UNK        -0.5000 
     55 C           2.5766  -12.8643  -44.0744 C.2       3 UNK         0.5000 
     56 O           1.4038  -12.4822  -44.0354 O.2       3 UNK        -0.5000 
     57 CA          3.3365  -12.9336  -45.4159 C.3       3 UNK         0.1400 
     58 CB          3.5787  -14.4000  -45.8190 C.3       3 UNK        -0.1800 
     59 N           2.6261  -12.2746  -46.5118 N.am      3 UNK        -0.5000 
     60 C           2.3776  -10.9623  -46.6294 C.2       2 UNK         0.5000 
     61 O           2.8130  -10.1113  -45.8523 O.2       2 UNK        -0.5000 
     62 CA          1.5082  -10.5250  -47.8299 C.3       2 UNK         0.1400 
     63 CB          2.3660   -9.8041  -48.8822 C.3       2 UNK        -0.1800 
     64 N           0.8219  -11.6514  -48.4739 N.am      2 UNK        -0.5000 
     65 C          -0.3012  -12.2210  -48.0153 C.2       1 UNK         0.5000 
     66 O          -0.9475  -11.7909  -47.0571 O.2       1 UNK        -0.5000 
     67 C          -1.3414  -22.3634  -47.4456 C.2       11 UNK         0.5000 
     68 O          -1.5532  -23.0043  -48.4738 O.2       11 UNK        -0.5000 
     69 N          -2.3255  -21.8578  -46.6916 N.am      12 UNK        -0.5000 
     70 CA         -3.7505  -22.0811  -46.9493 C.3       12 UNK         0.1400 
     71 CB         -4.5946  -21.1602  -46.0571 C.3       12 UNK        -0.1800 
     72 C          -4.1780  -23.5531  -46.7864 C.2       12 UNK         0.5000 
     73 O          -5.1434  -23.9707  -47.4253 O.2       12 UNK        -0.5000 
     74 N          -3.4446  -24.3186  -45.9683 N.am      13 UNK        -0.5000 
     75 CA         -3.6107  -25.7622  -45.8312 C.3       13 UNK         0.1400 
     76 CB         -3.2591  -26.1822  -44.3948 C.3       13 UNK        -0.1800 
     77 C          -2.7507  -26.5236  -46.8561 C.2       13 UNK         0.5000 
     78 O          -3.2616  -27.4180  -47.5305 O.2       13 UNK        -0.5000 
     79 N          -1.4591  -26.1751  -46.9375 N.am      14 UNK        -0.5000 
     80 CA         -0.4504  -26.9162  -47.6956 C.3       14 UNK         0.1400 
     81 CB          0.9457  -26.5506  -47.1665 C.3       14 UNK        -0.1800 
     82 C          -0.5173  -26.7012  -49.2175 C.2       14 UNK         0.5000 
     83 O          -0.4037  -27.6719  -49.9673 O.2       14 UNK        -0.5000 
     84 N          -0.6661  -25.4422  -49.6456 N.am      15 UNK        -0.5000 
     85 CA         -0.6155  -25.0258  -51.0506 C.3       15 UNK         0.1400 
     86 CB          0.4107  -23.8850  -51.1814 C.3       15 UNK        -0.1800 
     87 C          -1.9840  -24.5632  -51.5801 C.2       15 UNK         0.5000 
     88 O          -2.1327  -24.4081  -52.7922 O.2       15 UNK        -0.5000 
     89 N          -2.9390  -24.3232  -50.6694 N.am      16 UNK        -0.5000 
     90 CA         -4.2264  -23.6618  -50.8962 C.3       16 UNK         0.1400 
     91 CB         -5.1922  -24.5468  -51.7095 C.3       16 UNK        -0.1800 
     92 C          -4.0566  -22.2125  -51.4028 C.2       16 UNK         0.5000 
     93 O          -4.7543  -21.7615  -52.3160 O.2       16 UNK        -0.5000 
     94 N          -3.1241  -21.4976  -50.7567 N.am      17 UNK        -0.5000 
     95 CA         -2.9580  -20.0491  -50.8644 C.3       17 UNK         0.1400 
     96 CB         -1.6470  -19.6485  -50.1819 C.3       17 UNK        -0.1800 
     97 C          -4.1489  -19.3030  -50.2319 C.2       17 UNK         0.5000 
     98 O          -4.9028  -19.8921  -49.4540 O.2       17 UNK        -0.5000 
     99 N          -4.3332  -18.0320  -50.6153 N.am      18 UNK        -0.5000 
    100 CA        -5.4603  -17.1388  -50.2851 C.3       18 UNK         0.1400 
    101 CB        -5.6220  -16.9439  -48.7651 C.3       18 UNK        -0.1800 
    102 C         -6.7904  -17.5500  -50.9558 C.2       18 UNK         0.5000 
    103 O         -7.5200  -16.6823  -51.4350 O.2       18 UNK        -0.5000 
    104 N         -7.0376  -18.8628  -51.0610 N.am      19 UNK        -0.5000 
    105 CA        -8.0278  -19.4878  -51.9425 C.3       19 UNK         0.1400 
    106 CB        -8.2421  -20.9417  -51.4930 C.3       19 UNK        -0.1800 
    107 C         -7.6197  -19.4287  -53.4331 C.2       19 UNK         0.5000 
    108 O         -8.4592  -19.6769  -54.2990 O.2       19 UNK        -0.5000 
    109 N         -6.3512  -19.0756  -53.6945 N.am      20 UNK        -0.5000 
    110 CA        -5.7381  -18.7969  -54.9943 C.3       20 UNK         0.1400 
    111 CB        -6.4315  -17.6069  -55.6916 C.3       20 UNK        -0.1800 
    112 C         -5.6017  -20.0392  -55.8945 C.2       20 UNK         0.5000 
    113 O         -5.7708  -19.9402  -57.1112 O.2       20 UNK        -0.5000 
    114 N         -5.2498  -21.1836  -55.2911 N.am      21 UNK        -0.5000 
    115 CA        -4.8916  -22.4062  -56.0188 C.3       21 UNK         0.1400 
    116 CB        -5.0526  -23.6077  -55.0835 C.3       21 UNK        -0.1800 
    117 C         -3.4565  -22.3685  -56.5888 C.2       21 UNK         0.5000 
    118 O         -3.1153  -23.2229  -57.4081 O.2       21 UNK        -0.5000 
    119 N         -2.6492  -21.3979  -56.1362 N.am      22 UNK        -0.5000 
    120 CA        -1.2739  -21.1066  -56.5691 C.3       22 UNK         0.1400 
    121 C         -1.1223  -20.9733  -58.1126 C.2       22 UNK         0.5000 
    122 N         -0.0964  -21.5764  -58.6979 N.am      22 UNK        -0.7600 
    123 O         -1.8975  -20.2858  -58.7735 O.2       22 UNK        -0.5000 
    124 C124       -0.7493  -19.8154  -55.8904 C.3       23 UNK        -0.0398 
    125 S125       -0.6510  -19.9241  -54.0681 S.3       23 UNK        -0.2404 
    126 C126        1.1127  -19.5467  -53.8193 C.3       23 UNK        -0.0205 
    127 H127       -5.0458  -12.3595  -48.9738 H         1 UNK         0.0600 
    128 H128       -4.9432  -13.6315  -50.1954 H         1 UNK         0.0600 
    129 H129       -4.6930  -14.0191  -48.4900 H         1 UNK         0.0600 
    130 H130       -2.5372  -14.3911  -48.0637 H         1 UNK         0.3000 
    131 H131       -0.3908  -13.4897  -49.7466 H         1 UNK         0.0600 
    132 H132        1.0571  -14.5377  -47.9054 H         1 UNK         0.0800 
    133 H133       -0.3941  -14.8627  -47.0066 H         1 UNK         0.0800 
    134 H134        2.1509  -16.0099  -49.3289 H         1 UNK         0.0800 
    135 H135        1.2000  -15.5590  -50.7258 H         1 UNK         0.0800 
    136 H136        0.7449  -17.2199  -52.4595 H         1 UNK         0.1150 
    137 H137        2.1944  -21.2227  -51.9555 H         1 UNK         0.1150 
    138 H138        2.4307  -18.4175  -48.7152 H         1 UNK         0.1150 
    139 H139        2.6727  -22.0304  -49.7235 H         1 UNK         0.0800 
    140 H140        4.0696  -21.0118  -49.4617 H         1 UNK         0.0800 
    141 H141        0.4319  -20.8770  -48.6954 H         1 UNK         0.0800 
    142 H142        0.3684  -20.0083  -47.1854 H         1 UNK         0.0800 
    143 H143        0.6625  -23.0419  -47.3404 H         1 UNK         0.0600 
    144 H144        0.5833  -21.2707  -45.1149 H         1 UNK         0.3000 
    145 H145       -0.3369  -23.7986  -42.7036 H         1 UNK         0.0600 
    146 H146        1.6783  -22.7853  -41.6902 H         1 UNK         0.0600 
    147 H147        2.1310  -23.7810  -43.0654 H         1 UNK         0.0600 
    148 H148        2.1121  -22.0295  -43.2208 H         1 UNK         0.0600 
    149 H149       -0.0198  -20.9782  -42.4302 H         1 UNK         0.3000 
    150 H150       -3.4624  -20.1097  -42.9793 H         1 UNK         0.0600 
    151 H151       -3.2850  -20.9034  -40.6066 H         1 UNK         0.0600 
    152 H152       -3.1794  -19.1543  -40.7250 H         1 UNK         0.0600 
    153 H153       -1.7211  -20.1087  -40.4590 H         1 UNK         0.0600 
    154 H154       -1.2561  -18.4845  -42.2767 H         1 UNK         0.3000 
    155 H155       -0.1506  -17.7566  -45.6400 H         1 UNK         0.0600 
    156 H156       -1.4860  -16.1616  -43.3890 H         1 UNK         0.0600 
    157 H157       -1.9804  -16.1911  -45.0771 H         1 UNK         0.0600 
    158 H158       -0.4340  -15.4832  -44.6262 H         1 UNK         0.0600 
    159 H159        0.9482  -16.9328  -43.1750 H         1 UNK         0.3000 
    160 H160        3.1949  -19.6722  -42.6510 H         1 UNK         0.0600 
    161 H161        4.7341  -17.7259  -42.5690 H         1 UNK         0.0600 
    162 H162        3.5453  -16.7145  -43.3873 H         1 UNK         0.0600 
    163 H163        4.2744  -18.0745  -44.2288 H         1 UNK         0.0600 
    164 H164        2.4995  -17.2602  -41.2086 H         1 UNK         0.3000 
    165 H165        0.1826  -18.8071  -38.9797 H         1 UNK         0.0600 
    166 H166        1.7970  -17.9328  -37.3177 H         1 UNK         0.0600 
    167 H167        2.4456  -19.3743  -38.0831 H         1 UNK         0.0600 
    168 H168        3.0445  -17.7888  -38.5562 H         1 UNK         0.0600 
    169 H169        1.2617  -16.1597  -39.1318 H         1 UNK         0.3000 
    170 H170       -1.1957  -14.8150  -41.3383 H         1 UNK         0.0600 
    171 H171       -2.3207  -14.9278  -39.1044 H         1 UNK         0.0600 
    172 H172       -0.8176  -14.4593  -38.3187 H         1 UNK         0.0600 
    173 H173       -1.6363  -13.3400  -39.4090 H         1 UNK         0.0600 
    174 H174        0.7645  -13.4033  -39.9979 H         1 UNK         0.3000 
    175 H175        2.3560  -12.4241  -41.3315 H         1 UNK         0.0600 
    176 H176        4.2509  -14.8207  -40.9878 H         1 UNK         0.0600 
    177 H177        4.6660  -13.1305  -40.7011 H         1 UNK         0.0600 
    178 H178        3.4900  -13.9318  -39.6738 H         1 UNK         0.0600 
    179 H179        4.2121  -13.5911  -43.1239 H         1 UNK         0.3000 
    180 H180        4.2998  -12.4353  -45.2894 H         1 UNK         0.0600 
    181 H181        2.6433  -14.9563  -45.8967 H         1 UNK         0.0600 
    182 H182        4.2017  -14.9142  -45.0865 H         1 UNK         0.0600 
    183 H183        4.0924  -14.4692  -46.7781 H         1 UNK         0.0600 
    184 H184        2.2217  -12.8829  -47.2034 H         1 UNK         0.3000 
    185 H185        0.7631   -9.8194  -47.4562 H         1 UNK         0.0600 
    186 H186        2.8667   -8.9362  -48.4509 H         1 UNK         0.0600 
    187 H187        3.1374  -10.4581  -49.2908 H         1 UNK         0.0600 
    188 H188        1.7550   -9.4455  -49.7107 H         1 UNK         0.0600 
    189 H189        1.2811  -12.0446  -49.2835 H         1 UNK         0.3000 
    190 H190       -2.0930  -21.2481  -45.9126 H         1 UNK         0.3000 
    191 H191       -3.9448  -21.8093  -47.9868 H         1 UNK         0.0600 
    192 H192       -4.4214  -21.3531  -44.9989 H         1 UNK         0.0600 
    193 H193       -5.6591  -21.3007  -46.2484 H         1 UNK         0.0600 
    194 H194       -4.3692  -20.1116  -46.2522 H         1 UNK         0.0600 
    195 H195       -2.6721  -23.8973  -45.4688 H         1 UNK         0.3000 
    196 H196       -4.6552  -26.0302  -46.0042 H         1 UNK         0.0600 
    197 H197       -3.3894  -27.2567  -44.2601 H         1 UNK         0.0600 
    198 H198       -3.9044  -25.6826  -43.6720 H         1 UNK         0.0600 
    199 H199       -2.2270  -25.9424  -44.1384 H         1 UNK         0.0600 
    200 H200       -1.1096  -25.4450  -46.3198 H         1 UNK         0.3000 
    201 H201       -0.6044  -27.9813  -47.5087 H         1 UNK         0.0600 
    202 H202        1.0366  -26.7801  -46.1046 H         1 UNK         0.0600 
    203 H203        1.1627  -25.4901  -47.2976 H         1 UNK         0.0600 
    204 H204        1.7220  -27.1120  -47.6881 H         1 UNK         0.0600 
    205 H205       -0.8021  -24.6973  -48.9700 H         1 UNK         0.3000 
    206 H206       -0.2863  -25.8502  -51.6862 H         1 UNK         0.0600 
    207 H207        1.3973  -24.2015  -50.8428 H         1 UNK         0.0600 
    208 H208        0.5114  -23.5653  -52.2195 H         1 UNK         0.0600 
    209 H209        0.1221  -23.0091  -50.5992 H         1 UNK         0.0600 
    210 H210       -2.6791  -24.4437  -49.6999 H         1 UNK         0.3000 
    211 H211       -4.6820  -23.5447  -49.9147 H         1 UNK         0.0600 
    212 H212       -4.7349  -24.9440  -52.6127 H         1 UNK         0.0600 
    213 H213       -6.0917  -24.0015  -51.9974 H         1 UNK         0.0600 
    214 H214       -5.5144  -25.4014  -51.1148 H         1 UNK         0.0600 
    215 H215       -2.5944  -21.9577  -50.0269 H         1 UNK         0.3000 
    216 H216       -2.9014  -19.7894  -51.9232 H         1 UNK         0.0600 
    217 H217       -1.4256  -18.5963  -50.3577 H         1 UNK         0.0600 
    218 H218       -0.8094  -20.2218  -50.5780 H         1 UNK         0.0600 
    219 H219       -1.6913  -19.7987  -49.1029 H         1 UNK         0.0600 
    220 H220       -3.6562  -17.6323  -51.2506 H         1 UNK         0.3000 
    221 H221       -5.1909  -16.1687  -50.7056 H         1 UNK         0.0600 
    222 H222       -5.9730  -17.8483  -48.2679 H         1 UNK         0.0600 
    223 H223       -4.6793  -16.6514  -48.3027 H         1 UNK         0.0600 
    224 H224       -6.3478  -16.1582  -48.5527 H         1 UNK         0.0600 
    225 H225       -6.4009  -19.4889  -50.5757 H         1 UNK         0.3000 
    226 H226       -8.9725  -18.9506  -51.8381 H         1 UNK         0.0600 
    227 H227       -8.5837  -20.9882  -50.4589 H         1 UNK         0.0600 
    228 H228       -8.9971  -21.4343  -52.1070 H         1 UNK         0.0600 
    229 H229       -7.3254  -21.5267  -51.5691 H         1 UNK         0.0600 
    230 H230       -5.7506  -18.9455  -52.8950 H         1 UNK         0.3000 
    231 H231       -4.7161  -18.4838  -54.7759 H         1 UNK         0.0600 
    232 H232       -6.4925  -16.7429  -55.0297 H         1 UNK         0.0600 
    233 H233       -7.4434  -17.8565  -56.0119 H         1 UNK         0.0600 
    234 H234       -5.8772  -17.2960  -56.5779 H         1 UNK         0.0600 
    235 H235       -5.1529  -21.2137  -54.2802 H         1 UNK         0.3000 
    236 H236       -5.5809  -22.5351  -56.8559 H         1 UNK         0.0600 
    237 H237       -4.9319  -24.5467  -55.6248 H         1 UNK         0.0600 
    238 H238       -4.2948  -23.5817  -54.3021 H         1 UNK         0.0600 
    239 H239       -6.0351  -23.6222  -54.6116 H         1 UNK         0.0600 
    240 H240       -3.0239  -20.7721  -55.4410 H         1 UNK         0.3000 
    241 H241       -0.6573  -21.9442  -56.2379 H         1 UNK         0.0600 
    242 H242        0.0217  -21.4835  -59.6951 H         1 UNK         0.3800 
    243 H243        0.5565  -22.1399  -58.1750 H         1 UNK         0.3800 
    244 H244        0.2382  -19.5658  -56.2828 H         1 UNK         0.0800 
    245 H245       -1.3889  -18.9677  -56.1435 H         1 UNK         0.0800 
    246 H246        1.7134  -20.3806  -54.1859 H         1 UNK         0.0800 
    247 H247        1.3894  -18.6803  -54.4222 H         1 UNK         0.0800 
@<TRIPOS>BOND
     1    1    2 1    
     2    1  127 1    
     3    1  128 1    
     4    1  129 1    
     5    2    3 2    
     6    2    4 am   BACKBONE|DICT|INTERRES
     7    4    5 1    
     8    4  130 1    
     9    5    6 1    
    10    5   65 1    
    11    5  131 1    
    12    6    7 1    
    13    6  132 1    
    14    6  133 1    
    15    7    8 1    
    16    8    9 1    
    17    8  134 1    
    18    8  135 1    
    19    9   10 ar   
    20    9   14 ar   
    21   10   11 ar   
    22   10  136 1    
    23   11   12 ar   
    24   11  126 1    
    25   12   13 ar   
    26   12  137 1    
    27   13   14 ar   
    28   13   15 1    
    29   14  138 1    
    30   15   16 1    
    31   15  139 1    
    32   15  140 1    
    33   16   17 1    
    34   17   18 1    
    35   17  141 1    
    36   17  142 1    
    37   18   19 1    
    38   18   67 1    
    39   18  143 1    
    40   19   20 am   BACKBONE|DICT|INTERRES
    41   19  144 1    
    42   20   21 2    
    43   20   22 1    
    44   22   23 1    
    45   22   24 1    
    46   22  145 1    
    47   23  146 1    
    48   23  147 1    
    49   23  148 1    
    50   24   25 am   BACKBONE|DICT|INTERRES
    51   24  149 1    
    52   25   26 2    
    53   25   27 1    
    54   27   28 1    
    55   27   29 1    
    56   27  150 1    
    57   28  151 1    
    58   28  152 1    
    59   28  153 1    
    60   29   30 am   BACKBONE|DICT|INTERRES
    61   29  154 1    
    62   30   31 2    
    63   30   32 1    
    64   32   33 1    
    65   32   34 1    
    66   32  155 1    
    67   33  156 1    
    68   33  157 1    
    69   33  158 1    
    70   34   35 am   BACKBONE|DICT|INTERRES
    71   34  159 1    
    72   35   36 2    
    73   35   37 1    
    74   37   38 1    
    75   37   39 1    
    76   37  160 1    
    77   38  161 1    
    78   38  162 1    
    79   38  163 1    
    80   39   40 am   BACKBONE|DICT|INTERRES
    81   39  164 1    
    82   40   41 2    
    83   40   42 1    
    84   42   43 1    
    85   42   44 1    
    86   42  165 1    
    87   43  166 1    
    88   43  167 1    
    89   43  168 1    
    90   44   45 am   BACKBONE|DICT|INTERRES
    91   44  169 1    
    92   45   46 2    
    93   45   47 1    
    94   47   48 1    
    95   47   49 1    
    96   47  170 1    
    97   48  171 1    
    98   48  172 1    
    99   48  173 1    
   100   49   50 am   BACKBONE|DICT|INTERRES
   101   49  174 1    
   102   50   51 2    
   103   50   52 1    
   104   52   53 1    
   105   52   54 1    
   106   52  175 1    
   107   53  176 1    
   108   53  177 1    
   109   53  178 1    
   110   54   55 am   BACKBONE|DICT|INTERRES
   111   54  179 1    
   112   55   56 2    
   113   55   57 1    
   114   57   58 1    
   115   57   59 1    
   116   57  180 1    
   117   58  181 1    
   118   58  182 1    
   119   58  183 1    
   120   59   60 am   BACKBONE|DICT|INTERRES
   121   59  184 1    
   122   60   61 2    
   123   60   62 1    
   124   62   63 1    
   125   62   64 1    
   126   62  185 1    
   127   63  186 1    
   128   63  187 1    
   129   63  188 1    
   130   64   65 am   BACKBONE|DICT|INTERRES
   131   64  189 1    
   132   65   66 2    
   133   67   68 2    
   134   67   69 am   BACKBONE|DICT|INTERRES
   135   69   70 1    
   136   69  190 1    
   137   70   71 1    
   138   70   72 1    
   139   70  191 1    
   140   71  192 1    
   141   71  193 1    
   142   71  194 1    
   143   72   73 2    
   144   72   74 am   BACKBONE|DICT|INTERRES
   145   74   75 1    
   146   74  195 1    
   147   75   76 1    
   148   75   77 1    
   149   75  196 1    
   150   76  197 1    
   151   76  198 1    
   152   76  199 1    
   153   77   78 2    
   154   77   79 am   BACKBONE|DICT|INTERRES
   155   79   80 1    
   156   79  200 1    
   157   80   81 1    
   158   80   82 1    
   159   80  201 1    
   160   81  202 1    
   161   81  203 1    
   162   81  204 1    
   163   82   83 2    
   164   82   84 am   BACKBONE|DICT|INTERRES
   165   84   85 1    
   166   84  205 1    
   167   85   86 1    
   168   85   87 1    
   169   85  206 1    
   170   86  207 1    
   171   86  208 1    
   172   86  209 1    
   173   87   88 2    
   174   87   89 am   BACKBONE|DICT|INTERRES
   175   89   90 1    
   176   89  210 1    
   177   90   91 1    
   178   90   92 1    
   179   90  211 1    
   180   91  212 1    
   181   91  213 1    
   182   91  214 1    
   183   92   93 2    
   184   92   94 am   BACKBONE|DICT|INTERRES
   185   94   95 1    
   186   94  215 1    
   187   95   96 1    
   188   95   97 1    
   189   95  216 1    
   190   96  217 1    
   191   96  218 1    
   192   96  219 1    
   193   97   98 2    
   194   97   99 am   BACKBONE|DICT|INTERRES
   195   99  100 1    
   196   99  220 1    
   197  100  101 1    
   198  100  102 1    
   199  100  221 1    
   200  101  222 1    
   201  101  223 1    
   202  101  224 1    
   203  102  103 2    
   204  102  104 am   BACKBONE|DICT|INTERRES
   205  104  105 1    
   206  104  225 1    
   207  105  106 1    
   208  105  107 1    
   209  105  226 1    
   210  106  227 1    
   211  106  228 1    
   212  106  229 1    
   213  107  108 2    
   214  107  109 am   BACKBONE|DICT|INTERRES
   215  109  110 1    
   216  109  230 1    
   217  110  111 1    
   218  110  112 1    
   219  110  231 1    
   220  111  232 1    
   221  111  233 1    
   222  111  234 1    
   223  112  113 2    
   224  112  114 am   BACKBONE|DICT|INTERRES
   225  114  115 1    
   226  114  235 1    
   227  115  116 1    
   228  115  117 1    
   229  115  236 1    
   230  116  237 1    
   231  116  238 1    
   232  116  239 1    
   233  117  118 2    
   234  117  119 am   BACKBONE|DICT|INTERRES
   235  119  120 1    
   236  119  240 1    
   237  120  121 1    
   238  120  124 1    
   239  120  241 1    
   240  121  122 am   BACKBONE|DICT|INTERRES
   241  121  123 2    
   242  122  242 1    
   243  122  243 1    
   244  124  125 1    
   245  124  244 1    
   246  124  245 1    
   247  125  126 1    
   248  126  246 1    
   249  126  247 1    
@<TRIPOS>SUBSTRUCTURE
     1 UNK         1 GROUP             0       ****    0 ROOT    
