@<TRIPOS>MOLECULE
3R540
247   249    1
SMALL
USER_CHARGES


@<TRIPOS>ATOM
      1 CA         -3.2442  -16.5496  -43.4258 C.3       0 UNK        -0.1800 
      2 C          -3.3061  -15.1981  -44.1207 C.2       0 UNK         0.5000 
      3 O          -3.0716  -14.1724  -43.4818 O.2       0 UNK        -0.5000 
      4 N          -3.6115  -15.1959  -45.4264 N.am      1 UNK        -0.5000 
      5 CA         -3.8347  -14.0099  -46.2727 C.3       1 UNK         0.1400 
      6 C6         -4.2645  -14.3677  -47.7237 C.3       23 UNK        -0.0398 
      7 S7         -5.4018  -15.7959  -47.8472 S.3       23 UNK        -0.2404 
      8 C8         -5.0078  -16.4413  -49.5141 C.3       23 UNK        -0.0205 
      9 C9         -3.6334  -17.0956  -49.7086 C.ar      23 UNK        -0.0193 
     10 C10        -3.3269  -17.6075  -50.9737 C.ar      23 UNK        -0.1150 
     11 C11        -2.0737  -18.1649  -51.2383 C.ar      23 UNK        -0.0193 
     12 C12        -1.1171  -18.2138  -50.2228 C.ar      23 UNK        -0.1150 
     13 C13        -1.3981  -17.7211  -48.9476 C.ar      23 UNK        -0.0193 
     14 C14        -2.6639  -17.1747  -48.6981 C.ar      23 UNK        -0.1150 
     15 C15        -0.2797  -17.7439  -47.9043 C.3       23 UNK        -0.0205 
     16 S16        -0.7994  -17.5293  -46.1677 S.3       23 UNK        -0.2404 
     17 C17        -1.7620  -19.0379  -45.7915 C.3       23 UNK        -0.0398 
     18 CA         -1.2420  -20.3799  -46.3708 C.3       11 UNK         0.1400 
     19 N           0.1791  -20.6294  -46.0919 N.am      11 UNK        -0.5000 
     20 C           0.8770  -21.6689  -46.5768 C.2       10 UNK         0.5000 
     21 O           0.4088  -22.5068  -47.3474 O.2       10 UNK        -0.5000 
     22 CA          2.3198  -21.8396  -46.0740 C.3       10 UNK         0.1400 
     23 CB          3.2994  -21.0045  -46.9125 C.3       10 UNK        -0.1800 
     24 N           2.4394  -21.4904  -44.6584 N.am      10 UNK        -0.5000 
     25 C           2.0131  -22.2713  -43.6545 C.2       9 UNK         0.5000 
     26 O           1.5273  -23.3891  -43.8237 O.2       9 UNK        -0.5000 
     27 CA          2.0980  -21.6927  -42.2274 C.3       9 UNK         0.1400 
     28 CB          3.4926  -21.9255  -41.6287 C.3       9 UNK        -0.1800 
     29 N           1.7837  -20.2656  -42.1721 N.am      9 UNK        -0.5000 
     30 C           0.6020  -19.7329  -42.5115 C.2       8 UNK         0.5000 
     31 O          -0.3832  -20.4011  -42.8208 O.2       8 UNK        -0.5000 
     32 CA          0.5213  -18.1980  -42.5819 C.3       8 UNK         0.1400 
     33 CB         -0.0125  -17.6232  -41.2626 C.3       8 UNK        -0.1800 
     34 N           1.7891  -17.5511  -42.9278 N.am      8 UNK        -0.5000 
     35 C           2.5009  -17.7731  -44.0427 C.2       7 UNK         0.5000 
     36 O           2.1656  -18.5744  -44.9133 O.2       7 UNK        -0.5000 
     37 CA          3.8337  -17.0203  -44.1844 C.3       7 UNK         0.1400 
     38 CB          3.6249  -15.6415  -44.8206 C.3       7 UNK        -0.1800 
     39 N           4.5039  -16.8584  -42.8965 N.am      7 UNK        -0.5000 
     40 C           5.2470  -17.8044  -42.3077 C.2       6 UNK         0.5000 
     41 O           5.4746  -18.9066  -42.8066 O.2       6 UNK        -0.5000 
     42 CA          5.8192  -17.4640  -40.9192 C.3       6 UNK         0.1400 
     43 CB          7.1724  -16.7494  -41.0533 C.3       6 UNK        -0.1800 
     44 N           4.9130  -16.6342  -40.1228 N.am      6 UNK        -0.5000 
     45 C           3.7518  -17.0649  -39.6118 C.2       5 UNK         0.5000 
     46 O           3.3333  -18.2163  -39.7382 O.2       5 UNK        -0.5000 
     47 CA          2.9025  -16.0247  -38.8565 C.3       5 UNK         0.1400 
     48 CB          3.3173  -15.9649  -37.3786 C.3       5 UNK        -0.1800 
     49 N           2.9464  -14.6721  -39.4262 N.am      5 UNK        -0.5000 
     50 C           2.5470  -14.3505  -40.6632 C.2       4 UNK         0.5000 
     51 O           2.2189  -15.1781  -41.5144 O.2       4 UNK        -0.5000 
     52 CA          2.5064  -12.8638  -41.0264 C.3       4 UNK         0.1400 
     53 CB          3.7216  -12.4713  -41.8820 C.3       4 UNK        -0.1800 
     54 N           1.2770  -12.6317  -41.7775 N.am      4 UNK        -0.5000 
     55 C           0.5080  -11.5409  -41.6933 C.2       3 UNK         0.5000 
     56 O           0.8030  -10.5560  -41.0130 O.2       3 UNK        -0.5000 
     57 CA         -0.8224  -11.5687  -42.4805 C.3       3 UNK         0.1400 
     58 CB         -1.4267  -10.1645  -42.6921 C.3       3 UNK        -0.1800 
     59 N          -0.7549  -12.2951  -43.7543 N.am      3 UNK        -0.5000 
     60 C           0.0215  -12.0091  -44.8126 C.2       2 UNK         0.5000 
     61 O           0.8483  -11.0968  -44.8310 O.2       2 UNK        -0.5000 
     62 CA         -0.1498  -12.8818  -46.0744 C.3       2 UNK         0.1400 
     63 CB          0.9827  -13.9110  -46.1743 C.3       2 UNK        -0.1800 
     64 N          -1.4205  -13.6014  -46.1330 N.am      2 UNK        -0.5000 
     65 C          -2.6263  -13.0479  -46.3204 C.2       1 UNK         0.5000 
     66 O          -2.8071  -11.8464  -46.5205 O.2       1 UNK        -0.5000 
     67 C          -2.1342  -21.5352  -45.8662 C.2       11 UNK         0.5000 
     68 O          -3.0846  -21.9081  -46.5498 O.2       11 UNK        -0.5000 
     69 N          -1.8032  -22.0782  -44.6858 N.am      12 UNK        -0.5000 
     70 CA         -2.4746  -23.2218  -44.0709 C.3       12 UNK         0.1400 
     71 CB         -2.1040  -23.2768  -42.5808 C.3       12 UNK        -0.1800 
     72 C          -2.1441  -24.5610  -44.7568 C.2       12 UNK         0.5000 
     73 O          -2.9984  -25.4479  -44.7810 O.2       12 UNK        -0.5000 
     74 N          -0.9170  -24.6978  -45.2806 N.am      13 UNK        -0.5000 
     75 CA         -0.4607  -25.8820  -46.0113 C.3       13 UNK         0.1400 
     76 CB          1.0718  -25.8674  -46.1185 C.3       13 UNK        -0.1800 
     77 C          -1.1048  -25.9934  -47.4050 C.2       13 UNK         0.5000 
     78 O          -1.4889  -27.0908  -47.8128 O.2       13 UNK        -0.5000 
     79 N          -1.2189  -24.8568  -48.1031 N.am      14 UNK        -0.5000 
     80 CA         -1.9278  -24.7247  -49.3741 C.3       14 UNK         0.1400 
     81 CB         -1.5005  -23.4009  -50.0327 C.3       14 UNK        -0.1800 
     82 C          -3.4579  -24.7592  -49.1855 C.2       14 UNK         0.5000 
     83 O          -3.9578  -24.5579  -48.0774 O.2       14 UNK        -0.5000 
     84 N          -4.1872  -24.9605  -50.2918 N.am      15 UNK        -0.5000 
     85 CA         -5.6470  -24.8055  -50.3371 C.3       15 UNK         0.1400 
     86 CB         -6.2086  -25.5714  -51.5458 C.3       15 UNK        -0.1800 
     87 C          -6.0898  -23.3245  -50.3513 C.2       15 UNK         0.5000 
     88 O          -7.2579  -23.0430  -50.0853 O.2       15 UNK        -0.5000 
     89 N          -5.1489  -22.4148  -50.6561 N.am      16 UNK        -0.5000 
     90 CA         -5.2372  -20.9493  -50.5919 C.3       16 UNK         0.1400 
     91 CB         -5.5183  -20.4851  -49.1488 C.3       16 UNK        -0.1800 
     92 C          -6.1963  -20.2965  -51.6100 C.2       16 UNK         0.5000 
     93 O          -6.3927  -19.0814  -51.5620 O.2       16 UNK        -0.5000 
     94 N          -6.7408  -21.0787  -52.5508 N.am      17 UNK        -0.5000 
     95 CA         -7.6005  -20.6302  -53.6493 C.3       17 UNK         0.1400 
     96 CB         -8.4497  -21.8188  -54.1361 C.3       17 UNK        -0.1800 
     97 C          -6.7885  -19.9694  -54.7856 C.2       17 UNK         0.5000 
     98 O          -6.8511  -20.4112  -55.9342 O.2       17 UNK        -0.5000 
     99 N          -6.0253  -18.9275  -54.4292 N.am      18 UNK        -0.5000 
    100 CA        -5.1437  -18.1276  -55.2831 C.3       18 UNK         0.1400 
    101 CB        -5.9869  -17.2515  -56.2365 C.3       18 UNK        -0.1800 
    102 C         -4.0753  -18.9799  -56.0054 C.2       18 UNK         0.5000 
    103 O         -3.6338  -19.9997  -55.4693 O.2       18 UNK        -0.5000 
    104 N         -3.6718  -18.5551  -57.2100 N.am      19 UNK        -0.5000 
    105 CA        -2.6694  -19.2173  -58.0486 C.3       19 UNK         0.1400 
    106 CB        -2.3593  -18.3230  -59.2581 C.3       19 UNK        -0.1800 
    107 C         -3.0718  -20.6309  -58.5124 C.2       19 UNK         0.5000 
    108 O         -2.1897  -21.4427  -58.7907 O.2       19 UNK        -0.5000 
    109 N         -4.3807  -20.9201  -58.5556 N.am      20 UNK        -0.5000 
    110 CA        -4.9198  -22.2475  -58.8597 C.3       20 UNK         0.1400 
    111 CB        -6.4371  -22.1475  -59.0772 C.3       20 UNK        -0.1800 
    112 C         -4.5868  -23.2917  -57.7751 C.2       20 UNK         0.5000 
    113 O         -4.4508  -24.4725  -58.0982 O.2       20 UNK        -0.5000 
    114 N         -4.4358  -22.8380  -56.5237 N.am      21 UNK        -0.5000 
    115 CA        -3.9577  -23.6462  -55.4069 C.3       21 UNK         0.1400 
    116 CB        -4.6342  -23.1768  -54.1114 C.3       21 UNK        -0.1800 
    117 C         -2.4331  -23.5438  -55.2658 C.2       21 UNK         0.5000 
    118 O         -1.7574  -24.5692  -55.1743 O.2       21 UNK        -0.5000 
    119 N         -1.9325  -22.3051  -55.2064 N.am      22 UNK        -0.5000 
    120 CA        -0.5443  -21.9900  -54.8421 C.3       22 UNK         0.1400 
    121 C          0.4976  -22.1491  -55.9860 C.2       22 UNK         0.5000 
    122 N          0.1075  -22.2791  -57.2469 N.am      22 UNK        -0.7600 
    123 O          1.6962  -22.1678  -55.7198 O.2       22 UNK        -0.5000 
    124 C124       -0.4443  -20.5916  -54.1872 C.3       23 UNK        -0.0398 
    125 S125       -1.4425  -20.4570  -52.6628 S.3       23 UNK        -0.2404 
    126 C126       -1.7196  -18.6606  -52.6310 C.3       23 UNK        -0.0205 
    127 H127       -3.8717  -16.5426  -42.5347 H         1 UNK         0.0600 
    128 H128       -3.5876  -17.3550  -44.0747 H         1 UNK         0.0600 
    129 H129       -2.2215  -16.7640  -43.1209 H         1 UNK         0.0600 
    130 H130       -3.8148  -16.0748  -45.8797 H         1 UNK         0.3000 
    131 H131       -4.6575  -13.4609  -45.8104 H         1 UNK         0.0600 
    132 H132       -3.3908  -14.5657  -48.3463 H         1 UNK         0.0800 
    133 H133       -4.7553  -13.5080  -48.1830 H         1 UNK         0.0800 
    134 H134       -5.7775  -17.1674  -49.7759 H         1 UNK         0.0800 
    135 H135       -5.1100  -15.6245  -50.2299 H         1 UNK         0.0800 
    136 H136       -4.0637  -17.5507  -51.7628 H         1 UNK         0.1150 
    137 H137       -0.1402  -18.6256  -50.4354 H         1 UNK         0.1150 
    138 H138       -2.8794  -16.7832  -47.7194 H         1 UNK         0.1150 
    139 H139        0.3044  -18.6596  -47.9975 H         1 UNK         0.0800 
    140 H140        0.4079  -16.9312  -48.1408 H         1 UNK         0.0800 
    141 H141       -2.7805  -18.8636  -46.1427 H         1 UNK         0.0800 
    142 H142       -1.8351  -19.1015  -44.7052 H         1 UNK         0.0800 
    143 H143       -1.3555  -20.3473  -47.4563 H         1 UNK         0.0600 
    144 H144        0.6565  -19.9553  -45.5041 H         1 UNK         0.3000 
    145 H145        2.5957  -22.8893  -46.1927 H         1 UNK         0.0600 
    146 H146        4.3211  -21.1093  -46.5476 H         1 UNK         0.0600 
    147 H147        3.2903  -21.3314  -47.9530 H         1 UNK         0.0600 
    148 H148        3.0469  -19.9445  -46.9057 H         1 UNK         0.0600 
    149 H149        2.7423  -20.5459  -44.4545 H         1 UNK         0.3000 
    150 H150        1.3670  -22.2202  -41.6110 H         1 UNK         0.0600 
    151 H151        3.7434  -22.9871  -41.6245 H         1 UNK         0.0600 
    152 H152        3.5429  -21.5747  -40.5976 H         1 UNK         0.0600 
    153 H153        4.2661  -21.4069  -42.1966 H         1 UNK         0.0600 
    154 H154        2.5330  -19.6393  -41.9120 H         1 UNK         0.3000 
    155 H155       -0.1886  -17.9476  -43.3681 H         1 UNK         0.0600 
    156 H156        0.6665  -17.8256  -40.4348 H         1 UNK         0.0600 
    157 H157       -0.9787  -18.0612  -41.0090 H         1 UNK         0.0600 
    158 H158       -0.1541  -16.5444  -41.3288 H         1 UNK         0.0600 
    159 H159        2.1005  -16.8162  -42.2972 H         1 UNK         0.3000 
    160 H160        4.4751  -17.6021  -44.8501 H         1 UNK         0.0600 
    161 H161        4.5739  -15.1245  -44.9629 H         1 UNK         0.0600 
    162 H162        2.9874  -15.0069  -44.2047 H         1 UNK         0.0600 
    163 H163        3.1584  -15.7383  -45.8014 H         1 UNK         0.0600 
    164 H164        4.3180  -16.0035  -42.3926 H         1 UNK         0.3000 
    165 H165        5.9807  -18.4039  -40.3868 H         1 UNK         0.0600 
    166 H166        7.6213  -16.5684  -40.0764 H         1 UNK         0.0600 
    167 H167        7.8771  -17.3534  -41.6265 H         1 UNK         0.0600 
    168 H168        7.0737  -15.7893  -41.5614 H         1 UNK         0.0600 
    169 H169        5.1818  -15.6734  -39.9695 H         1 UNK         0.3000 
    170 H170        1.8650  -16.3614  -38.8999 H         1 UNK         0.0600 
    171 H171        3.2739  -16.9538  -36.9199 H         1 UNK         0.0600 
    172 H172        4.3357  -15.5927  -37.2606 H         1 UNK         0.0600 
    173 H173        2.6534  -15.3153  -36.8079 H         1 UNK         0.0600 
    174 H174        3.2179  -13.9323  -38.7944 H         1 UNK         0.3000 
    175 H175        2.5040  -12.2763  -40.1058 H         1 UNK         0.0600 
    176 H176        3.7590  -13.0376  -42.8134 H         1 UNK         0.0600 
    177 H177        3.6943  -11.4121  -42.1384 H         1 UNK         0.0600 
    178 H178        4.6538  -12.6536  -41.3462 H         1 UNK         0.0600 
    179 H179        0.9586  -13.4235  -42.3206 H         1 UNK         0.3000 
    180 H180       -1.5208  -12.1298  -41.8582 H         1 UNK         0.0600 
    181 H181       -0.7576   -9.5171  -43.2596 H         1 UNK         0.0600 
    182 H182       -1.6253   -9.6745  -41.7383 H         1 UNK         0.0600 
    183 H183       -2.3738  -10.2210  -43.2289 H         1 UNK         0.0600 
    184 H184       -1.4227  -13.0548  -43.8434 H         1 UNK         0.3000 
    185 H185       -0.0914  -12.2193  -46.9403 H         1 UNK         0.0600 
    186 H186        0.9426  -14.4526  -47.1196 H         1 UNK         0.0600 
    187 H187        1.9596  -13.4289  -46.1167 H         1 UNK         0.0600 
    188 H188        0.9219  -14.6428  -45.3681 H         1 UNK         0.0600 
    189 H189       -1.3795  -14.5986  -45.9770 H         1 UNK         0.3000 
    190 H190       -1.0613  -21.6454  -44.1430 H         1 UNK         0.3000 
    191 H191       -3.5529  -23.0674  -44.1478 H         1 UNK         0.0600 
    192 H192       -1.0300  -23.4038  -42.4387 H         1 UNK         0.0600 
    193 H193       -2.6033  -24.1090  -42.0831 H         1 UNK         0.0600 
    194 H194       -2.4028  -22.3631  -42.0666 H         1 UNK         0.0600 
    195 H195       -0.2527  -23.9429  -45.1727 H         1 UNK         0.3000 
    196 H196       -0.7476  -26.7671  -45.4396 H         1 UNK         0.0600 
    197 H197        1.4296  -25.0007  -46.6740 H         1 UNK         0.0600 
    198 H198        1.4344  -26.7583  -46.6326 H         1 UNK         0.0600 
    199 H199        1.5363  -25.8500  -45.1325 H         1 UNK         0.0600 
    200 H200       -0.8556  -23.9993  -47.6989 H         1 UNK         0.3000 
    201 H201       -1.6373  -25.5524  -50.0244 H         1 UNK         0.0600 
    202 H202       -1.8037  -22.5392  -49.4354 H         1 UNK         0.0600 
    203 H203       -1.9404  -23.2874  -51.0240 H         1 UNK         0.0600 
    204 H204       -0.4182  -23.3529  -50.1556 H         1 UNK         0.0600 
    205 H205       -3.7216  -25.1610  -51.1651 H         1 UNK         0.3000 
    206 H206       -6.0740  -25.2554  -49.4381 H         1 UNK         0.0600 
    207 H207       -7.2931  -25.4690  -51.6040 H         1 UNK         0.0600 
    208 H208       -5.7964  -25.2165  -52.4881 H         1 UNK         0.0600 
    209 H209       -5.9903  -26.6366  -51.4685 H         1 UNK         0.0600 
    210 H210       -4.2307  -22.7711  -50.8729 H         1 UNK         0.3000 
    211 H211       -4.2429  -20.5866  -50.8575 H         1 UNK         0.0600 
    212 H212       -6.5271  -20.7448  -48.8277 H         1 UNK         0.0600 
    213 H213       -5.4142  -19.4050  -49.0538 H         1 UNK         0.0600 
    214 H214       -4.8159  -20.9356  -48.4479 H         1 UNK         0.0600 
    215 H215       -6.5256  -22.0631  -52.5215 H         1 UNK         0.3000 
    216 H216       -8.2877  -19.8733  -53.2655 H         1 UNK         0.0600 
    217 H217       -9.1629  -21.5000  -54.8973 H         1 UNK         0.0600 
    218 H218       -9.0237  -22.2551  -53.3183 H         1 UNK         0.0600 
    219 H219       -7.8375  -22.6065  -54.5746 H         1 UNK         0.0600 
    220 H220       -6.0267  -18.6867  -53.4428 H         1 UNK         0.3000 
    221 H221       -4.5974  -17.4621  -54.6137 H         1 UNK         0.0600 
    222 H222       -6.4893  -17.8481  -56.9991 H         1 UNK         0.0600 
    223 H223       -6.7544  -16.7059  -55.6873 H         1 UNK         0.0600 
    224 H224       -5.3744  -16.5053  -56.7435 H         1 UNK         0.0600 
    225 H225       -4.0852  -17.7145  -57.5866 H         1 UNK         0.3000 
    226 H226       -1.7573  -19.3200  -57.4566 H         1 UNK         0.0600 
    227 H227       -1.9860  -17.3482  -58.9435 H         1 UNK         0.0600 
    228 H228       -1.5932  -18.7732  -59.8910 H         1 UNK         0.0600 
    229 H229       -3.2433  -18.1621  -59.8765 H         1 UNK         0.0600 
    230 H230       -5.0452  -20.2087  -58.2872 H         1 UNK         0.3000 
    231 H231       -4.4666  -22.5880  -59.7932 H         1 UNK         0.0600 
    232 H232       -6.6763  -21.4508  -59.8806 H         1 UNK         0.0600 
    233 H233       -6.9534  -21.8136  -58.1773 H         1 UNK         0.0600 
    234 H234       -6.8551  -23.1166  -59.3526 H         1 UNK         0.0600 
    235 H235       -4.5496  -21.8468  -56.3505 H         1 UNK         0.3000 
    236 H236       -4.2159  -24.6962  -55.5608 H         1 UNK         0.0600 
    237 H237       -4.2114  -23.6867  -53.2460 H         1 UNK         0.0600 
    238 H238       -4.5036  -22.1062  -53.9512 H         1 UNK         0.0600 
    239 H239       -5.7011  -23.3906  -54.1334 H         1 UNK         0.0600 
    240 H240       -2.5624  -21.5097  -55.2768 H         1 UNK         0.3000 
    241 H241       -0.2392  -22.7116  -54.0813 H         1 UNK         0.0600 
    242 H242        0.8060  -22.3904  -57.9641 H         1 UNK         0.3800 
    243 H243       -0.8667  -22.2096  -57.5179 H         1 UNK         0.3800 
    244 H244        0.5891  -20.3597  -53.9231 H         1 UNK         0.0800 
    245 H245       -0.7618  -19.8258  -54.8971 H         1 UNK         0.0800 
    246 H246       -0.8176  -18.1442  -52.9627 H         1 UNK         0.0800 
    247 H247       -2.5026  -18.4099  -53.3472 H         1 UNK         0.0800 
@<TRIPOS>BOND
     1    1    2 1    
     2    1  127 1    
     3    1  128 1    
     4    1  129 1    
     5    2    3 2    
     6    2    4 am   BACKBONE|DICT|INTERRES
     7    4    5 1    
     8    4  130 1    
     9    5    6 1    
    10    5   65 1    
    11    5  131 1    
    12    6    7 1    
    13    6  132 1    
    14    6  133 1    
    15    7    8 1    
    16    8    9 1    
    17    8  134 1    
    18    8  135 1    
    19    9   10 ar   
    20    9   14 ar   
    21   10   11 ar   
    22   10  136 1    
    23   11   12 ar   
    24   11  126 1    
    25   12   13 ar   
    26   12  137 1    
    27   13   14 ar   
    28   13   15 1    
    29   14  138 1    
    30   15   16 1    
    31   15  139 1    
    32   15  140 1    
    33   16   17 1    
    34   17   18 1    
    35   17  141 1    
    36   17  142 1    
    37   18   19 1    
    38   18   67 1    
    39   18  143 1    
    40   19   20 am   BACKBONE|DICT|INTERRES
    41   19  144 1    
    42   20   21 2    
    43   20   22 1    
    44   22   23 1    
    45   22   24 1    
    46   22  145 1    
    47   23  146 1    
    48   23  147 1    
    49   23  148 1    
    50   24   25 am   BACKBONE|DICT|INTERRES
    51   24  149 1    
    52   25   26 2    
    53   25   27 1    
    54   27   28 1    
    55   27   29 1    
    56   27  150 1    
    57   28  151 1    
    58   28  152 1    
    59   28  153 1    
    60   29   30 am   BACKBONE|DICT|INTERRES
    61   29  154 1    
    62   30   31 2    
    63   30   32 1    
    64   32   33 1    
    65   32   34 1    
    66   32  155 1    
    67   33  156 1    
    68   33  157 1    
    69   33  158 1    
    70   34   35 am   BACKBONE|DICT|INTERRES
    71   34  159 1    
    72   35   36 2    
    73   35   37 1    
    74   37   38 1    
    75   37   39 1    
    76   37  160 1    
    77   38  161 1    
    78   38  162 1    
    79   38  163 1    
    80   39   40 am   BACKBONE|DICT|INTERRES
    81   39  164 1    
    82   40   41 2    
    83   40   42 1    
    84   42   43 1    
    85   42   44 1    
    86   42  165 1    
    87   43  166 1    
    88   43  167 1    
    89   43  168 1    
    90   44   45 am   BACKBONE|DICT|INTERRES
    91   44  169 1    
    92   45   46 2    
    93   45   47 1    
    94   47   48 1    
    95   47   49 1    
    96   47  170 1    
    97   48  171 1    
    98   48  172 1    
    99   48  173 1    
   100   49   50 am   BACKBONE|DICT|INTERRES
   101   49  174 1    
   102   50   51 2    
   103   50   52 1    
   104   52   53 1    
   105   52   54 1    
   106   52  175 1    
   107   53  176 1    
   108   53  177 1    
   109   53  178 1    
   110   54   55 am   BACKBONE|DICT|INTERRES
   111   54  179 1    
   112   55   56 2    
   113   55   57 1    
   114   57   58 1    
   115   57   59 1    
   116   57  180 1    
   117   58  181 1    
   118   58  182 1    
   119   58  183 1    
   120   59   60 am   BACKBONE|DICT|INTERRES
   121   59  184 1    
   122   60   61 2    
   123   60   62 1    
   124   62   63 1    
   125   62   64 1    
   126   62  185 1    
   127   63  186 1    
   128   63  187 1    
   129   63  188 1    
   130   64   65 am   BACKBONE|DICT|INTERRES
   131   64  189 1    
   132   65   66 2    
   133   67   68 2    
   134   67   69 am   BACKBONE|DICT|INTERRES
   135   69   70 1    
   136   69  190 1    
   137   70   71 1    
   138   70   72 1    
   139   70  191 1    
   140   71  192 1    
   141   71  193 1    
   142   71  194 1    
   143   72   73 2    
   144   72   74 am   BACKBONE|DICT|INTERRES
   145   74   75 1    
   146   74  195 1    
   147   75   76 1    
   148   75   77 1    
   149   75  196 1    
   150   76  197 1    
   151   76  198 1    
   152   76  199 1    
   153   77   78 2    
   154   77   79 am   BACKBONE|DICT|INTERRES
   155   79   80 1    
   156   79  200 1    
   157   80   81 1    
   158   80   82 1    
   159   80  201 1    
   160   81  202 1    
   161   81  203 1    
   162   81  204 1    
   163   82   83 2    
   164   82   84 am   BACKBONE|DICT|INTERRES
   165   84   85 1    
   166   84  205 1    
   167   85   86 1    
   168   85   87 1    
   169   85  206 1    
   170   86  207 1    
   171   86  208 1    
   172   86  209 1    
   173   87   88 2    
   174   87   89 am   BACKBONE|DICT|INTERRES
   175   89   90 1    
   176   89  210 1    
   177   90   91 1    
   178   90   92 1    
   179   90  211 1    
   180   91  212 1    
   181   91  213 1    
   182   91  214 1    
   183   92   93 2    
   184   92   94 am   BACKBONE|DICT|INTERRES
   185   94   95 1    
   186   94  215 1    
   187   95   96 1    
   188   95   97 1    
   189   95  216 1    
   190   96  217 1    
   191   96  218 1    
   192   96  219 1    
   193   97   98 2    
   194   97   99 am   BACKBONE|DICT|INTERRES
   195   99  100 1    
   196   99  220 1    
   197  100  101 1    
   198  100  102 1    
   199  100  221 1    
   200  101  222 1    
   201  101  223 1    
   202  101  224 1    
   203  102  103 2    
   204  102  104 am   BACKBONE|DICT|INTERRES
   205  104  105 1    
   206  104  225 1    
   207  105  106 1    
   208  105  107 1    
   209  105  226 1    
   210  106  227 1    
   211  106  228 1    
   212  106  229 1    
   213  107  108 2    
   214  107  109 am   BACKBONE|DICT|INTERRES
   215  109  110 1    
   216  109  230 1    
   217  110  111 1    
   218  110  112 1    
   219  110  231 1    
   220  111  232 1    
   221  111  233 1    
   222  111  234 1    
   223  112  113 2    
   224  112  114 am   BACKBONE|DICT|INTERRES
   225  114  115 1    
   226  114  235 1    
   227  115  116 1    
   228  115  117 1    
   229  115  236 1    
   230  116  237 1    
   231  116  238 1    
   232  116  239 1    
   233  117  118 2    
   234  117  119 am   BACKBONE|DICT|INTERRES
   235  119  120 1    
   236  119  240 1    
   237  120  121 1    
   238  120  124 1    
   239  120  241 1    
   240  121  122 am   BACKBONE|DICT|INTERRES
   241  121  123 2    
   242  122  242 1    
   243  122  243 1    
   244  124  125 1    
   245  124  244 1    
   246  124  245 1    
   247  125  126 1    
   248  126  246 1    
   249  126  247 1    
@<TRIPOS>SUBSTRUCTURE
     1 UNK         1 GROUP             0       ****    0 ROOT    
