@<TRIPOS>MOLECULE
3R540
247   249    1
SMALL
USER_CHARGES


@<TRIPOS>ATOM
      1 CA          4.6714  -12.3797  -48.6942 C.3       0 UNK        -0.1800 
      2 C           4.3674  -13.4997  -47.7099 C.2       0 UNK         0.5000 
      3 O           3.2633  -13.5406  -47.1705 O.2       0 UNK        -0.5000 
      4 N           5.3466  -14.3911  -47.4878 N.am      1 UNK        -0.5000 
      5 CA          5.3364  -15.5568  -46.5900 C.3       1 UNK         0.1400 
      6 C6          4.7797  -16.8562  -47.2452 C.3       23 UNK        -0.0398 
      7 S7          3.0357  -16.8130  -47.8047 S.3       23 UNK        -0.2404 
      8 C8          3.2113  -16.6966  -49.6145 C.3       23 UNK        -0.0205 
      9 C9          2.4676  -17.8331  -50.2938 C.ar      23 UNK        -0.0193 
     10 C10         1.2085  -17.6175  -50.8602 C.ar      23 UNK        -0.1150 
     11 C11         0.5037  -18.6731  -51.4468 C.ar      23 UNK        -0.0193 
     12 C12         1.0744  -19.9502  -51.4718 C.ar      23 UNK        -0.1150 
     13 C13         2.3423  -20.1731  -50.9257 C.ar      23 UNK        -0.0193 
     14 C14         3.0337  -19.1094  -50.3399 C.ar      23 UNK        -0.1150 
     15 C15         2.9783  -21.5554  -50.9810 C.3       23 UNK        -0.0205 
     16 S16         3.1063  -22.3293  -49.3370 S.3       23 UNK        -0.2404 
     17 C17         1.3668  -22.7681  -49.0171 C.3       23 UNK        -0.0398 
     18 CA          1.1296  -23.2289  -47.5568 C.3       11 UNK         0.1400 
     19 N           1.3572  -22.1383  -46.6092 N.am      11 UNK        -0.5000 
     20 C           2.3031  -22.0971  -45.6629 C.2       10 UNK         0.5000 
     21 O           3.0935  -23.0147  -45.4417 O.2       10 UNK        -0.5000 
     22 CA          2.3802  -20.8114  -44.8125 C.3       10 UNK         0.1400 
     23 CB          3.4909  -19.8977  -45.3510 C.3       10 UNK        -0.1800 
     24 N           1.1249  -20.0564  -44.7814 N.am      10 UNK        -0.5000 
     25 C          -0.0160  -20.4829  -44.2214 C.2       9 UNK         0.5000 
     26 O          -0.1114  -21.5346  -43.5896 O.2       9 UNK        -0.5000 
     27 CA         -1.2732  -19.6225  -44.4580 C.3       9 UNK         0.1400 
     28 CB         -1.5294  -18.6984  -43.2595 C.3       9 UNK        -0.1800 
     29 N          -1.2287  -18.8179  -45.6831 N.am      9 UNK        -0.5000 
     30 C          -1.1095  -19.2856  -46.9322 C.2       8 UNK         0.5000 
     31 O          -0.9807  -20.4805  -47.1972 O.2       8 UNK        -0.5000 
     32 CA         -1.0877  -18.2646  -48.0843 C.3       8 UNK         0.1400 
     33 CB         -2.4902  -18.0991  -48.6949 C.3       8 UNK        -0.1800 
     34 N          -0.4890  -16.9581  -47.7700 N.am      8 UNK        -0.5000 
     35 C          -0.9436  -15.9932  -46.9577 C.2       7 UNK         0.5000 
     36 O          -1.9296  -16.1277  -46.2306 O.2       7 UNK        -0.5000 
     37 CA         -0.1133  -14.6934  -46.9265 C.3       7 UNK         0.1400 
     38 CB          0.1970  -14.1552  -48.3414 C.3       7 UNK        -0.1800 
     39 N          -0.7112  -13.6535  -46.0827 N.am      7 UNK        -0.5000 
     40 C          -1.8242  -12.9386  -46.3110 C.2       6 UNK         0.5000 
     41 O          -2.5189  -13.0406  -47.3242 O.2       6 UNK        -0.5000 
     42 CA         -2.1956  -11.9060  -45.2248 C.3       6 UNK         0.1400 
     43 CB         -3.6282  -11.3477  -45.3655 C.3       6 UNK        -0.1800 
     44 N          -1.9390  -12.3935  -43.8663 N.am      6 UNK        -0.5000 
     45 C          -2.5542  -13.4013  -43.2259 C.2       5 UNK         0.5000 
     46 O          -3.5170  -14.0171  -43.6837 O.2       5 UNK        -0.5000 
     47 CA         -2.0023  -13.7985  -41.8399 C.3       5 UNK         0.1400 
     48 CB         -1.7301  -15.3111  -41.7708 C.3       5 UNK        -0.1800 
     49 N          -0.7606  -13.0906  -41.5241 N.am      5 UNK        -0.5000 
     50 C          -0.6569  -12.0063  -40.7439 C.2       4 UNK         0.5000 
     51 O          -1.6047  -11.5104  -40.1343 O.2       4 UNK        -0.5000 
     52 CA          0.7357  -11.3476  -40.6399 C.3       4 UNK         0.1400 
     53 CB          1.4446  -11.7941  -39.3523 C.3       4 UNK        -0.1800 
     54 N           1.6090  -11.6297  -41.7831 N.am      4 UNK        -0.5000 
     55 C           1.3988  -11.2077  -43.0380 C.2       3 UNK         0.5000 
     56 O           0.4520  -10.4936  -43.3677 O.2       3 UNK        -0.5000 
     57 CA          2.3646  -11.7330  -44.1177 C.3       3 UNK         0.1400 
     58 CB          3.5511  -10.7762  -44.3016 C.3       3 UNK        -0.1800 
     59 N           2.8718  -13.0836  -43.8577 N.am      3 UNK        -0.5000 
     60 C           2.1214  -14.1837  -43.7221 C.2       2 UNK         0.5000 
     61 O           0.8896  -14.1601  -43.7161 O.2       2 UNK        -0.5000 
     62 CA          2.8746  -15.5246  -43.6021 C.3       2 UNK         0.1400 
     63 CB          1.9252  -16.7048  -43.3269 C.3       2 UNK        -0.1800 
     64 N           3.6329  -15.8091  -44.8192 N.am      2 UNK        -0.5000 
     65 C           4.7838  -15.2298  -45.1821 C.2       1 UNK         0.5000 
     66 O           5.4006  -14.4408  -44.4616 O.2       1 UNK        -0.5000 
     67 C          -0.2789  -23.8296  -47.3475 C.2       11 UNK         0.5000 
     68 O          -0.8153  -24.4710  -48.2538 O.2       11 UNK        -0.5000 
     69 N          -0.8589  -23.6576  -46.1478 N.am      12 UNK        -0.5000 
     70 CA         -2.1592  -24.2162  -45.7603 C.3       12 UNK         0.1400 
     71 CB         -2.5684  -23.6717  -44.3854 C.3       12 UNK        -0.1800 
     72 C          -2.1908  -25.7572  -45.7663 C.2       12 UNK         0.5000 
     73 O          -3.2425  -26.3380  -46.0308 O.2       12 UNK        -0.5000 
     74 N          -1.0289  -26.3913  -45.5513 N.am      13 UNK        -0.5000 
     75 CA         -0.8191  -27.8367  -45.6804 C.3       13 UNK         0.1400 
     76 CB          0.5767  -28.1861  -45.1424 C.3       13 UNK        -0.1800 
     77 C          -0.9857  -28.3570  -47.1250 C.2       13 UNK         0.5000 
     78 O          -1.3108  -29.5298  -47.3102 O.2       13 UNK        -0.5000 
     79 N          -0.7884  -27.4745  -48.1146 N.am      14 UNK        -0.5000 
     80 CA         -1.0283  -27.7228  -49.5376 C.3       14 UNK         0.1400 
     81 CB          0.1063  -27.0682  -50.3456 C.3       14 UNK        -0.1800 
     82 C          -2.4075  -27.1937  -49.9882 C.2       14 UNK         0.5000 
     83 O          -2.6913  -27.2012  -51.1863 O.2       14 UNK        -0.5000 
     84 N          -3.2284  -26.7291  -49.0316 N.am      15 UNK        -0.5000 
     85 CA         -4.5555  -26.1259  -49.1899 C.3       15 UNK         0.1400 
     86 CB         -5.5559  -27.1253  -49.8064 C.3       15 UNK        -0.1800 
     87 C          -4.5439  -24.7701  -49.9248 C.2       15 UNK         0.5000 
     88 O          -5.5891  -24.3398  -50.4147 O.2       15 UNK        -0.5000 
     89 N          -3.3896  -24.0860  -49.9621 N.am      16 UNK        -0.5000 
     90 CA         -3.2118  -22.8107  -50.6637 C.3       16 UNK         0.1400 
     91 CB         -1.7370  -22.4078  -50.6215 C.3       16 UNK        -0.1800 
     92 C          -4.0773  -21.6744  -50.0929 C.2       16 UNK         0.5000 
     93 O          -4.5546  -20.8332  -50.8528 O.2       16 UNK        -0.5000 
     94 N          -4.2902  -21.6984  -48.7706 N.am      17 UNK        -0.5000 
     95 CA         -5.1529  -20.7688  -48.0419 C.3       17 UNK         0.1400 
     96 CB         -4.8994  -20.9369  -46.5360 C.3       17 UNK        -0.1800 
     97 C          -6.6488  -20.9391  -48.3722 C.2       17 UNK         0.5000 
     98 O          -7.3958  -19.9637  -48.2937 O.2       17 UNK        -0.5000 
     99 N          -7.0560  -22.1604  -48.7454 N.am      18 UNK        -0.5000 
    100 CA        -8.4109  -22.4725  -49.1978 C.3       18 UNK         0.1400 
    101 CB        -8.7314  -23.9425  -48.8834 C.3       18 UNK        -0.1800 
    102 C         -8.5760  -22.1838  -50.6995 C.2       18 UNK         0.5000 
    103 O         -9.6104  -21.6526  -51.1049 O.2       18 UNK        -0.5000 
    104 N         -7.5533  -22.5327  -51.4938 N.am      19 UNK        -0.5000 
    105 CA        -7.5134  -22.3334  -52.9427 C.3       19 UNK         0.1400 
    106 CB        -6.3253  -23.1127  -53.5273 C.3       19 UNK        -0.1800 
    107 C         -7.4297  -20.8528  -53.3545 C.2       19 UNK         0.5000 
    108 O         -7.9854  -20.4852  -54.3896 O.2       19 UNK        -0.5000 
    109 N         -6.7095  -20.0433  -52.5631 N.am      20 UNK        -0.5000 
    110 CA        -6.4479  -18.6009  -52.6901 C.3       20 UNK         0.1400 
    111 CB        -7.7576  -17.7909  -52.6738 C.3       20 UNK        -0.1800 
    112 C         -5.5570  -18.2012  -53.8861 C.2       20 UNK         0.5000 
    113 O         -4.8049  -17.2330  -53.7791 O.2       20 UNK        -0.5000 
    114 N         -5.6265  -18.9594  -54.9864 N.am      21 UNK        -0.5000 
    115 CA        -4.8216  -18.8050  -56.2006 C.3       21 UNK         0.1400 
    116 CB        -5.5579  -19.5022  -57.3563 C.3       21 UNK        -0.1800 
    117 C         -3.3817  -19.3475  -56.0661 C.2       21 UNK         0.5000 
    118 O         -2.5961  -19.1993  -57.0029 O.2       21 UNK        -0.5000 
    119 N         -3.0681  -19.9746  -54.9237 N.am      22 UNK        -0.5000 
    120 CA        -1.7646  -20.5636  -54.5623 C.3       22 UNK         0.1400 
    121 C         -1.4274  -21.9009  -55.2888 C.2       22 UNK         0.5000 
    122 N         -2.3616  -22.5300  -55.9913 N.am      22 UNK        -0.7600 
    123 O         -0.3097  -22.3986  -55.1868 O.2       22 UNK        -0.5000 
    124 C124       -0.5727  -19.5587  -54.6038 C.3       23 UNK        -0.0398 
    125 S125       -0.8820  -17.9662  -53.7615 S.3       23 UNK        -0.2404 
    126 C126       -0.8922  -18.4329  -52.0039 C.3       23 UNK        -0.0205 
    127 H127        4.5801  -11.4127  -48.1994 H         1 UNK         0.0600 
    128 H128        3.9629  -12.4084  -49.5221 H         1 UNK         0.0600 
    129 H129        5.6783  -12.4593  -49.1045 H         1 UNK         0.0600 
    130 H130        6.2249  -14.2479  -47.9653 H         1 UNK         0.3000 
    131 H131        6.3935  -15.7583  -46.4088 H         1 UNK         0.0600 
    132 H132        5.4197  -17.1279  -48.0844 H         1 UNK         0.0800 
    133 H133        4.8881  -17.6887  -46.5497 H         1 UNK         0.0800 
    134 H134        4.2578  -16.7176  -49.9186 H         1 UNK         0.0800 
    135 H135        2.8274  -15.7313  -49.9466 H         1 UNK         0.0800 
    136 H136        0.7666  -16.6314  -50.8298 H         1 UNK         0.1150 
    137 H137        0.5357  -20.7717  -51.9205 H         1 UNK         0.1150 
    138 H138        4.0085  -19.2796  -49.9044 H         1 UNK         0.1150 
    139 H139        3.9799  -21.4652  -51.4035 H         1 UNK         0.0800 
    140 H140        2.4242  -22.2149  -51.6508 H         1 UNK         0.0800 
    141 H141        1.0897  -23.5466  -49.7297 H         1 UNK         0.0800 
    142 H142        0.7511  -21.8966  -49.2378 H         1 UNK         0.0800 
    143 H143        1.8194  -24.0503  -47.3542 H         1 UNK         0.0600 
    144 H144        0.7128  -21.3589  -46.6998 H         1 UNK         0.3000 
    145 H145        2.6309  -21.1008  -43.7900 H         1 UNK         0.0600 
    146 H146        4.4521  -20.4133  -45.3579 H         1 UNK         0.0600 
    147 H147        3.6086  -19.0059  -44.7369 H         1 UNK         0.0600 
    148 H148        3.2832  -19.5817  -46.3742 H         1 UNK         0.0600 
    149 H149        1.1048  -19.1880  -45.2938 H         1 UNK         0.3000 
    150 H150       -2.1211  -20.3025  -44.5485 H         1 UNK         0.0600 
    151 H151       -0.7148  -17.9889  -43.1194 H         1 UNK         0.0600 
    152 H152       -1.6272  -19.2717  -42.3367 H         1 UNK         0.0600 
    153 H153       -2.4508  -18.1301  -43.3882 H         1 UNK         0.0600 
    154 H154       -1.3998  -17.8207  -45.5856 H         1 UNK         0.3000 
    155 H155       -0.4461  -18.6997  -48.8491 H         1 UNK         0.0600 
    156 H156       -3.2345  -17.8482  -47.9382 H         1 UNK         0.0600 
    157 H157       -2.8063  -19.0222  -49.1801 H         1 UNK         0.0600 
    158 H158       -2.5097  -17.3128  -49.4486 H         1 UNK         0.0600 
    159 H159        0.3779  -16.7749  -48.2568 H         1 UNK         0.3000 
    160 H160        0.8368  -14.9441  -46.4533 H         1 UNK         0.0600 
    161 H161       -0.7048  -14.0378  -48.9427 H         1 UNK         0.0600 
    162 H162        0.8617  -14.8262  -48.8830 H         1 UNK         0.0600 
    163 H163        0.6974  -13.1880  -48.2932 H         1 UNK         0.0600 
    164 H164       -0.2673  -13.5585  -45.1748 H         1 UNK         0.3000 
    165 H165       -1.5119  -11.0685  -45.3705 H         1 UNK         0.0600 
    166 H166       -3.7534  -10.8355  -46.3201 H         1 UNK         0.0600 
    167 H167       -4.3801  -12.1357  -45.3201 H         1 UNK         0.0600 
    168 H168       -3.8492  -10.6253  -44.5797 H         1 UNK         0.0600 
    169 H169       -1.1673  -11.9397  -43.3934 H         1 UNK         0.3000 
    170 H170       -2.7709  -13.5584  -41.1027 H         1 UNK         0.0600 
    171 H171       -1.3096  -15.5956  -40.8063 H         1 UNK         0.0600 
    172 H172       -1.0344  -15.6270  -42.5481 H         1 UNK         0.0600 
    173 H173       -2.6495  -15.8822  -41.9045 H         1 UNK         0.0600 
    174 H174        0.0563  -13.4108  -42.0328 H         1 UNK         0.3000 
    175 H175        0.5836  -10.2673  -40.5910 H         1 UNK         0.0600 
    176 H176        0.8366  -11.5724  -38.4741 H         1 UNK         0.0600 
    177 H177        1.6414  -12.8669  -39.3528 H         1 UNK         0.0600 
    178 H178        2.3959  -11.2770  -39.2254 H         1 UNK         0.0600 
    179 H179        2.4071  -12.2229  -41.6088 H         1 UNK         0.3000 
    180 H180        1.8113  -11.7717  -45.0586 H         1 UNK         0.0600 
    181 H181        4.1708  -10.7269  -43.4054 H         1 UNK         0.0600 
    182 H182        3.2079   -9.7646  -44.5220 H         1 UNK         0.0600 
    183 H183        4.1841  -11.0919  -45.1314 H         1 UNK         0.0600 
    184 H184        3.8767  -13.2121  -43.9114 H         1 UNK         0.3000 
    185 H185        3.5647  -15.4423  -42.7600 H         1 UNK         0.0600 
    186 H186        2.4786  -17.6295  -43.1673 H         1 UNK         0.0600 
    187 H187        1.3340  -16.5287  -42.4274 H         1 UNK         0.0600 
    188 H188        1.2309  -16.8638  -44.1529 H         1 UNK         0.0600 
    189 H189        3.1662  -16.3747  -45.5150 H         1 UNK         0.3000 
    190 H190       -0.3702  -23.1164  -45.4473 H         1 UNK         0.3000 
    191 H191       -2.8958  -23.8761  -46.4908 H         1 UNK         0.0600 
    192 H192       -2.6844  -22.5892  -44.4110 H         1 UNK         0.0600 
    193 H193       -3.5242  -24.0892  -44.0660 H         1 UNK         0.0600 
    194 H194       -1.8302  -23.9136  -43.6199 H         1 UNK         0.0600 
    195 H195       -0.2158  -25.8346  -45.3328 H         1 UNK         0.3000 
    196 H196       -1.5631  -28.3423  -45.0613 H         1 UNK         0.0600 
    197 H197        0.7588  -29.2603  -45.1964 H         1 UNK         0.0600 
    198 H198        0.6821  -27.8927  -44.0978 H         1 UNK         0.0600 
    199 H199        1.3636  -27.6907  -45.7126 H         1 UNK         0.0600 
    200 H200       -0.5621  -26.5160  -47.8781 H         1 UNK         0.3000 
    201 H201       -1.0113  -28.7956  -49.7388 H         1 UNK         0.0600 
    202 H202        0.0166  -27.3014  -51.4072 H         1 UNK         0.0600 
    203 H203        1.0819  -27.4277  -50.0181 H         1 UNK         0.0600 
    204 H204        0.0991  -25.9824  -50.2487 H         1 UNK         0.0600 
    205 H205       -2.9056  -26.7786  -48.0730 H         1 UNK         0.3000 
    206 H206       -4.9034  -25.9059  -48.1801 H         1 UNK         0.0600 
    207 H207       -5.5471  -28.0740  -49.2698 H         1 UNK         0.0600 
    208 H208       -6.5746  -26.7387  -49.7603 H         1 UNK         0.0600 
    209 H209       -5.3343  -27.3287  -50.8543 H         1 UNK         0.0600 
    210 H210       -2.5690  -24.4768  -49.5131 H         1 UNK         0.3000 
    211 H211       -3.4949  -22.9626  -51.7066 H         1 UNK         0.0600 
    212 H212       -1.0905  -23.2072  -50.9838 H         1 UNK         0.0600 
    213 H213       -1.5589  -21.5333  -51.2430 H         1 UNK         0.0600 
    214 H214       -1.4374  -22.1512  -49.6063 H         1 UNK         0.0600 
    215 H215       -3.8399  -22.4211  -48.2307 H         1 UNK         0.3000 
    216 H216       -4.8769  -19.7519  -48.3238 H         1 UNK         0.0600 
    217 H217       -5.1529  -21.9408  -46.1933 H         1 UNK         0.0600 
    218 H218       -5.4968  -20.2307  -45.9580 H         1 UNK         0.0600 
    219 H219       -3.8535  -20.7530  -46.2911 H         1 UNK         0.0600 
    220 H220       -6.3703  -22.8965  -48.8360 H         1 UNK         0.3000 
    221 H221       -9.1266  -21.8520  -48.6539 H         1 UNK         0.0600 
    222 H222       -8.0649  -24.6271  -49.4081 H         1 UNK         0.0600 
    223 H223       -8.6459  -24.1443  -47.8156 H         1 UNK         0.0600 
    224 H224       -9.7516  -24.1890  -49.1800 H         1 UNK         0.0600 
    225 H225       -6.7695  -23.0340  -51.0845 H         1 UNK         0.3000 
    226 H226       -8.4327  -22.7449  -53.3644 H         1 UNK         0.0600 
    227 H227       -6.3876  -24.1727  -53.2799 H         1 UNK         0.0600 
    228 H228       -6.3020  -23.0328  -54.6149 H         1 UNK         0.0600 
    229 H229       -5.3742  -22.7368  -53.1504 H         1 UNK         0.0600 
    230 H230       -6.2075  -20.4794  -51.7944 H         1 UNK         0.3000 
    231 H231       -5.8886  -18.3331  -51.7921 H         1 UNK         0.0600 
    232 H232       -8.3639  -17.9761  -53.5607 H         1 UNK         0.0600 
    233 H233       -7.5511  -16.7205  -52.6400 H         1 UNK         0.0600 
    234 H234       -8.3594  -18.0341  -51.7980 H         1 UNK         0.0600 
    235 H235       -6.3336  -19.6877  -54.9960 H         1 UNK         0.3000 
    236 H236       -4.7457  -17.7411  -56.4341 H         1 UNK         0.0600 
    237 H237       -5.6661  -20.5725  -57.1762 H         1 UNK         0.0600 
    238 H238       -6.5549  -19.0840  -57.4972 H         1 UNK         0.0600 
    239 H239       -5.0208  -19.3791  -58.2977 H         1 UNK         0.0600 
    240 H240       -3.7897  -20.0442  -54.2222 H         1 UNK         0.3000 
    241 H241       -1.8856  -20.8652  -53.5232 H         1 UNK         0.0600 
    242 H242       -2.1353  -23.3997  -56.4479 H         1 UNK         0.3800 
    243 H243       -3.2840  -22.1385  -56.0870 H         1 UNK         0.3800 
    244 H244       -0.3140  -19.3330  -55.6391 H         1 UNK         0.0800 
    245 H245        0.3243  -20.0059  -54.1755 H         1 UNK         0.0800 
    246 H246       -1.3635  -17.6184  -51.4540 H         1 UNK         0.0800 
    247 H247       -1.5309  -19.3000  -51.8436 H         1 UNK         0.0800 
@<TRIPOS>BOND
     1    1    2 1    
     2    1  127 1    
     3    1  128 1    
     4    1  129 1    
     5    2    3 2    
     6    2    4 am   BACKBONE|DICT|INTERRES
     7    4    5 1    
     8    4  130 1    
     9    5    6 1    
    10    5   65 1    
    11    5  131 1    
    12    6    7 1    
    13    6  132 1    
    14    6  133 1    
    15    7    8 1    
    16    8    9 1    
    17    8  134 1    
    18    8  135 1    
    19    9   10 ar   
    20    9   14 ar   
    21   10   11 ar   
    22   10  136 1    
    23   11   12 ar   
    24   11  126 1    
    25   12   13 ar   
    26   12  137 1    
    27   13   14 ar   
    28   13   15 1    
    29   14  138 1    
    30   15   16 1    
    31   15  139 1    
    32   15  140 1    
    33   16   17 1    
    34   17   18 1    
    35   17  141 1    
    36   17  142 1    
    37   18   19 1    
    38   18   67 1    
    39   18  143 1    
    40   19   20 am   BACKBONE|DICT|INTERRES
    41   19  144 1    
    42   20   21 2    
    43   20   22 1    
    44   22   23 1    
    45   22   24 1    
    46   22  145 1    
    47   23  146 1    
    48   23  147 1    
    49   23  148 1    
    50   24   25 am   BACKBONE|DICT|INTERRES
    51   24  149 1    
    52   25   26 2    
    53   25   27 1    
    54   27   28 1    
    55   27   29 1    
    56   27  150 1    
    57   28  151 1    
    58   28  152 1    
    59   28  153 1    
    60   29   30 am   BACKBONE|DICT|INTERRES
    61   29  154 1    
    62   30   31 2    
    63   30   32 1    
    64   32   33 1    
    65   32   34 1    
    66   32  155 1    
    67   33  156 1    
    68   33  157 1    
    69   33  158 1    
    70   34   35 am   BACKBONE|DICT|INTERRES
    71   34  159 1    
    72   35   36 2    
    73   35   37 1    
    74   37   38 1    
    75   37   39 1    
    76   37  160 1    
    77   38  161 1    
    78   38  162 1    
    79   38  163 1    
    80   39   40 am   BACKBONE|DICT|INTERRES
    81   39  164 1    
    82   40   41 2    
    83   40   42 1    
    84   42   43 1    
    85   42   44 1    
    86   42  165 1    
    87   43  166 1    
    88   43  167 1    
    89   43  168 1    
    90   44   45 am   BACKBONE|DICT|INTERRES
    91   44  169 1    
    92   45   46 2    
    93   45   47 1    
    94   47   48 1    
    95   47   49 1    
    96   47  170 1    
    97   48  171 1    
    98   48  172 1    
    99   48  173 1    
   100   49   50 am   BACKBONE|DICT|INTERRES
   101   49  174 1    
   102   50   51 2    
   103   50   52 1    
   104   52   53 1    
   105   52   54 1    
   106   52  175 1    
   107   53  176 1    
   108   53  177 1    
   109   53  178 1    
   110   54   55 am   BACKBONE|DICT|INTERRES
   111   54  179 1    
   112   55   56 2    
   113   55   57 1    
   114   57   58 1    
   115   57   59 1    
   116   57  180 1    
   117   58  181 1    
   118   58  182 1    
   119   58  183 1    
   120   59   60 am   BACKBONE|DICT|INTERRES
   121   59  184 1    
   122   60   61 2    
   123   60   62 1    
   124   62   63 1    
   125   62   64 1    
   126   62  185 1    
   127   63  186 1    
   128   63  187 1    
   129   63  188 1    
   130   64   65 am   BACKBONE|DICT|INTERRES
   131   64  189 1    
   132   65   66 2    
   133   67   68 2    
   134   67   69 am   BACKBONE|DICT|INTERRES
   135   69   70 1    
   136   69  190 1    
   137   70   71 1    
   138   70   72 1    
   139   70  191 1    
   140   71  192 1    
   141   71  193 1    
   142   71  194 1    
   143   72   73 2    
   144   72   74 am   BACKBONE|DICT|INTERRES
   145   74   75 1    
   146   74  195 1    
   147   75   76 1    
   148   75   77 1    
   149   75  196 1    
   150   76  197 1    
   151   76  198 1    
   152   76  199 1    
   153   77   78 2    
   154   77   79 am   BACKBONE|DICT|INTERRES
   155   79   80 1    
   156   79  200 1    
   157   80   81 1    
   158   80   82 1    
   159   80  201 1    
   160   81  202 1    
   161   81  203 1    
   162   81  204 1    
   163   82   83 2    
   164   82   84 am   BACKBONE|DICT|INTERRES
   165   84   85 1    
   166   84  205 1    
   167   85   86 1    
   168   85   87 1    
   169   85  206 1    
   170   86  207 1    
   171   86  208 1    
   172   86  209 1    
   173   87   88 2    
   174   87   89 am   BACKBONE|DICT|INTERRES
   175   89   90 1    
   176   89  210 1    
   177   90   91 1    
   178   90   92 1    
   179   90  211 1    
   180   91  212 1    
   181   91  213 1    
   182   91  214 1    
   183   92   93 2    
   184   92   94 am   BACKBONE|DICT|INTERRES
   185   94   95 1    
   186   94  215 1    
   187   95   96 1    
   188   95   97 1    
   189   95  216 1    
   190   96  217 1    
   191   96  218 1    
   192   96  219 1    
   193   97   98 2    
   194   97   99 am   BACKBONE|DICT|INTERRES
   195   99  100 1    
   196   99  220 1    
   197  100  101 1    
   198  100  102 1    
   199  100  221 1    
   200  101  222 1    
   201  101  223 1    
   202  101  224 1    
   203  102  103 2    
   204  102  104 am   BACKBONE|DICT|INTERRES
   205  104  105 1    
   206  104  225 1    
   207  105  106 1    
   208  105  107 1    
   209  105  226 1    
   210  106  227 1    
   211  106  228 1    
   212  106  229 1    
   213  107  108 2    
   214  107  109 am   BACKBONE|DICT|INTERRES
   215  109  110 1    
   216  109  230 1    
   217  110  111 1    
   218  110  112 1    
   219  110  231 1    
   220  111  232 1    
   221  111  233 1    
   222  111  234 1    
   223  112  113 2    
   224  112  114 am   BACKBONE|DICT|INTERRES
   225  114  115 1    
   226  114  235 1    
   227  115  116 1    
   228  115  117 1    
   229  115  236 1    
   230  116  237 1    
   231  116  238 1    
   232  116  239 1    
   233  117  118 2    
   234  117  119 am   BACKBONE|DICT|INTERRES
   235  119  120 1    
   236  119  240 1    
   237  120  121 1    
   238  120  124 1    
   239  120  241 1    
   240  121  122 am   BACKBONE|DICT|INTERRES
   241  121  123 2    
   242  122  242 1    
   243  122  243 1    
   244  124  125 1    
   245  124  244 1    
   246  124  245 1    
   247  125  126 1    
   248  126  246 1    
   249  126  247 1    
@<TRIPOS>SUBSTRUCTURE
     1 UNK         1 GROUP             0       ****    0 ROOT    
