@<TRIPOS>MOLECULE
3R540
247   249    1
SMALL
USER_CHARGES


@<TRIPOS>ATOM
      1 CA         -1.0126  -12.0494  -51.8147 C.3       0 UNK        -0.1800 
      2 C          -0.3566  -12.3183  -50.4694 C.2       0 UNK         0.5000 
      3 O          -0.8811  -11.9011  -49.4360 O.2       0 UNK        -0.5000 
      4 N           0.7827  -13.0251  -50.4735 N.am      1 UNK        -0.5000 
      5 CA          1.5818  -13.3317  -49.2790 C.3       1 UNK         0.1400 
      6 C6          2.9890  -13.8802  -49.6310 C.3       23 UNK        -0.0398 
      7 S7          2.9830  -15.4941  -50.4922 S.3       23 UNK        -0.2404 
      8 C8          3.3620  -16.6092  -49.0947 C.3       23 UNK        -0.0205 
      9 C9          3.0168  -18.0722  -49.3538 C.ar      23 UNK        -0.0193 
     10 C10         1.8502  -18.4340  -50.0346 C.ar      23 UNK        -0.1150 
     11 C11         1.5615  -19.7754  -50.3012 C.ar      23 UNK        -0.0193 
     12 C12         2.4280  -20.7664  -49.8289 C.ar      23 UNK        -0.1150 
     13 C13         3.5688  -20.4254  -49.0930 C.ar      23 UNK        -0.0193 
     14 C14         3.8609  -19.0761  -48.8727 C.ar      23 UNK        -0.1150 
     15 C15         4.5117  -21.4942  -48.5465 C.3       23 UNK        -0.0205 
     16 S16         3.6728  -22.9026  -47.7435 S.3       23 UNK        -0.2404 
     17 C17         2.6897  -22.0923  -46.4329 C.3       23 UNK        -0.0398 
     18 CA          1.4176  -22.8983  -46.0742 C.3       11 UNK         0.1400 
     19 N           0.8305  -22.4653  -44.8028 N.am      11 UNK        -0.5000 
     20 C          -0.1565  -23.1102  -44.1634 C.2       10 UNK         0.5000 
     21 O          -0.6322  -24.1787  -44.5454 O.2       10 UNK        -0.5000 
     22 CA         -0.7494  -22.4250  -42.9191 C.3       10 UNK         0.1400 
     23 CB          0.1283  -22.6736  -41.6838 C.3       10 UNK        -0.1800 
     24 N          -0.9434  -20.9876  -43.1116 N.am      10 UNK        -0.5000 
     25 C          -1.7855  -20.4485  -44.0050 C.2       9 UNK         0.5000 
     26 O          -2.5401  -21.1119  -44.7144 O.2       9 UNK        -0.5000 
     27 CA         -1.7410  -18.9193  -44.1744 C.3       9 UNK         0.1400 
     28 CB         -2.5766  -18.2208  -43.0918 C.3       9 UNK        -0.1800 
     29 N          -0.3751  -18.3959  -44.1611 N.am      9 UNK        -0.5000 
     30 C           0.5590  -18.6920  -45.0753 C.2       8 UNK         0.5000 
     31 O           0.3559  -19.4031  -46.0575 O.2       8 UNK        -0.5000 
     32 CA          1.9760  -18.1559  -44.8170 C.3       8 UNK         0.1400 
     33 CB          2.1044  -16.6970  -45.2668 C.3       8 UNK        -0.1800 
     34 N           2.3558  -18.2750  -43.4115 N.am      8 UNK        -0.5000 
     35 C           2.5851  -19.4397  -42.7901 C.2       7 UNK         0.5000 
     36 O           2.5577  -20.5328  -43.3558 O.2       7 UNK        -0.5000 
     37 CA          2.8420  -19.3681  -41.2738 C.3       7 UNK         0.1400 
     38 CB          4.3204  -19.0650  -40.9886 C.3       7 UNK        -0.1800 
     39 N           2.0039  -18.3638  -40.6148 N.am      7 UNK        -0.5000 
     40 C           0.6711  -18.4526  -40.4956 C.2       6 UNK         0.5000 
     41 O           0.0160  -19.4172  -40.8862 O.2       6 UNK        -0.5000 
     42 CA         -0.0547  -17.2406  -39.8824 C.3       6 UNK         0.1400 
     43 CB         -0.1010  -17.3563  -38.3517 C.3       6 UNK        -0.1800 
     44 N           0.5552  -15.9617  -40.2570 N.am      6 UNK        -0.5000 
     45 C           0.5944  -15.4777  -41.5050 C.2       5 UNK         0.5000 
     46 O           0.1057  -16.0524  -42.4800 O.2       5 UNK        -0.5000 
     47 CA          1.3662  -14.1687  -41.6989 C.3       5 UNK         0.1400 
     48 CB          2.8797  -14.4473  -41.7772 C.3       5 UNK        -0.1800 
     49 N           0.9237  -13.5023  -42.9211 N.am      5 UNK        -0.5000 
     50 C           1.0740  -12.1954  -43.1670 C.2       4 UNK         0.5000 
     51 O           1.5708  -11.4078  -42.3599 O.2       4 UNK        -0.5000 
     52 CA          0.6196  -11.6611  -44.5375 C.3       4 UNK         0.1400 
     53 CB          1.8328  -11.4741  -45.4626 C.3       4 UNK        -0.1800 
     54 N          -0.3794  -12.4961  -45.2105 N.am      4 UNK        -0.5000 
     55 C          -1.6885  -12.4747  -44.9169 C.2       3 UNK         0.5000 
     56 O          -2.1497  -11.8531  -43.9585 O.2       3 UNK        -0.5000 
     57 CA         -2.6625  -13.2195  -45.8541 C.3       3 UNK         0.1400 
     58 CB         -3.5919  -12.2199  -46.5626 C.3       3 UNK        -0.1800 
     59 N          -1.9830  -14.0076  -46.8812 N.am      3 UNK        -0.5000 
     60 C          -1.7102  -15.3148  -46.7831 C.2       2 UNK         0.5000 
     61 O          -2.0371  -16.0066  -45.8215 O.2       2 UNK        -0.5000 
     62 CA         -0.9393  -15.9631  -47.9529 C.3       2 UNK         0.1400 
     63 CB         -1.9155  -16.6750  -48.9026 C.3       2 UNK        -0.1800 
     64 N          -0.1220  -15.0321  -48.7379 N.am      2 UNK        -0.5000 
     65 C           0.8499  -14.2375  -48.2646 C.2       1 UNK         0.5000 
     66 O           1.1612  -14.1806  -47.0770 O.2       1 UNK        -0.5000 
     67 C           0.3747  -22.8931  -47.2140 C.2       11 UNK         0.5000 
     68 O           0.2867  -23.8690  -47.9585 O.2       11 UNK        -0.5000 
     69 N          -0.4368  -21.8301  -47.2957 N.am      12 UNK        -0.5000 
     70 CA         -1.5406  -21.7038  -48.2456 C.3       12 UNK         0.1400 
     71 CB         -2.1218  -20.2860  -48.1746 C.3       12 UNK        -0.1800 
     72 C          -2.6322  -22.7690  -48.0437 C.2       12 UNK         0.5000 
     73 O          -3.0959  -23.3483  -49.0245 O.2       12 UNK        -0.5000 
     74 N          -2.9903  -23.0459  -46.7830 N.am      13 UNK        -0.5000 
     75 CA         -3.9272  -24.1041  -46.4032 C.3       13 UNK         0.1400 
     76 CB         -4.2604  -23.9860  -44.9086 C.3       13 UNK        -0.1800 
     77 C          -3.4073  -25.5150  -46.7394 C.2       13 UNK         0.5000 
     78 O          -4.1899  -26.3535  -47.1870 O.2       13 UNK        -0.5000 
     79 N          -2.1010  -25.7445  -46.5417 N.am      14 UNK        -0.5000 
     80 CA         -1.4126  -26.9860  -46.8980 C.3       14 UNK         0.1400 
     81 CB         -0.0204  -27.0112  -46.2485 C.3       14 UNK        -0.1800 
     82 C          -1.3135  -27.1930  -48.4211 C.2       14 UNK         0.5000 
     83 O          -1.5069  -28.3151  -48.8911 O.2       14 UNK        -0.5000 
     84 N          -1.0333  -26.1116  -49.1632 N.am      15 UNK        -0.5000 
     85 CA         -1.0171  -26.0836  -50.6275 C.3       15 UNK         0.1400 
     86 CB         -0.4153  -24.7531  -51.1084 C.3       15 UNK        -0.1800 
     87 C          -2.4153  -26.3036  -51.2369 C.2       15 UNK         0.5000 
     88 O          -2.5359  -27.0176  -52.2339 O.2       15 UNK        -0.5000 
     89 N          -3.4350  -25.7110  -50.5995 N.am      16 UNK        -0.5000 
     90 CA         -4.8576  -25.7655  -50.9365 C.3       16 UNK         0.1400 
     91 CB         -5.4005  -27.2033  -50.7749 C.3       16 UNK        -0.1800 
     92 C          -5.1668  -25.1250  -52.3077 C.2       16 UNK         0.5000 
     93 O          -4.4332  -24.2346  -52.7444 O.2       16 UNK        -0.5000 
     94 N          -6.2691  -25.5587  -52.9396 N.am      17 UNK        -0.5000 
     95 CA         -6.8344  -25.0386  -54.1896 C.3       17 UNK         0.1400 
     96 CB         -5.9183  -25.3799  -55.3872 C.3       17 UNK        -0.1800 
     97 C          -7.1824  -23.5409  -54.0539 C.2       17 UNK         0.5000 
     98 O          -7.9179  -23.1788  -53.1320 O.2       17 UNK        -0.5000 
     99 N          -6.6337  -22.6901  -54.9298 N.am      18 UNK        -0.5000 
    100 CA        -6.7277  -21.2309  -54.8674 C.3       18 UNK         0.1400 
    101 CB        -6.4594  -20.6578  -56.2707 C.3       18 UNK        -0.1800 
    102 C         -5.7725  -20.6565  -53.7987 C.2       18 UNK         0.5000 
    103 O         -4.8501  -19.9090  -54.1267 O.2       18 UNK        -0.5000 
    104 N         -5.9947  -21.0409  -52.5353 N.am      19 UNK        -0.5000 
    105 CA        -5.1835  -20.6566  -51.3784 C.3       19 UNK         0.1400 
    106 CB        -5.6593  -21.4439  -50.1483 C.3       19 UNK        -0.1800 
    107 C         -5.2111  -19.1431  -51.0986 C.2       19 UNK         0.5000 
    108 O         -4.1897  -18.5784  -50.7066 O.2       19 UNK        -0.5000 
    109 N         -6.3696  -18.5120  -51.3392 N.am      20 UNK        -0.5000 
    110 CA        -6.5911  -17.0705  -51.2383 C.3       20 UNK         0.1400 
    111 CB        -8.0741  -16.7685  -51.5068 C.3       20 UNK        -0.1800 
    112 C         -5.6758  -16.2987  -52.2071 C.2       20 UNK         0.5000 
    113 O         -5.8553  -16.3950  -53.4220 O.2       20 UNK        -0.5000 
    114 N         -4.6872  -15.5967  -51.6361 N.am      21 UNK        -0.5000 
    115 CA        -3.6052  -14.8600  -52.3029 C.3       21 UNK         0.1400 
    116 CB        -4.1641  -13.7335  -53.1983 C.3       21 UNK        -0.1800 
    117 C         -2.5811  -15.7487  -53.0471 C.2       21 UNK         0.5000 
    118 O         -1.7232  -15.2076  -53.7447 O.2       21 UNK        -0.5000 
    119 N         -2.6501  -17.0737  -52.8529 N.am      22 UNK        -0.5000 
    120 CA        -1.7838  -18.0982  -53.4556 C.3       22 UNK         0.1400 
    121 C         -1.8300  -18.1031  -55.0135 C.2       22 UNK         0.5000 
    122 N         -2.9243  -18.5618  -55.6031 N.am      22 UNK        -0.7600 
    123 O         -0.8920  -17.6969  -55.6955 O.2       22 UNK        -0.5000 
    124 C124       -0.3448  -18.0559  -52.8715 C.3       23 UNK        -0.0398 
    125 S125        0.4414  -19.7048  -52.8502 S.3       23 UNK        -0.2404 
    126 C126        0.3162  -20.1600  -51.0907 C.3       23 UNK        -0.0205 
    127 H127       -0.7173  -11.0679  -52.1851 H         1 UNK         0.0600 
    128 H128       -2.0974  -12.0609  -51.7142 H         1 UNK         0.0600 
    129 H129       -0.7299  -12.7975  -52.5557 H         1 UNK         0.0600 
    130 H130        1.1624  -13.3559  -51.3499 H         1 UNK         0.3000 
    131 H131        1.7386  -12.3807  -48.7651 H         1 UNK         0.0600 
    132 H132        3.6031  -13.9485  -48.7310 H         1 UNK         0.0800 
    133 H133        3.5042  -13.1643  -50.2728 H         1 UNK         0.0800 
    134 H134        2.8157  -16.2874  -48.2128 H         1 UNK         0.0800 
    135 H135        4.4213  -16.5050  -48.8547 H         1 UNK         0.0800 
    136 H136        1.1798  -17.6615  -50.3739 H         1 UNK         0.1150 
    137 H137        2.2084  -21.8072  -50.0218 H         1 UNK         0.1150 
    138 H138        4.7511  -18.8049  -48.3225 H         1 UNK         0.1150 
    139 H139        5.1184  -21.8732  -49.3696 H         1 UNK         0.0800 
    140 H140        5.2073  -21.0595  -47.8270 H         1 UNK         0.0800 
    141 H141        2.4299  -21.0729  -46.7204 H         1 UNK         0.0800 
    142 H142        3.3331  -22.0030  -45.5566 H         1 UNK         0.0800 
    143 H143        1.7208  -23.9373  -45.9273 H         1 UNK         0.0600 
    144 H144        1.2026  -21.6138  -44.3954 H         1 UNK         0.3000 
    145 H145       -1.7288  -22.8695  -42.7312 H         1 UNK         0.0600 
    146 H146       -0.3259  -22.2519  -40.7870 H         1 UNK         0.0600 
    147 H147        1.1186  -22.2326  -41.7954 H         1 UNK         0.0600 
    148 H148        0.2621  -23.7419  -41.5093 H         1 UNK         0.0600 
    149 H149       -0.4086  -20.3695  -42.5082 H         1 UNK         0.3000 
    150 H150       -2.1769  -18.6798  -45.1463 H         1 UNK         0.0600 
    151 H151       -3.6162  -18.5475  -43.1329 H         1 UNK         0.0600 
    152 H152       -2.5690  -17.1388  -43.2267 H         1 UNK         0.0600 
    153 H153       -2.2043  -18.4364  -42.0910 H         1 UNK         0.0600 
    154 H154       -0.1465  -17.7367  -43.4235 H         1 UNK         0.3000 
    155 H155        2.6697  -18.7536  -45.4128 H         1 UNK         0.0600 
    156 H156        1.7850  -16.5990  -46.3010 H         1 UNK         0.0600 
    157 H157        3.1349  -16.3476  -45.2052 H         1 UNK         0.0600 
    158 H158        1.4827  -16.0242  -44.6779 H         1 UNK         0.0600 
    159 H159        2.3534  -17.4273  -42.8661 H         1 UNK         0.3000 
    160 H160        2.6043  -20.3452  -40.8480 H         1 UNK         0.0600 
    161 H161        4.6139  -18.0863  -41.3703 H         1 UNK         0.0600 
    162 H162        4.9677  -19.8079  -41.4566 H         1 UNK         0.0600 
    163 H163        4.5270  -19.0840  -39.9184 H         1 UNK         0.0600 
    164 H164        2.4675  -17.5422  -40.2568 H         1 UNK         0.3000 
    165 H165       -1.0810  -17.2454  -40.2549 H         1 UNK         0.0600 
    166 H166       -0.6820  -16.5452  -37.9123 H         1 UNK         0.0600 
    167 H167       -0.5698  -18.2926  -38.0456 H         1 UNK         0.0600 
    168 H168        0.8976  -17.3306  -37.9138 H         1 UNK         0.0600 
    169 H169        0.9844  -15.4332  -39.5110 H         1 UNK         0.3000 
    170 H170        1.1562  -13.5251  -40.8419 H         1 UNK         0.0600 
    171 H171        3.1298  -15.0642  -42.6412 H         1 UNK         0.0600 
    172 H172        3.4498  -13.5214  -41.8551 H         1 UNK         0.0600 
    173 H173        3.2348  -14.9667  -40.8864 H         1 UNK         0.0600 
    174 H174        0.4618  -14.0968  -43.5973 H         1 UNK         0.3000 
    175 H175        0.1815  -10.6746  -44.3705 H         1 UNK         0.0600 
    176 H176        2.3811  -12.4061  -45.6026 H         1 UNK         0.0600 
    177 H177        1.5320  -11.1066  -46.4438 H         1 UNK         0.0600 
    178 H178        2.5314  -10.7485  -45.0442 H         1 UNK         0.0600 
    179 H179       -0.0421  -13.0792  -45.9698 H         1 UNK         0.3000 
    180 H180       -3.2798  -13.8691  -45.2300 H         1 UNK         0.0600 
    181 H181       -4.3188  -12.7353  -47.1907 H         1 UNK         0.0600 
    182 H182       -3.0317  -11.5301  -47.1955 H         1 UNK         0.0600 
    183 H183       -4.1534  -11.6238  -45.8421 H         1 UNK         0.0600 
    184 H184       -1.6685  -13.5048  -47.7008 H         1 UNK         0.3000 
    185 H185       -0.2720  -16.7134  -47.5254 H         1 UNK         0.0600 
    186 H186       -2.5544  -15.9656  -49.4282 H         1 UNK         0.0600 
    187 H187       -1.3851  -17.2671  -49.6478 H         1 UNK         0.0600 
    188 H188       -2.5694  -17.3566  -48.3569 H         1 UNK         0.0600 
    189 H189       -0.3040  -14.9989  -49.7294 H         1 UNK         0.3000 
    190 H190       -0.2692  -21.0343  -46.6839 H         1 UNK         0.3000 
    191 H191       -1.1289  -21.8522  -49.2434 H         1 UNK         0.0600 
    192 H192       -1.3431  -19.5368  -48.3151 H         1 UNK         0.0600 
    193 H193       -2.6017  -20.0901  -47.2161 H         1 UNK         0.0600 
    194 H194       -2.8673  -20.1322  -48.9539 H         1 UNK         0.0600 
    195 H195       -2.6106  -22.4786  -46.0292 H         1 UNK         0.3000 
    196 H196       -4.8486  -23.9487  -46.9683 H         1 UNK         0.0600 
    197 H197       -4.6993  -23.0150  -44.6785 H         1 UNK         0.0600 
    198 H198       -3.3730  -24.1071  -44.2872 H         1 UNK         0.0600 
    199 H199       -4.9797  -24.7485  -44.6072 H         1 UNK         0.0600 
    200 H200       -1.5381  -25.0206  -46.1058 H         1 UNK         0.3000 
    201 H201       -1.9889  -27.8179  -46.4876 H         1 UNK         0.0600 
    202 H202       -0.0910  -26.9366  -45.1632 H         1 UNK         0.0600 
    203 H203        0.6047  -26.1901  -46.5993 H         1 UNK         0.0600 
    204 H204        0.5004  -27.9415  -46.4780 H         1 UNK         0.0600 
    205 H205       -0.8064  -25.2411  -48.6891 H         1 UNK         0.3000 
    206 H206       -0.3706  -26.8933  -50.9719 H         1 UNK         0.0600 
    207 H207       -1.0098  -23.9001  -50.7803 H         1 UNK         0.0600 
    208 H208        0.5984  -24.6183  -50.7306 H         1 UNK         0.0600 
    209 H209       -0.3656  -24.7182  -52.1974 H         1 UNK         0.0600 
    210 H210       -3.2035  -25.0562  -49.8571 H         1 UNK         0.3000 
    211 H211       -5.3556  -25.1410  -50.1937 H         1 UNK         0.0600 
    212 H212       -5.0417  -27.8650  -51.5641 H         1 UNK         0.0600 
    213 H213       -6.4904  -27.2234  -50.7927 H         1 UNK         0.0600 
    214 H214       -5.0930  -27.6298  -49.8196 H         1 UNK         0.0600 
    215 H215       -6.8204  -26.2716  -52.4838 H         1 UNK         0.3000 
    216 H216       -7.7821  -25.5570  -54.3416 H         1 UNK         0.0600 
    217 H217       -6.3773  -25.0857  -56.3319 H         1 UNK         0.0600 
    218 H218       -5.7388  -26.4537  -55.4427 H         1 UNK         0.0600 
    219 H219       -4.9465  -24.8896  -55.3195 H         1 UNK         0.0600 
    220 H220       -6.0043  -23.0651  -55.6243 H         1 UNK         0.3000 
    221 H221       -7.7438  -20.9498  -54.5827 H         1 UNK         0.0600 
    222 H222       -5.4599  -20.9110  -56.6265 H         1 UNK         0.0600 
    223 H223       -7.1796  -21.0375  -56.9957 H         1 UNK         0.0600 
    224 H224       -6.5430  -19.5701  -56.2709 H         1 UNK         0.0600 
    225 H225       -6.7478  -21.7009  -52.3734 H         1 UNK         0.3000 
    226 H226       -4.1483  -20.9367  -51.5854 H         1 UNK         0.0600 
    227 H227       -5.5330  -22.5163  -50.2972 H         1 UNK         0.0600 
    228 H228       -5.0871  -21.1719  -49.2609 H         1 UNK         0.0600 
    229 H229       -6.7112  -21.2560  -49.9302 H         1 UNK         0.0600 
    230 H230       -7.1388  -19.0597  -51.6945 H         1 UNK         0.3000 
    231 H231       -6.3648  -16.7673  -50.2140 H         1 UNK         0.0600 
    232 H232       -8.2720  -15.6981  -51.4378 H         1 UNK         0.0600 
    233 H233       -8.7161  -17.2648  -50.7787 H         1 UNK         0.0600 
    234 H234       -8.3800  -17.0954  -52.5015 H         1 UNK         0.0600 
    235 H235       -4.6220  -15.6258  -50.6283 H         1 UNK         0.3000 
    236 H236       -3.0427  -14.3833  -51.4993 H         1 UNK         0.0600 
    237 H237       -4.6938  -14.1271  -54.0658 H         1 UNK         0.0600 
    238 H238       -4.8519  -13.0942  -52.6450 H         1 UNK         0.0600 
    239 H239       -3.3640  -13.0961  -53.5756 H         1 UNK         0.0600 
    240 H240       -3.3733  -17.4294  -52.2382 H         1 UNK         0.3000 
    241 H241       -2.2332  -19.0409  -53.1387 H         1 UNK         0.0600 
    242 H242       -2.9797  -18.5700  -56.6084 H         1 UNK         0.3800 
    243 H243       -3.6895  -18.9528  -55.0520 H         1 UNK         0.3800 
    244 H244       -0.3840  -17.6746  -51.8537 H         1 UNK         0.0800 
    245 H245        0.2922  -17.3554  -53.4139 H         1 UNK         0.0800 
    246 H246        0.1643  -21.2388  -51.0430 H         1 UNK         0.0800 
    247 H247       -0.5690  -19.7066  -50.6436 H         1 UNK         0.0800 
@<TRIPOS>BOND
     1    1    2 1    
     2    1  127 1    
     3    1  128 1    
     4    1  129 1    
     5    2    3 2    
     6    2    4 am   BACKBONE|DICT|INTERRES
     7    4    5 1    
     8    4  130 1    
     9    5    6 1    
    10    5   65 1    
    11    5  131 1    
    12    6    7 1    
    13    6  132 1    
    14    6  133 1    
    15    7    8 1    
    16    8    9 1    
    17    8  134 1    
    18    8  135 1    
    19    9   10 ar   
    20    9   14 ar   
    21   10   11 ar   
    22   10  136 1    
    23   11   12 ar   
    24   11  126 1    
    25   12   13 ar   
    26   12  137 1    
    27   13   14 ar   
    28   13   15 1    
    29   14  138 1    
    30   15   16 1    
    31   15  139 1    
    32   15  140 1    
    33   16   17 1    
    34   17   18 1    
    35   17  141 1    
    36   17  142 1    
    37   18   19 1    
    38   18   67 1    
    39   18  143 1    
    40   19   20 am   BACKBONE|DICT|INTERRES
    41   19  144 1    
    42   20   21 2    
    43   20   22 1    
    44   22   23 1    
    45   22   24 1    
    46   22  145 1    
    47   23  146 1    
    48   23  147 1    
    49   23  148 1    
    50   24   25 am   BACKBONE|DICT|INTERRES
    51   24  149 1    
    52   25   26 2    
    53   25   27 1    
    54   27   28 1    
    55   27   29 1    
    56   27  150 1    
    57   28  151 1    
    58   28  152 1    
    59   28  153 1    
    60   29   30 am   BACKBONE|DICT|INTERRES
    61   29  154 1    
    62   30   31 2    
    63   30   32 1    
    64   32   33 1    
    65   32   34 1    
    66   32  155 1    
    67   33  156 1    
    68   33  157 1    
    69   33  158 1    
    70   34   35 am   BACKBONE|DICT|INTERRES
    71   34  159 1    
    72   35   36 2    
    73   35   37 1    
    74   37   38 1    
    75   37   39 1    
    76   37  160 1    
    77   38  161 1    
    78   38  162 1    
    79   38  163 1    
    80   39   40 am   BACKBONE|DICT|INTERRES
    81   39  164 1    
    82   40   41 2    
    83   40   42 1    
    84   42   43 1    
    85   42   44 1    
    86   42  165 1    
    87   43  166 1    
    88   43  167 1    
    89   43  168 1    
    90   44   45 am   BACKBONE|DICT|INTERRES
    91   44  169 1    
    92   45   46 2    
    93   45   47 1    
    94   47   48 1    
    95   47   49 1    
    96   47  170 1    
    97   48  171 1    
    98   48  172 1    
    99   48  173 1    
   100   49   50 am   BACKBONE|DICT|INTERRES
   101   49  174 1    
   102   50   51 2    
   103   50   52 1    
   104   52   53 1    
   105   52   54 1    
   106   52  175 1    
   107   53  176 1    
   108   53  177 1    
   109   53  178 1    
   110   54   55 am   BACKBONE|DICT|INTERRES
   111   54  179 1    
   112   55   56 2    
   113   55   57 1    
   114   57   58 1    
   115   57   59 1    
   116   57  180 1    
   117   58  181 1    
   118   58  182 1    
   119   58  183 1    
   120   59   60 am   BACKBONE|DICT|INTERRES
   121   59  184 1    
   122   60   61 2    
   123   60   62 1    
   124   62   63 1    
   125   62   64 1    
   126   62  185 1    
   127   63  186 1    
   128   63  187 1    
   129   63  188 1    
   130   64   65 am   BACKBONE|DICT|INTERRES
   131   64  189 1    
   132   65   66 2    
   133   67   68 2    
   134   67   69 am   BACKBONE|DICT|INTERRES
   135   69   70 1    
   136   69  190 1    
   137   70   71 1    
   138   70   72 1    
   139   70  191 1    
   140   71  192 1    
   141   71  193 1    
   142   71  194 1    
   143   72   73 2    
   144   72   74 am   BACKBONE|DICT|INTERRES
   145   74   75 1    
   146   74  195 1    
   147   75   76 1    
   148   75   77 1    
   149   75  196 1    
   150   76  197 1    
   151   76  198 1    
   152   76  199 1    
   153   77   78 2    
   154   77   79 am   BACKBONE|DICT|INTERRES
   155   79   80 1    
   156   79  200 1    
   157   80   81 1    
   158   80   82 1    
   159   80  201 1    
   160   81  202 1    
   161   81  203 1    
   162   81  204 1    
   163   82   83 2    
   164   82   84 am   BACKBONE|DICT|INTERRES
   165   84   85 1    
   166   84  205 1    
   167   85   86 1    
   168   85   87 1    
   169   85  206 1    
   170   86  207 1    
   171   86  208 1    
   172   86  209 1    
   173   87   88 2    
   174   87   89 am   BACKBONE|DICT|INTERRES
   175   89   90 1    
   176   89  210 1    
   177   90   91 1    
   178   90   92 1    
   179   90  211 1    
   180   91  212 1    
   181   91  213 1    
   182   91  214 1    
   183   92   93 2    
   184   92   94 am   BACKBONE|DICT|INTERRES
   185   94   95 1    
   186   94  215 1    
   187   95   96 1    
   188   95   97 1    
   189   95  216 1    
   190   96  217 1    
   191   96  218 1    
   192   96  219 1    
   193   97   98 2    
   194   97   99 am   BACKBONE|DICT|INTERRES
   195   99  100 1    
   196   99  220 1    
   197  100  101 1    
   198  100  102 1    
   199  100  221 1    
   200  101  222 1    
   201  101  223 1    
   202  101  224 1    
   203  102  103 2    
   204  102  104 am   BACKBONE|DICT|INTERRES
   205  104  105 1    
   206  104  225 1    
   207  105  106 1    
   208  105  107 1    
   209  105  226 1    
   210  106  227 1    
   211  106  228 1    
   212  106  229 1    
   213  107  108 2    
   214  107  109 am   BACKBONE|DICT|INTERRES
   215  109  110 1    
   216  109  230 1    
   217  110  111 1    
   218  110  112 1    
   219  110  231 1    
   220  111  232 1    
   221  111  233 1    
   222  111  234 1    
   223  112  113 2    
   224  112  114 am   BACKBONE|DICT|INTERRES
   225  114  115 1    
   226  114  235 1    
   227  115  116 1    
   228  115  117 1    
   229  115  236 1    
   230  116  237 1    
   231  116  238 1    
   232  116  239 1    
   233  117  118 2    
   234  117  119 am   BACKBONE|DICT|INTERRES
   235  119  120 1    
   236  119  240 1    
   237  120  121 1    
   238  120  124 1    
   239  120  241 1    
   240  121  122 am   BACKBONE|DICT|INTERRES
   241  121  123 2    
   242  122  242 1    
   243  122  243 1    
   244  124  125 1    
   245  124  244 1    
   246  124  245 1    
   247  125  126 1    
   248  126  246 1    
   249  126  247 1    
@<TRIPOS>SUBSTRUCTURE
     1 UNK         1 GROUP             0       ****    0 ROOT    
