@<TRIPOS>MOLECULE
3R540
247   249    1
SMALL
USER_CHARGES


@<TRIPOS>ATOM
      1 CA          6.2443  -14.4115  -48.7521 C.3       0 UNK        -0.1800 
      2 C           4.8905  -14.8048  -49.3239 C.2       0 UNK         0.5000 
      3 O           3.8654  -14.2810  -48.8853 O.2       0 UNK        -0.5000 
      4 N           4.8778  -15.7199  -50.3030 N.am      1 UNK        -0.5000 
      5 CA          3.6671  -16.1960  -50.9772 C.3       1 UNK         0.1400 
      6 C6          3.9552  -17.4105  -51.8963 C.3       23 UNK        -0.0398 
      7 S7          2.4525  -18.1629  -52.6205 S.3       23 UNK        -0.2404 
      8 C8          2.0262  -19.4465  -51.3989 C.3       23 UNK        -0.0205 
      9 C9          1.7433  -18.8634  -50.0220 C.ar      23 UNK        -0.0193 
     10 C10         0.6722  -17.9854  -49.8309 C.ar      23 UNK        -0.1150 
     11 C11         0.4311  -17.4247  -48.5739 C.ar      23 UNK        -0.0193 
     12 C12         1.2453  -17.7748  -47.4955 C.ar      23 UNK        -0.1150 
     13 C13         2.2995  -18.6759  -47.6635 C.ar      23 UNK        -0.0193 
     14 C14         2.5606  -19.1935  -48.9374 C.ar      23 UNK        -0.1150 
     15 C15         3.1338  -19.0942  -46.4563 C.3       23 UNK        -0.0205 
     16 S16         3.3740  -20.9005  -46.3236 S.3       23 UNK        -0.2404 
     17 C17         1.6842  -21.5253  -46.6182 C.3       23 UNK        -0.0398 
     18 CA          1.4675  -22.9427  -46.0424 C.3       11 UNK         0.1400 
     19 N           1.5750  -22.9726  -44.5799 N.am      11 UNK        -0.5000 
     20 C           2.0732  -24.0082  -43.8919 C.2       10 UNK         0.5000 
     21 O           2.4407  -25.0617  -44.4134 O.2       10 UNK        -0.5000 
     22 CA          2.1569  -23.8525  -42.3636 C.3       10 UNK         0.1400 
     23 CB          3.3816  -23.0109  -41.9736 C.3       10 UNK        -0.1800 
     24 N           0.9611  -23.2574  -41.7695 N.am      10 UNK        -0.5000 
     25 C          -0.2733  -23.7723  -41.7975 C.2       9 UNK         0.5000 
     26 O          -0.5550  -24.8178  -42.3815 O.2       9 UNK        -0.5000 
     27 CA         -1.3927  -22.9911  -41.0761 C.3       9 UNK         0.1400 
     28 CB         -1.5285  -23.4441  -39.6103 C.3       9 UNK        -0.1800 
     29 N          -1.2869  -21.5284  -41.1818 N.am      9 UNK        -0.5000 
     30 C          -0.3533  -20.7028  -40.6835 C.2       8 UNK         0.5000 
     31 O           0.5736  -21.0741  -39.9617 O.2       8 UNK        -0.5000 
     32 CA         -0.4492  -19.2247  -41.1219 C.3       8 UNK         0.1400 
     33 CB          0.8954  -18.4794  -40.9920 C.3       8 UNK        -0.1800 
     34 N          -0.9924  -19.0526  -42.4768 N.am      8 UNK        -0.5000 
     35 C          -0.5098  -19.5685  -43.6195 C.2       7 UNK         0.5000 
     36 O           0.4566  -20.3311  -43.6781 O.2       7 UNK        -0.5000 
     37 CA         -1.2606  -19.2113  -44.9171 C.3       7 UNK         0.1400 
     38 CB         -2.0368  -20.4282  -45.4377 C.3       7 UNK        -0.1800 
     39 N          -2.1954  -18.0922  -44.7835 N.am      7 UNK        -0.5000 
     40 C          -1.8404  -16.8041  -44.7115 C.2       6 UNK         0.5000 
     41 O          -0.6736  -16.4065  -44.6690 O.2       6 UNK        -0.5000 
     42 CA         -2.9965  -15.7981  -44.6739 C.3       6 UNK         0.1400 
     43 CB         -3.6525  -15.7573  -43.2820 C.3       6 UNK        -0.1800 
     44 N          -2.4905  -14.4760  -45.0201 N.am      6 UNK        -0.5000 
     45 C          -3.2063  -13.4929  -45.5757 C.2       5 UNK         0.5000 
     46 O          -4.4013  -13.5975  -45.8539 O.2       5 UNK        -0.5000 
     47 CA         -2.4833  -12.1615  -45.8581 C.3       5 UNK         0.1400 
     48 CB         -2.9015  -11.0987  -44.8294 C.3       5 UNK        -0.1800 
     49 N          -1.0222  -12.2705  -45.8500 N.am      5 UNK        -0.5000 
     50 C          -0.2946  -12.7435  -46.8682 C.2       4 UNK         0.5000 
     51 O          -0.7801  -13.1919  -47.9093 O.2       4 UNK        -0.5000 
     52 CA          1.2343  -12.7211  -46.6795 C.3       4 UNK         0.1400 
     53 CB          1.7473  -14.0965  -46.2273 C.3       4 UNK        -0.1800 
     54 N           1.9154  -12.3463  -47.9152 N.am      4 UNK        -0.5000 
     55 C           1.8509  -11.1394  -48.4952 C.2       3 UNK         0.5000 
     56 O           1.3220  -10.1550  -47.9769 O.2       3 UNK        -0.5000 
     57 CA          2.4518  -11.0267  -49.9071 C.3       3 UNK         0.1400 
     58 CB          3.9741  -10.8269  -49.8468 C.3       3 UNK        -0.1800 
     59 N           2.1431  -12.2164  -50.6994 N.am      3 UNK        -0.5000 
     60 C           0.9605  -12.4582  -51.2817 C.2       2 UNK         0.5000 
     61 O           0.0515  -11.6283  -51.3253 O.2       2 UNK        -0.5000 
     62 CA          0.7197  -13.8560  -51.8931 C.3       2 UNK         0.1400 
     63 CB          0.6454  -13.7988  -53.4314 C.3       2 UNK        -0.1800 
     64 N           1.6501  -14.8976  -51.4367 N.am      2 UNK        -0.5000 
     65 C           2.9535  -15.0421  -51.7126 C.2       1 UNK         0.5000 
     66 O           3.5989  -14.2976  -52.4530 O.2       1 UNK        -0.5000 
     67 C           0.1389  -23.5397  -46.5491 C.2       11 UNK         0.5000 
     68 O          -0.0332  -23.6571  -47.7613 O.2       11 UNK        -0.5000 
     69 N          -0.7816  -23.9261  -45.6503 N.am      12 UNK        -0.5000 
     70 CA         -2.0985  -24.4740  -46.0033 C.3       12 UNK         0.1400 
     71 CB         -2.9596  -24.6062  -44.7400 C.3       12 UNK        -0.1800 
     72 C          -2.0278  -25.8136  -46.7651 C.2       12 UNK         0.5000 
     73 O          -2.9537  -26.1406  -47.5078 O.2       12 UNK        -0.5000 
     74 N          -0.9058  -26.5315  -46.6159 N.am      13 UNK        -0.5000 
     75 CA         -0.5580  -27.7327  -47.3739 C.3       13 UNK         0.1400 
     76 CB          0.7295  -28.3311  -46.7876 C.3       13 UNK        -0.1800 
     77 C          -0.3970  -27.4893  -48.8896 C.2       13 UNK         0.5000 
     78 O          -0.5685  -28.4302  -49.6661 O.2       13 UNK        -0.5000 
     79 N          -0.1091  -26.2442  -49.3015 N.am      14 UNK        -0.5000 
     80 CA         -0.0101  -25.8213  -50.7000 C.3       14 UNK         0.1400 
     81 CB          0.9120  -24.5919  -50.7975 C.3       14 UNK        -0.1800 
     82 C          -1.4061  -25.5756  -51.3114 C.2       14 UNK         0.5000 
     83 O          -1.7085  -24.4637  -51.7467 O.2       14 UNK        -0.5000 
     84 N          -2.2301  -26.6332  -51.3183 N.am      15 UNK        -0.5000 
     85 CA         -3.5738  -26.7233  -51.8982 C.3       15 UNK         0.1400 
     86 CB         -3.4911  -26.6786  -53.4388 C.3       15 UNK        -0.1800 
     87 C          -4.5720  -25.6977  -51.3184 C.2       15 UNK         0.5000 
     88 O          -5.3263  -25.0836  -52.0752 O.2       15 UNK        -0.5000 
     89 N          -4.5609  -25.5431  -49.9840 N.am      16 UNK        -0.5000 
     90 CA         -5.4015  -24.6312  -49.1993 C.3       16 UNK         0.1400 
     91 CB         -6.8878  -25.0421  -49.2717 C.3       16 UNK        -0.1800 
     92 C          -5.1600  -23.1571  -49.5757 C.2       16 UNK         0.5000 
     93 O          -6.1026  -22.4414  -49.9192 O.2       16 UNK        -0.5000 
     94 N          -3.8856  -22.7400  -49.4983 N.am      17 UNK        -0.5000 
     95 CA         -3.3647  -21.4230  -49.8876 C.3       17 UNK         0.1400 
     96 CB         -1.8924  -21.3124  -49.4613 C.3       17 UNK        -0.1800 
     97 C          -4.1638  -20.2189  -49.3554 C.2       17 UNK         0.5000 
     98 O          -4.3385  -19.2430  -50.0847 O.2       17 UNK        -0.5000 
     99 N          -4.6914  -20.3348  -48.1281 N.am      18 UNK        -0.5000 
    100 CA        -5.5391  -19.3375  -47.4680 C.3       18 UNK         0.1400 
    101 CB        -5.8723  -19.8287  -46.0510 C.3       18 UNK        -0.1800 
    102 C         -6.8370  -18.9950  -48.2301 C.2       18 UNK         0.5000 
    103 O         -7.3589  -17.8929  -48.0613 O.2       18 UNK        -0.5000 
    104 N         -7.3245  -19.9333  -49.0513 N.am      19 UNK        -0.5000 
    105 CA        -8.5106  -19.7956  -49.8946 C.3       19 UNK         0.1400 
    106 CB        -9.4298  -21.0005  -49.6264 C.3       19 UNK        -0.1800 
    107 C         -8.1452  -19.6968  -51.3906 C.2       19 UNK         0.5000 
    108 O         -9.0441  -19.7669  -52.2310 O.2       19 UNK        -0.5000 
    109 N         -6.8523  -19.5532  -51.7093 N.am      20 UNK        -0.5000 
    110 CA        -6.3196  -19.5375  -53.0661 C.3       20 UNK         0.1400 
    111 CB        -5.8091  -20.9482  -53.4270 C.3       20 UNK        -0.1800 
    112 C         -5.2562  -18.4342  -53.1752 C.2       20 UNK         0.5000 
    113 O         -5.6173  -17.2668  -53.3336 O.2       20 UNK        -0.5000 
    114 N         -3.9746  -18.8171  -53.0861 N.am      21 UNK        -0.5000 
    115 CA        -2.7873  -17.9722  -53.2491 C.3       21 UNK         0.1400 
    116 CB        -1.5359  -18.8256  -52.9910 C.3       21 UNK        -0.1800 
    117 C         -2.7485  -16.6993  -52.3807 C.2       21 UNK         0.5000 
    118 O         -2.2175  -15.6852  -52.8337 O.2       21 UNK        -0.5000 
    119 N         -3.3123  -16.7624  -51.1687 N.am      22 UNK        -0.5000 
    120 CA        -3.4273  -15.6154  -50.2522 C.3       22 UNK         0.1400 
    121 C         -4.5842  -14.6308  -50.5973 C.2       22 UNK         0.5000 
    122 N         -5.4414  -14.9106  -51.5728 N.am      22 UNK        -0.7600 
    123 O         -4.7027  -13.5813  -49.9718 O.2       22 UNK        -0.5000 
    124 C124       -3.4871  -16.0395  -48.7593 C.3       23 UNK        -0.0398 
    125 S125       -2.2905  -17.3354  -48.2907 S.3       23 UNK        -0.2404 
    126 C126       -0.7141  -16.4476  -48.3864 C.3       23 UNK        -0.0205 
    127 H127        7.0578  -14.9724  -49.2127 H         1 UNK         0.0600 
    128 H128        6.2653  -14.5999  -47.6788 H         1 UNK         0.0600 
    129 H129        6.4261  -13.3495  -48.9165 H         1 UNK         0.0600 
    130 H130        5.7521  -16.0910  -50.6456 H         1 UNK         0.3000 
    131 H131        3.0120  -16.5305  -50.1738 H         1 UNK         0.0600 
    132 H132        4.6145  -17.1154  -52.7143 H         1 UNK         0.0800 
    133 H133        4.4934  -18.1792  -51.3399 H         1 UNK         0.0800 
    134 H134        1.1416  -19.9837  -51.7436 H         1 UNK         0.0800 
    135 H135        2.8325  -20.1803  -51.3554 H         1 UNK         0.0800 
    136 H136        0.0335  -17.7273  -50.6637 H         1 UNK         0.1150 
    137 H137        1.0486  -17.3521  -46.5202 H         1 UNK         0.1150 
    138 H138        3.3870  -19.8761  -49.0762 H         1 UNK         0.1150 
    139 H139        4.1084  -18.6084  -46.5135 H         1 UNK         0.0800 
    140 H140        2.6675  -18.7476  -45.5323 H         1 UNK         0.0800 
    141 H141        1.5247  -21.5227  -47.6981 H         1 UNK         0.0800 
    142 H142        0.9616  -20.8241  -46.2043 H         1 UNK         0.0800 
    143 H143        2.2502  -23.5759  -46.4661 H         1 UNK         0.0600 
    144 H144        1.2902  -22.1298  -44.0884 H         1 UNK         0.3000 
    145 H145        2.2769  -24.8496  -41.9352 H         1 UNK         0.0600 
    146 H146        3.5041  -22.9712  -40.8911 H         1 UNK         0.0600 
    147 H147        4.2967  -23.4347  -42.3894 H         1 UNK         0.0600 
    148 H148        3.2975  -21.9862  -42.3388 H         1 UNK         0.0600 
    149 H149        1.0898  -22.4017  -41.2380 H         1 UNK         0.3000 
    150 H150       -2.3230  -23.2524  -41.5830 H         1 UNK         0.0600 
    151 H151       -1.7272  -24.5150  -39.5531 H         1 UNK         0.0600 
    152 H152       -2.3541  -22.9337  -39.1146 H         1 UNK         0.0600 
    153 H153       -0.6216  -23.2528  -39.0363 H         1 UNK         0.0600 
    154 H154       -1.9786  -21.1021  -41.7816 H         1 UNK         0.3000 
    155 H155       -1.1579  -18.7518  -40.4408 H         1 UNK         0.0600 
    156 H156        1.6725  -18.9394  -41.6036 H         1 UNK         0.0600 
    157 H157        1.2474  -18.4796  -39.9598 H         1 UNK         0.0600 
    158 H158        0.7997  -17.4383  -41.3007 H         1 UNK         0.0600 
    159 H159       -1.8039  -18.4565  -42.5483 H         1 UNK         0.3000 
    160 H160       -0.5120  -18.9444  -45.6632 H         1 UNK         0.0600 
    161 H161       -2.7971  -20.7596  -44.7300 H         1 UNK         0.0600 
    162 H162       -1.3692  -21.2675  -45.6145 H         1 UNK         0.0600 
    163 H163       -2.5241  -20.2014  -46.3848 H         1 UNK         0.0600 
    164 H164       -3.1764  -18.3267  -44.8071 H         1 UNK         0.3000 
    165 H165       -3.7339  -16.1082  -45.4179 H         1 UNK         0.0600 
    166 H166       -4.4856  -15.0545  -43.2585 H         1 UNK         0.0600 
    167 H167       -4.0486  -16.7338  -43.0016 H         1 UNK         0.0600 
    168 H168       -2.9404  -15.4561  -42.5125 H         1 UNK         0.0600 
    169 H169       -1.4978  -14.3522  -44.8690 H         1 UNK         0.3000 
    170 H170       -2.8034  -11.8212  -46.8455 H         1 UNK         0.0600 
    171 H171       -3.9834  -10.9592  -44.8282 H         1 UNK         0.0600 
    172 H172       -2.6061  -11.3794  -43.8176 H         1 UNK         0.0600 
    173 H173       -2.4519  -10.1316  -45.0558 H         1 UNK         0.0600 
    174 H174       -0.5518  -11.9252  -45.0256 H         1 UNK         0.3000 
    175 H175        1.4883  -11.9855  -45.9135 H         1 UNK         0.0600 
    176 H176        1.5863  -14.8547  -46.9937 H         1 UNK         0.0600 
    177 H177        2.8159  -14.0664  -46.0137 H         1 UNK         0.0600 
    178 H178        1.2423  -14.4299  -45.3200 H         1 UNK         0.0600 
    179 H179        2.4168  -13.0894  -48.3927 H         1 UNK         0.3000 
    180 H180        2.0151  -10.1524  -50.3945 H         1 UNK         0.0600 
    181 H181        4.3991  -10.7320  -50.8461 H         1 UNK         0.0600 
    182 H182        4.4738  -11.6568  -49.3475 H         1 UNK         0.0600 
    183 H183        4.2241   -9.9178  -49.2986 H         1 UNK         0.0600 
    184 H184        2.8423  -12.9463  -50.7161 H         1 UNK         0.3000 
    185 H185       -0.2609  -14.1714  -51.5335 H         1 UNK         0.0600 
    186 H186        0.4477  -14.7848  -53.8524 H         1 UNK         0.0600 
    187 H187       -0.1631  -13.1420  -53.7544 H         1 UNK         0.0600 
    188 H188        1.5667  -13.4197  -53.8736 H         1 UNK         0.0600 
    189 H189        1.2453  -15.5588  -50.7899 H         1 UNK         0.3000 
    190 H190       -0.5608  -23.8580  -44.6665 H         1 UNK         0.3000 
    191 H191       -2.5839  -23.7538  -46.6652 H         1 UNK         0.0600 
    192 H192       -3.9741  -24.9172  -44.9924 H         1 UNK         0.0600 
    193 H193       -3.0334  -23.6572  -44.2086 H         1 UNK         0.0600 
    194 H194       -2.5534  -25.3489  -44.0531 H         1 UNK         0.0600 
    195 H195       -0.2031  -26.1811  -45.9811 H         1 UNK         0.3000 
    196 H196       -1.3654  -28.4559  -47.2429 H         1 UNK         0.0600 
    197 H197        1.5671  -27.6366  -46.8652 H         1 UNK         0.0600 
    198 H198        0.6024  -28.5875  -45.7356 H         1 UNK         0.0600 
    199 H199        1.0106  -29.2456  -47.3119 H         1 UNK         0.0600 
    200 H200       -0.0391  -25.5007  -48.6148 H         1 UNK         0.3000 
    201 H201        0.4581  -26.6213  -51.2773 H         1 UNK         0.0600 
    202 H202        0.4867  -23.7220  -50.2980 H         1 UNK         0.0600 
    203 H203        1.0818  -24.3162  -51.8389 H         1 UNK         0.0600 
    204 H204        1.8862  -24.7912  -50.3511 H         1 UNK         0.0600 
    205 H205       -1.8756  -27.4847  -50.8941 H         1 UNK         0.3000 
    206 H206       -3.9593  -27.7054  -51.6209 H         1 UNK         0.0600 
    207 H207       -2.8072  -27.4372  -53.8193 H         1 UNK         0.0600 
    208 H208       -4.4659  -26.8680  -53.8898 H         1 UNK         0.0600 
    209 H209       -3.1475  -25.7074  -53.7969 H         1 UNK         0.0600 
    210 H210       -3.8859  -26.0692  -49.4399 H         1 UNK         0.3000 
    211 H211       -5.0923  -24.7343  -48.1588 H         1 UNK         0.0600 
    212 H212       -7.4931  -24.4281  -48.6037 H         1 UNK         0.0600 
    213 H213       -7.0242  -26.0806  -48.9705 H         1 UNK         0.0600 
    214 H214       -7.2968  -24.9271  -50.2758 H         1 UNK         0.0600 
    215 H215       -3.1867  -23.4255  -49.2525 H         1 UNK         0.3000 
    216 H216       -3.4020  -21.3767  -50.9767 H         1 UNK         0.0600 
    217 H217       -1.7707  -21.4546  -48.3874 H         1 UNK         0.0600 
    218 H218       -1.4798  -20.3332  -49.7090 H         1 UNK         0.0600 
    219 H219       -1.2797  -22.0584  -49.9672 H         1 UNK         0.0600 
    220 H220       -4.5253  -21.1903  -47.6211 H         1 UNK         0.3000 
    221 H221       -4.9597  -18.4183  -47.3792 H         1 UNK         0.0600 
    222 H222       -4.9713  -19.9801  -45.4589 H         1 UNK         0.0600 
    223 H223       -6.4228  -20.7701  -46.0723 H         1 UNK         0.0600 
    224 H224       -6.4877  -19.1014  -45.5195 H         1 UNK         0.0600 
    225 H225       -6.8103  -20.8029  -49.1699 H         1 UNK         0.3000 
    226 H226       -9.0590  -18.8866  -49.6405 H         1 UNK         0.0600 
    227 H227       -8.9510  -21.9394  -49.9083 H         1 UNK         0.0600 
    228 H228       -9.6965  -21.0646  -48.5714 H         1 UNK         0.0600 
    229 H229      -10.3601  -20.9221  -50.1901 H         1 UNK         0.0600 
    230 H230       -6.1690  -19.4460  -50.9670 H         1 UNK         0.3000 
    231 H231       -7.1032  -19.2709  -53.7784 H         1 UNK         0.0600 
    232 H232       -5.0968  -21.3289  -52.6948 H         1 UNK         0.0600 
    233 H233       -5.3278  -20.9582  -54.4057 H         1 UNK         0.0600 
    234 H234       -6.6358  -21.6577  -53.4690 H         1 UNK         0.0600 
    235 H235       -3.7936  -19.7966  -52.9304 H         1 UNK         0.3000 
    236 H236       -2.7689  -17.6483  -54.2914 H         1 UNK         0.0600 
    237 H237       -1.4799  -19.6682  -53.6801 H         1 UNK         0.0600 
    238 H238       -0.6274  -18.2373  -53.1265 H         1 UNK         0.0600 
    239 H239       -1.5239  -19.2206  -51.9745 H         1 UNK         0.0600 
    240 H240       -3.7116  -17.6410  -50.8471 H         1 UNK         0.3000 
    241 H241       -2.5215  -15.0192  -50.3691 H         1 UNK         0.0600 
    242 H242       -6.1783  -14.2569  -51.7829 H         1 UNK         0.3800 
    243 H243       -5.3632  -15.7649  -52.1168 H         1 UNK         0.3800 
    244 H244       -4.4832  -16.4149  -48.5215 H         1 UNK         0.0800 
    245 H245       -3.3272  -15.1741  -48.1145 H         1 UNK         0.0800 
    246 H246       -0.7171  -15.7391  -49.2136 H         1 UNK         0.0800 
    247 H247       -0.5831  -15.8625  -47.4760 H         1 UNK         0.0800 
@<TRIPOS>BOND
     1    1    2 1    
     2    1  127 1    
     3    1  128 1    
     4    1  129 1    
     5    2    3 2    
     6    2    4 am   BACKBONE|DICT|INTERRES
     7    4    5 1    
     8    4  130 1    
     9    5    6 1    
    10    5   65 1    
    11    5  131 1    
    12    6    7 1    
    13    6  132 1    
    14    6  133 1    
    15    7    8 1    
    16    8    9 1    
    17    8  134 1    
    18    8  135 1    
    19    9   10 ar   
    20    9   14 ar   
    21   10   11 ar   
    22   10  136 1    
    23   11   12 ar   
    24   11  126 1    
    25   12   13 ar   
    26   12  137 1    
    27   13   14 ar   
    28   13   15 1    
    29   14  138 1    
    30   15   16 1    
    31   15  139 1    
    32   15  140 1    
    33   16   17 1    
    34   17   18 1    
    35   17  141 1    
    36   17  142 1    
    37   18   19 1    
    38   18   67 1    
    39   18  143 1    
    40   19   20 am   BACKBONE|DICT|INTERRES
    41   19  144 1    
    42   20   21 2    
    43   20   22 1    
    44   22   23 1    
    45   22   24 1    
    46   22  145 1    
    47   23  146 1    
    48   23  147 1    
    49   23  148 1    
    50   24   25 am   BACKBONE|DICT|INTERRES
    51   24  149 1    
    52   25   26 2    
    53   25   27 1    
    54   27   28 1    
    55   27   29 1    
    56   27  150 1    
    57   28  151 1    
    58   28  152 1    
    59   28  153 1    
    60   29   30 am   BACKBONE|DICT|INTERRES
    61   29  154 1    
    62   30   31 2    
    63   30   32 1    
    64   32   33 1    
    65   32   34 1    
    66   32  155 1    
    67   33  156 1    
    68   33  157 1    
    69   33  158 1    
    70   34   35 am   BACKBONE|DICT|INTERRES
    71   34  159 1    
    72   35   36 2    
    73   35   37 1    
    74   37   38 1    
    75   37   39 1    
    76   37  160 1    
    77   38  161 1    
    78   38  162 1    
    79   38  163 1    
    80   39   40 am   BACKBONE|DICT|INTERRES
    81   39  164 1    
    82   40   41 2    
    83   40   42 1    
    84   42   43 1    
    85   42   44 1    
    86   42  165 1    
    87   43  166 1    
    88   43  167 1    
    89   43  168 1    
    90   44   45 am   BACKBONE|DICT|INTERRES
    91   44  169 1    
    92   45   46 2    
    93   45   47 1    
    94   47   48 1    
    95   47   49 1    
    96   47  170 1    
    97   48  171 1    
    98   48  172 1    
    99   48  173 1    
   100   49   50 am   BACKBONE|DICT|INTERRES
   101   49  174 1    
   102   50   51 2    
   103   50   52 1    
   104   52   53 1    
   105   52   54 1    
   106   52  175 1    
   107   53  176 1    
   108   53  177 1    
   109   53  178 1    
   110   54   55 am   BACKBONE|DICT|INTERRES
   111   54  179 1    
   112   55   56 2    
   113   55   57 1    
   114   57   58 1    
   115   57   59 1    
   116   57  180 1    
   117   58  181 1    
   118   58  182 1    
   119   58  183 1    
   120   59   60 am   BACKBONE|DICT|INTERRES
   121   59  184 1    
   122   60   61 2    
   123   60   62 1    
   124   62   63 1    
   125   62   64 1    
   126   62  185 1    
   127   63  186 1    
   128   63  187 1    
   129   63  188 1    
   130   64   65 am   BACKBONE|DICT|INTERRES
   131   64  189 1    
   132   65   66 2    
   133   67   68 2    
   134   67   69 am   BACKBONE|DICT|INTERRES
   135   69   70 1    
   136   69  190 1    
   137   70   71 1    
   138   70   72 1    
   139   70  191 1    
   140   71  192 1    
   141   71  193 1    
   142   71  194 1    
   143   72   73 2    
   144   72   74 am   BACKBONE|DICT|INTERRES
   145   74   75 1    
   146   74  195 1    
   147   75   76 1    
   148   75   77 1    
   149   75  196 1    
   150   76  197 1    
   151   76  198 1    
   152   76  199 1    
   153   77   78 2    
   154   77   79 am   BACKBONE|DICT|INTERRES
   155   79   80 1    
   156   79  200 1    
   157   80   81 1    
   158   80   82 1    
   159   80  201 1    
   160   81  202 1    
   161   81  203 1    
   162   81  204 1    
   163   82   83 2    
   164   82   84 am   BACKBONE|DICT|INTERRES
   165   84   85 1    
   166   84  205 1    
   167   85   86 1    
   168   85   87 1    
   169   85  206 1    
   170   86  207 1    
   171   86  208 1    
   172   86  209 1    
   173   87   88 2    
   174   87   89 am   BACKBONE|DICT|INTERRES
   175   89   90 1    
   176   89  210 1    
   177   90   91 1    
   178   90   92 1    
   179   90  211 1    
   180   91  212 1    
   181   91  213 1    
   182   91  214 1    
   183   92   93 2    
   184   92   94 am   BACKBONE|DICT|INTERRES
   185   94   95 1    
   186   94  215 1    
   187   95   96 1    
   188   95   97 1    
   189   95  216 1    
   190   96  217 1    
   191   96  218 1    
   192   96  219 1    
   193   97   98 2    
   194   97   99 am   BACKBONE|DICT|INTERRES
   195   99  100 1    
   196   99  220 1    
   197  100  101 1    
   198  100  102 1    
   199  100  221 1    
   200  101  222 1    
   201  101  223 1    
   202  101  224 1    
   203  102  103 2    
   204  102  104 am   BACKBONE|DICT|INTERRES
   205  104  105 1    
   206  104  225 1    
   207  105  106 1    
   208  105  107 1    
   209  105  226 1    
   210  106  227 1    
   211  106  228 1    
   212  106  229 1    
   213  107  108 2    
   214  107  109 am   BACKBONE|DICT|INTERRES
   215  109  110 1    
   216  109  230 1    
   217  110  111 1    
   218  110  112 1    
   219  110  231 1    
   220  111  232 1    
   221  111  233 1    
   222  111  234 1    
   223  112  113 2    
   224  112  114 am   BACKBONE|DICT|INTERRES
   225  114  115 1    
   226  114  235 1    
   227  115  116 1    
   228  115  117 1    
   229  115  236 1    
   230  116  237 1    
   231  116  238 1    
   232  116  239 1    
   233  117  118 2    
   234  117  119 am   BACKBONE|DICT|INTERRES
   235  119  120 1    
   236  119  240 1    
   237  120  121 1    
   238  120  124 1    
   239  120  241 1    
   240  121  122 am   BACKBONE|DICT|INTERRES
   241  121  123 2    
   242  122  242 1    
   243  122  243 1    
   244  124  125 1    
   245  124  244 1    
   246  124  245 1    
   247  125  126 1    
   248  126  246 1    
   249  126  247 1    
@<TRIPOS>SUBSTRUCTURE
     1 UNK         1 GROUP             0       ****    0 ROOT    
