@<TRIPOS>MOLECULE
3R540
247   249    1
SMALL
USER_CHARGES


@<TRIPOS>ATOM
      1 CA         -0.5465  -12.3622  -47.4406 C.3       0 UNK        -0.1800 
      2 C           0.9566  -12.2048  -47.6213 C.2       0 UNK         0.5000 
      3 O           1.5396  -11.2471  -47.1106 O.2       0 UNK        -0.5000 
      4 N           1.5877  -13.1371  -48.3466 N.am      1 UNK        -0.5000 
      5 CA          3.0397  -13.1984  -48.5484 C.3       1 UNK         0.1400 
      6 C6          3.4383  -14.2471  -49.6110 C.3       23 UNK        -0.0398 
      7 S7          2.9078  -13.7287  -51.2757 S.3       23 UNK        -0.2404 
      8 C8          3.3495  -15.1931  -52.2581 C.3       23 UNK        -0.0205 
      9 C9          2.3511  -16.3227  -52.0639 C.ar      23 UNK        -0.0193 
     10 C10         1.0913  -16.2471  -52.6613 C.ar      23 UNK        -0.1150 
     11 C11         0.1689  -17.2859  -52.5140 C.ar      23 UNK        -0.0193 
     12 C12         0.5156  -18.4116  -51.7593 C.ar      23 UNK        -0.1150 
     13 C13         1.7722  -18.4950  -51.1481 C.ar      23 UNK        -0.0193 
     14 C14         2.6850  -17.4474  -51.3054 C.ar      23 UNK        -0.1150 
     15 C15         2.1643  -19.7176  -50.3309 C.3       23 UNK        -0.0205 
     16 S16         1.8710  -19.4629  -48.5514 S.3       23 UNK        -0.2404 
     17 C17         0.1166  -19.9349  -48.4042 C.3       23 UNK        -0.0398 
     18 CA         -0.0474  -21.3094  -47.7124 C.3       11 UNK         0.1400 
     19 N           0.2290  -21.2566  -46.2720 N.am      11 UNK        -0.5000 
     20 C           0.2915  -22.3301  -45.4703 C.2       10 UNK         0.5000 
     21 O           0.1914  -23.4897  -45.8707 O.2       10 UNK        -0.5000 
     22 CA          0.4268  -22.0693  -43.9596 C.3       10 UNK         0.1400 
     23 CB          1.8871  -21.7880  -43.5764 C.3       10 UNK        -0.1800 
     24 N          -0.4381  -20.9819  -43.4973 N.am      10 UNK        -0.5000 
     25 C          -1.7782  -21.0140  -43.5424 C.2       9 UNK         0.5000 
     26 O          -2.4210  -21.9873  -43.9303 O.2       9 UNK        -0.5000 
     27 CA         -2.5351  -19.7401  -43.1295 C.3       9 UNK         0.1400 
     28 CB         -2.6982  -19.6751  -41.6043 C.3       9 UNK        -0.1800 
     29 N          -1.8978  -18.5174  -43.6165 N.am      9 UNK        -0.5000 
     30 C          -1.7432  -18.1985  -44.9097 C.2       8 UNK         0.5000 
     31 O          -2.1681  -18.8867  -45.8390 O.2       8 UNK        -0.5000 
     32 CA         -0.9229  -16.9292  -45.2146 C.3       8 UNK         0.1400 
     33 CB         -1.7715  -15.6608  -45.0428 C.3       8 UNK        -0.1800 
     34 N           0.2793  -16.8322  -44.3849 N.am      8 UNK        -0.5000 
     35 C           1.2879  -17.7154  -44.4187 C.2       7 UNK         0.5000 
     36 O           1.3317  -18.6732  -45.1904 O.2       7 UNK        -0.5000 
     37 CA          2.3940  -17.5402  -43.3648 C.3       7 UNK         0.1400 
     38 CB          3.4066  -16.4666  -43.7884 C.3       7 UNK        -0.1800 
     39 N           1.8397  -17.2135  -42.0503 N.am      7 UNK        -0.5000 
     40 C           1.1694  -18.0866  -41.2840 C.2       6 UNK         0.5000 
     41 O           0.9850  -19.2621  -41.5945 O.2       6 UNK        -0.5000 
     42 CA          0.5746  -17.5540  -39.9672 C.3       6 UNK         0.1400 
     43 CB          1.6159  -17.6210  -38.8403 C.3       6 UNK        -0.1800 
     44 N           0.0739  -16.1845  -40.0796 N.am      6 UNK        -0.5000 
     45 C          -0.9483  -15.8022  -40.8590 C.2       5 UNK         0.5000 
     46 O          -1.6170  -16.5781  -41.5386 O.2       5 UNK        -0.5000 
     47 CA         -1.2322  -14.2905  -40.9332 C.3       5 UNK         0.1400 
     48 CB         -2.2515  -13.8782  -39.8613 C.3       5 UNK        -0.1800 
     49 N          -0.0176  -13.4839  -40.7879 N.am      5 UNK        -0.5000 
     50 C           1.0003  -13.4926  -41.6581 C.2       4 UNK         0.5000 
     51 O           1.0064  -14.1574  -42.6973 O.2       4 UNK        -0.5000 
     52 CA          2.2487  -12.6942  -41.2470 C.3       4 UNK         0.1400 
     53 CB          3.3133  -13.6399  -40.6686 C.3       4 UNK        -0.1800 
     54 N           2.8322  -11.9556  -42.3616 N.am      4 UNK        -0.5000 
     55 C           2.2599  -10.9338  -43.0055 C.2       3 UNK         0.5000 
     56 O           1.1467  -10.4901  -42.7193 O.2       3 UNK        -0.5000 
     57 CA          3.0597  -10.2694  -44.1445 C.3       3 UNK         0.1400 
     58 CB          3.8996   -9.0940  -43.6094 C.3       3 UNK        -0.1800 
     59 N           3.8807  -11.1707  -44.9665 N.am      3 UNK        -0.5000 
     60 C           4.9645  -11.8928  -44.6381 C.2       2 UNK         0.5000 
     61 O           5.4208  -11.9535  -43.4957 O.2       2 UNK        -0.5000 
     62 CA          5.6770  -12.6559  -45.7786 C.3       2 UNK         0.1400 
     63 CB          6.2073  -14.0345  -45.3316 C.3       2 UNK        -0.1800 
     64 N           4.8854  -12.7478  -47.0136 N.am      2 UNK        -0.5000 
     65 C           3.7652  -13.4572  -47.2128 C.2       1 UNK         0.5000 
     66 O           3.2892  -14.2526  -46.4013 O.2       1 UNK        -0.5000 
     67 C          -1.4362  -21.9101  -48.0072 C.2       11 UNK         0.5000 
     68 O          -1.5407  -22.7850  -48.8670 O.2       11 UNK        -0.5000 
     69 N          -2.4647  -21.4682  -47.2690 N.am      12 UNK        -0.5000 
     70 CA         -3.8266  -21.9962  -47.3652 C.3       12 UNK         0.1400 
     71 CB         -4.7800  -21.1365  -46.5229 C.3       12 UNK        -0.1800 
     72 C          -3.9196  -23.4794  -46.9619 C.2       12 UNK         0.5000 
     73 O          -4.5799  -24.2516  -47.6547 O.2       12 UNK        -0.5000 
     74 N          -3.2344  -23.8638  -45.8765 N.am      13 UNK        -0.5000 
     75 CA         -3.1449  -25.2418  -45.3923 C.3       13 UNK         0.1400 
     76 CB         -2.4438  -25.2721  -44.0262 C.3       13 UNK        -0.1800 
     77 C          -2.4406  -26.1754  -46.3916 C.2       13 UNK         0.5000 
     78 O          -2.9539  -27.2602  -46.6671 O.2       13 UNK        -0.5000 
     79 N          -1.3130  -25.7205  -46.9576 N.am      14 UNK        -0.5000 
     80 CA         -0.5578  -26.4253  -47.9980 C.3       14 UNK         0.1400 
     81 CB          0.7536  -25.6750  -48.2748 C.3       14 UNK        -0.1800 
     82 C          -1.3588  -26.6143  -49.3007 C.2       14 UNK         0.5000 
     83 O          -1.2255  -27.6487  -49.9551 O.2       14 UNK        -0.5000 
     84 N          -2.2032  -25.6287  -49.6282 N.am      15 UNK        -0.5000 
     85 CA         -3.1317  -25.6501  -50.7569 C.3       15 UNK         0.1400 
     86 CB         -3.4423  -24.1997  -51.1520 C.3       15 UNK        -0.1800 
     87 C          -4.4337  -26.4300  -50.4768 C.2       15 UNK         0.5000 
     88 O          -5.2755  -26.5113  -51.3703 O.2       15 UNK        -0.5000 
     89 N          -4.6005  -26.9686  -49.2589 N.am      16 UNK        -0.5000 
     90 CA         -5.7736  -27.7024  -48.7701 C.3       16 UNK         0.1400 
     91 CB         -5.9262  -29.0490  -49.5080 C.3       16 UNK        -0.1800 
     92 C          -7.0590  -26.8465  -48.7862 C.2       16 UNK         0.5000 
     93 O          -8.1124  -27.3083  -49.2278 O.2       16 UNK        -0.5000 
     94 N          -6.9255  -25.6016  -48.3084 N.am      17 UNK        -0.5000 
     95 CA         -7.9382  -24.5466  -48.1932 C.3       17 UNK         0.1400 
     96 CB         -9.1690  -25.0146  -47.3885 C.3       17 UNK        -0.1800 
     97 C          -8.3197  -23.8761  -49.5291 C.2       17 UNK         0.5000 
     98 O          -9.2277  -23.0425  -49.5420 O.2       17 UNK        -0.5000 
     99 N          -7.6128  -24.2036  -50.6192 N.am      18 UNK        -0.5000 
    100 CA        -7.7064  -23.5043  -51.9005 C.3       18 UNK         0.1400 
    101 CB        -7.2584  -24.4527  -53.0253 C.3       18 UNK        -0.1800 
    102 C         -6.8624  -22.2130  -51.8937 C.2       18 UNK         0.5000 
    103 O         -6.1033  -21.9607  -50.9553 O.2       18 UNK        -0.5000 
    104 N         -6.9860  -21.4283  -52.9708 N.am      19 UNK        -0.5000 
    105 CA        -6.2895  -20.1533  -53.1770 C.3       19 UNK         0.1400 
    106 CB        -7.0789  -19.3347  -54.2136 C.3       19 UNK        -0.1800 
    107 C         -4.8111  -20.2933  -53.6050 C.2       19 UNK         0.5000 
    108 O         -4.1866  -19.2833  -53.9263 O.2       19 UNK        -0.5000 
    109 N         -4.2851  -21.5277  -53.6581 N.am      20 UNK        -0.5000 
    110 CA        -2.9211  -21.8955  -54.0734 C.3       20 UNK         0.1400 
    111 CB        -1.8757  -21.2964  -53.1075 C.3       20 UNK        -0.1800 
    112 C         -2.6174  -21.5499  -55.5493 C.2       20 UNK         0.5000 
    113 O         -1.4552  -21.3636  -55.9113 O.2       20 UNK        -0.5000 
    114 N         -3.6804  -21.4570  -56.3640 N.am      21 UNK        -0.5000 
    115 CA        -3.7139  -21.0150  -57.7635 C.3       21 UNK         0.1400 
    116 CB        -2.8883  -21.9550  -58.6672 C.3       21 UNK        -0.1800 
    117 C         -3.3508  -19.5254  -57.9661 C.2       21 UNK         0.5000 
    118 O         -3.1146  -19.1129  -59.1035 O.2       21 UNK        -0.5000 
    119 N         -3.3296  -18.7366  -56.8835 N.am      22 UNK        -0.5000 
    120 CA        -3.0991  -17.2862  -56.9104 C.3       22 UNK         0.1400 
    121 C         -4.3389  -16.5065  -57.4297 C.2       22 UNK         0.5000 
    122 N         -4.1327  -15.3803  -58.0989 N.am      22 UNK        -0.7600 
    123 O         -5.4850  -16.8888  -57.2020 O.2       22 UNK        -0.5000 
    124 C124       -2.6611  -16.7515  -55.5249 C.3       23 UNK        -0.0398 
    125 S125       -1.0877  -17.4831  -54.9615 S.3       23 UNK        -0.2404 
    126 C126       -1.1967  -17.1719  -53.1732 C.3       23 UNK        -0.0205 
    127 H127       -1.0691  -11.5189  -47.8919 H         1 UNK         0.0600 
    128 H128       -0.7940  -12.3902  -46.3793 H         1 UNK         0.0600 
    129 H129       -0.9165  -13.2794  -47.8996 H         1 UNK         0.0600 
    130 H130        1.0608  -13.9035  -48.7387 H         1 UNK         0.3000 
    131 H131        3.3538  -12.2161  -48.9091 H         1 UNK         0.0600 
    132 H132        4.5213  -14.3828  -49.6381 H         1 UNK         0.0800 
    133 H133        3.0083  -15.2214  -49.3719 H         1 UNK         0.0800 
    134 H134        4.3612  -15.5156  -52.0071 H         1 UNK         0.0800 
    135 H135        3.3721  -14.9147  -53.3128 H         1 UNK         0.0800 
    136 H136        0.8293  -15.3777  -53.2483 H         1 UNK         0.1150 
    137 H137       -0.1915  -19.2209  -51.6496 H         1 UNK         0.1150 
    138 H138        3.6578  -17.5111  -50.8380 H         1 UNK         0.1150 
    139 H139        1.6317  -20.6043  -50.6787 H         1 UNK         0.0800 
    140 H140        3.2243  -19.9280  -50.4810 H         1 UNK         0.0800 
    141 H141       -0.3311  -19.9414  -49.3987 H         1 UNK         0.0800 
    142 H142       -0.4068  -19.1563  -47.8483 H         1 UNK         0.0800 
    143 H143        0.6797  -21.9960  -48.1521 H         1 UNK         0.0600 
    144 H144        0.3776  -20.3360  -45.8701 H         1 UNK         0.3000 
    145 H145        0.1166  -22.9782  -43.4403 H         1 UNK         0.0600 
    146 H146        1.9985  -21.6872  -42.4968 H         1 UNK         0.0600 
    147 H147        2.5368  -22.6040  -43.8948 H         1 UNK         0.0600 
    148 H148        2.2596  -20.8743  -44.0383 H         1 UNK         0.0600 
    149 H149        0.0235  -20.1686  -43.1036 H         1 UNK         0.3000 
    150 H150       -3.5317  -19.7899  -43.5724 H         1 UNK         0.0600 
    151 H151       -3.1985  -20.5679  -41.2271 H         1 UNK         0.0600 
    152 H152       -3.2999  -18.8158  -41.3081 H         1 UNK         0.0600 
    153 H153       -1.7354  -19.6006  -41.0994 H         1 UNK         0.0600 
    154 H154       -1.5747  -17.8633  -42.9081 H         1 UNK         0.3000 
    155 H155       -0.6026  -16.9837  -46.2572 H         1 UNK         0.0600 
    156 H156       -2.6484  -15.6889  -45.6907 H         1 UNK         0.0600 
    157 H157       -1.2021  -14.7683  -45.3030 H         1 UNK         0.0600 
    158 H158       -2.1244  -15.5450  -44.0180 H         1 UNK         0.0600 
    159 H159        0.3313  -16.0603  -43.7315 H         1 UNK         0.3000 
    160 H160        2.9293  -18.4887  -43.2840 H         1 UNK         0.0600 
    161 H161        2.9445  -15.4842  -43.8859 H         1 UNK         0.0600 
    162 H162        3.8487  -16.7122  -44.7549 H         1 UNK         0.0600 
    163 H163        4.2214  -16.3845  -43.0692 H         1 UNK         0.0600 
    164 H164        1.8997  -16.2494  -41.7585 H         1 UNK         0.3000 
    165 H165       -0.2645  -18.1976  -39.6958 H         1 UNK         0.0600 
    166 H166        1.1840  -17.3206  -37.8855 H         1 UNK         0.0600 
    167 H167        1.9940  -18.6371  -38.7190 H         1 UNK         0.0600 
    168 H168        2.4710  -16.9743  -39.0413 H         1 UNK         0.0600 
    169 H169        0.5603  -15.4779  -39.5488 H         1 UNK         0.3000 
    170 H170       -1.6622  -14.0815  -41.9151 H         1 UNK         0.0600 
    171 H171       -3.1745  -14.4510  -39.9608 H         1 UNK         0.0600 
    172 H172       -1.8684  -14.0451  -38.8538 H         1 UNK         0.0600 
    173 H173       -2.5139  -12.8239  -39.9513 H         1 UNK         0.0600 
    174 H174        0.0489  -12.9149  -39.9560 H         1 UNK         0.3000 
    175 H175        1.9709  -11.9717  -40.4769 H         1 UNK         0.0600 
    176 H176        3.6560  -14.3617  -41.4112 H         1 UNK         0.0600 
    177 H177        4.1837  -13.0848  -40.3182 H         1 UNK         0.0600 
    178 H178        2.9232  -14.2008  -39.8184 H         1 UNK         0.0600 
    179 H179        3.7660  -12.2240  -42.6572 H         1 UNK         0.3000 
    180 H180        2.3198   -9.8515  -44.8289 H         1 UNK         0.0600 
    181 H181        4.6616   -9.4255  -42.9035 H         1 UNK         0.0600 
    182 H182        3.2696   -8.3705  -43.0904 H         1 UNK         0.0600 
    183 H183        4.3999   -8.5651  -44.4206 H         1 UNK         0.0600 
    184 H184        3.5529  -11.2530  -45.9202 H         1 UNK         0.3000 
    185 H185        6.5459  -12.0481  -46.0348 H         1 UNK         0.0600 
    186 H186        6.9534  -13.9277  -44.5434 H         1 UNK         0.0600 
    187 H187        5.4135  -14.6684  -44.9380 H         1 UNK         0.0600 
    188 H188        6.6832  -14.5631  -46.1575 H         1 UNK         0.0600 
    189 H189        5.1901  -12.1281  -47.7524 H         1 UNK         0.3000 
    190 H190       -2.3081  -20.7186  -46.6015 H         1 UNK         0.3000 
    191 H191       -4.1389  -21.9192  -48.4092 H         1 UNK         0.0600 
    192 H192       -4.5215  -21.1643  -45.4645 H         1 UNK         0.0600 
    193 H193       -5.8082  -21.4872  -46.6198 H         1 UNK         0.0600 
    194 H194       -4.7590  -20.0951  -46.8446 H         1 UNK         0.0600 
    195 H195       -2.7643  -23.1554  -45.3171 H         1 UNK         0.3000 
    196 H196       -4.1636  -25.6108  -45.2564 H         1 UNK         0.0600 
    197 H197       -2.3809  -26.2907  -43.6414 H         1 UNK         0.0600 
    198 H198       -2.9890  -24.6800  -43.2911 H         1 UNK         0.0600 
    199 H199       -1.4287  -24.8793  -44.0849 H         1 UNK         0.0600 
    200 H200       -0.9341  -24.8279  -46.6500 H         1 UNK         0.3000 
    201 H201       -0.3099  -27.4173  -47.6154 H         1 UNK         0.0600 
    202 H202        1.3679  -25.6113  -47.3765 H         1 UNK         0.0600 
    203 H203        0.5685  -24.6590  -48.6255 H         1 UNK         0.0600 
    204 H204        1.3437  -26.1848  -49.0372 H         1 UNK         0.0600 
    205 H205       -2.2063  -24.7865  -49.0629 H         1 UNK         0.3000 
    206 H206       -2.6428  -26.1331  -51.6052 H         1 UNK         0.0600 
    207 H207       -2.5258  -23.6563  -51.3771 H         1 UNK         0.0600 
    208 H208       -4.0714  -24.1567  -52.0400 H         1 UNK         0.0600 
    209 H209       -3.9597  -23.6667  -50.3537 H         1 UNK         0.0600 
    210 H210       -3.8642  -26.8331  -48.5765 H         1 UNK         0.3000 
    211 H211       -5.5741  -27.9266  -47.7213 H         1 UNK         0.0600 
    212 H212       -6.1778  -28.9115  -50.5599 H         1 UNK         0.0600 
    213 H213       -6.7171  -29.6514  -49.0597 H         1 UNK         0.0600 
    214 H214       -5.0066  -29.6319  -49.4564 H         1 UNK         0.0600 
    215 H215       -5.9906  -25.2993  -48.0343 H         1 UNK         0.3000 
    216 H216       -7.4577  -23.7610  -47.6082 H         1 UNK         0.0600 
    217 H217       -9.8165  -24.1723  -47.1423 H         1 UNK         0.0600 
    218 H218       -8.8733  -25.4795  -46.4480 H         1 UNK         0.0600 
    219 H219       -9.7721  -25.7318  -47.9453 H         1 UNK         0.0600 
    220 H220       -6.8719  -24.8853  -50.5292 H         1 UNK         0.3000 
    221 H221       -8.7479  -23.2299  -52.0810 H         1 UNK         0.0600 
    222 H222       -6.1889  -24.6549  -52.9856 H         1 UNK         0.0600 
    223 H223       -7.7800  -25.4084  -52.9676 H         1 UNK         0.0600 
    224 H224       -7.4722  -24.0299  -54.0073 H         1 UNK         0.0600 
    225 H225       -7.6198  -21.7085  -53.7057 H         1 UNK         0.3000 
    226 H226       -6.2941  -19.6000  -52.2357 H         1 UNK         0.0600 
    227 H227       -8.1108  -19.1846  -53.8957 H         1 UNK         0.0600 
    228 H228       -6.6409  -18.3454  -54.3549 H         1 UNK         0.0600 
    229 H229       -7.0945  -19.8260  -55.1872 H         1 UNK         0.0600 
    230 H230       -4.8813  -22.2922  -53.3790 H         1 UNK         0.3000 
    231 H231       -2.8605  -22.9817  -53.9961 H         1 UNK         0.0600 
    232 H232       -0.8989  -21.7583  -53.2537 H         1 UNK         0.0600 
    233 H233       -2.1557  -21.4462  -52.0651 H         1 UNK         0.0600 
    234 H234       -1.7537  -20.2256  -53.2673 H         1 UNK         0.0600 
    235 H235       -4.5845  -21.6354  -55.9512 H         1 UNK         0.3000 
    236 H236       -4.7560  -21.1044  -58.0732 H         1 UNK         0.0600 
    237 H237       -3.0616  -21.7355  -59.7213 H         1 UNK         0.0600 
    238 H238       -1.8176  -21.8552  -58.4881 H         1 UNK         0.0600 
    239 H239       -3.1610  -22.9980  -58.5064 H         1 UNK         0.0600 
    240 H240       -3.5482  -19.1285  -55.9755 H         1 UNK         0.3000 
    241 H241       -2.2806  -17.0982  -57.6085 H         1 UNK         0.0600 
    242 H242       -4.9277  -14.8562  -58.4311 H         1 UNK         0.3800 
    243 H243       -3.2028  -15.0424  -58.2954 H         1 UNK         0.3800 
    244 H244       -2.5241  -15.6693  -55.5587 H         1 UNK         0.0800 
    245 H245       -3.4372  -16.9368  -54.7810 H         1 UNK         0.0800 
    246 H246       -1.9078  -17.8677  -52.7255 H         1 UNK         0.0800 
    247 H247       -1.5936  -16.1705  -52.9996 H         1 UNK         0.0800 
@<TRIPOS>BOND
     1    1    2 1    
     2    1  127 1    
     3    1  128 1    
     4    1  129 1    
     5    2    3 2    
     6    2    4 am   BACKBONE|DICT|INTERRES
     7    4    5 1    
     8    4  130 1    
     9    5    6 1    
    10    5   65 1    
    11    5  131 1    
    12    6    7 1    
    13    6  132 1    
    14    6  133 1    
    15    7    8 1    
    16    8    9 1    
    17    8  134 1    
    18    8  135 1    
    19    9   10 ar   
    20    9   14 ar   
    21   10   11 ar   
    22   10  136 1    
    23   11   12 ar   
    24   11  126 1    
    25   12   13 ar   
    26   12  137 1    
    27   13   14 ar   
    28   13   15 1    
    29   14  138 1    
    30   15   16 1    
    31   15  139 1    
    32   15  140 1    
    33   16   17 1    
    34   17   18 1    
    35   17  141 1    
    36   17  142 1    
    37   18   19 1    
    38   18   67 1    
    39   18  143 1    
    40   19   20 am   BACKBONE|DICT|INTERRES
    41   19  144 1    
    42   20   21 2    
    43   20   22 1    
    44   22   23 1    
    45   22   24 1    
    46   22  145 1    
    47   23  146 1    
    48   23  147 1    
    49   23  148 1    
    50   24   25 am   BACKBONE|DICT|INTERRES
    51   24  149 1    
    52   25   26 2    
    53   25   27 1    
    54   27   28 1    
    55   27   29 1    
    56   27  150 1    
    57   28  151 1    
    58   28  152 1    
    59   28  153 1    
    60   29   30 am   BACKBONE|DICT|INTERRES
    61   29  154 1    
    62   30   31 2    
    63   30   32 1    
    64   32   33 1    
    65   32   34 1    
    66   32  155 1    
    67   33  156 1    
    68   33  157 1    
    69   33  158 1    
    70   34   35 am   BACKBONE|DICT|INTERRES
    71   34  159 1    
    72   35   36 2    
    73   35   37 1    
    74   37   38 1    
    75   37   39 1    
    76   37  160 1    
    77   38  161 1    
    78   38  162 1    
    79   38  163 1    
    80   39   40 am   BACKBONE|DICT|INTERRES
    81   39  164 1    
    82   40   41 2    
    83   40   42 1    
    84   42   43 1    
    85   42   44 1    
    86   42  165 1    
    87   43  166 1    
    88   43  167 1    
    89   43  168 1    
    90   44   45 am   BACKBONE|DICT|INTERRES
    91   44  169 1    
    92   45   46 2    
    93   45   47 1    
    94   47   48 1    
    95   47   49 1    
    96   47  170 1    
    97   48  171 1    
    98   48  172 1    
    99   48  173 1    
   100   49   50 am   BACKBONE|DICT|INTERRES
   101   49  174 1    
   102   50   51 2    
   103   50   52 1    
   104   52   53 1    
   105   52   54 1    
   106   52  175 1    
   107   53  176 1    
   108   53  177 1    
   109   53  178 1    
   110   54   55 am   BACKBONE|DICT|INTERRES
   111   54  179 1    
   112   55   56 2    
   113   55   57 1    
   114   57   58 1    
   115   57   59 1    
   116   57  180 1    
   117   58  181 1    
   118   58  182 1    
   119   58  183 1    
   120   59   60 am   BACKBONE|DICT|INTERRES
   121   59  184 1    
   122   60   61 2    
   123   60   62 1    
   124   62   63 1    
   125   62   64 1    
   126   62  185 1    
   127   63  186 1    
   128   63  187 1    
   129   63  188 1    
   130   64   65 am   BACKBONE|DICT|INTERRES
   131   64  189 1    
   132   65   66 2    
   133   67   68 2    
   134   67   69 am   BACKBONE|DICT|INTERRES
   135   69   70 1    
   136   69  190 1    
   137   70   71 1    
   138   70   72 1    
   139   70  191 1    
   140   71  192 1    
   141   71  193 1    
   142   71  194 1    
   143   72   73 2    
   144   72   74 am   BACKBONE|DICT|INTERRES
   145   74   75 1    
   146   74  195 1    
   147   75   76 1    
   148   75   77 1    
   149   75  196 1    
   150   76  197 1    
   151   76  198 1    
   152   76  199 1    
   153   77   78 2    
   154   77   79 am   BACKBONE|DICT|INTERRES
   155   79   80 1    
   156   79  200 1    
   157   80   81 1    
   158   80   82 1    
   159   80  201 1    
   160   81  202 1    
   161   81  203 1    
   162   81  204 1    
   163   82   83 2    
   164   82   84 am   BACKBONE|DICT|INTERRES
   165   84   85 1    
   166   84  205 1    
   167   85   86 1    
   168   85   87 1    
   169   85  206 1    
   170   86  207 1    
   171   86  208 1    
   172   86  209 1    
   173   87   88 2    
   174   87   89 am   BACKBONE|DICT|INTERRES
   175   89   90 1    
   176   89  210 1    
   177   90   91 1    
   178   90   92 1    
   179   90  211 1    
   180   91  212 1    
   181   91  213 1    
   182   91  214 1    
   183   92   93 2    
   184   92   94 am   BACKBONE|DICT|INTERRES
   185   94   95 1    
   186   94  215 1    
   187   95   96 1    
   188   95   97 1    
   189   95  216 1    
   190   96  217 1    
   191   96  218 1    
   192   96  219 1    
   193   97   98 2    
   194   97   99 am   BACKBONE|DICT|INTERRES
   195   99  100 1    
   196   99  220 1    
   197  100  101 1    
   198  100  102 1    
   199  100  221 1    
   200  101  222 1    
   201  101  223 1    
   202  101  224 1    
   203  102  103 2    
   204  102  104 am   BACKBONE|DICT|INTERRES
   205  104  105 1    
   206  104  225 1    
   207  105  106 1    
   208  105  107 1    
   209  105  226 1    
   210  106  227 1    
   211  106  228 1    
   212  106  229 1    
   213  107  108 2    
   214  107  109 am   BACKBONE|DICT|INTERRES
   215  109  110 1    
   216  109  230 1    
   217  110  111 1    
   218  110  112 1    
   219  110  231 1    
   220  111  232 1    
   221  111  233 1    
   222  111  234 1    
   223  112  113 2    
   224  112  114 am   BACKBONE|DICT|INTERRES
   225  114  115 1    
   226  114  235 1    
   227  115  116 1    
   228  115  117 1    
   229  115  236 1    
   230  116  237 1    
   231  116  238 1    
   232  116  239 1    
   233  117  118 2    
   234  117  119 am   BACKBONE|DICT|INTERRES
   235  119  120 1    
   236  119  240 1    
   237  120  121 1    
   238  120  124 1    
   239  120  241 1    
   240  121  122 am   BACKBONE|DICT|INTERRES
   241  121  123 2    
   242  122  242 1    
   243  122  243 1    
   244  124  125 1    
   245  124  244 1    
   246  124  245 1    
   247  125  126 1    
   248  126  246 1    
   249  126  247 1    
@<TRIPOS>SUBSTRUCTURE
     1 UNK         1 GROUP             0       ****    0 ROOT    
