@<TRIPOS>MOLECULE
3R540
247   249    1
SMALL
USER_CHARGES


@<TRIPOS>ATOM
      1 CA          3.9883  -19.5396  -47.2513 C.3       0 UNK        -0.1800 
      2 C           4.2810  -18.2325  -47.9740 C.2       0 UNK         0.5000 
      3 O           5.1672  -17.4807  -47.5690 O.2       0 UNK        -0.5000 
      4 N           3.5188  -17.9591  -49.0375 N.am      1 UNK        -0.5000 
      5 CA          3.6263  -16.8365  -49.9835 C.3       1 UNK         0.1400 
      6 C6          4.9876  -16.7234  -50.7286 C.3       23 UNK        -0.0398 
      7 S7          5.6257  -18.2935  -51.4204 S.3       23 UNK        -0.2404 
      8 C8          4.7207  -18.4439  -53.0002 C.3       23 UNK        -0.0205 
      9 C9          3.2220  -18.6172  -52.7930 C.ar      23 UNK        -0.0193 
     10 C10         2.3178  -17.7425  -53.4049 C.ar      23 UNK        -0.1150 
     11 C11         0.9474  -17.8425  -53.1438 C.ar      23 UNK        -0.0193 
     12 C12         0.4845  -18.8221  -52.2629 C.ar      23 UNK        -0.1150 
     13 C13         1.3782  -19.7019  -51.6485 C.ar      23 UNK        -0.0193 
     14 C14         2.7406  -19.6147  -51.9387 C.ar      23 UNK        -0.1150 
     15 C15         0.8744  -20.7166  -50.6413 C.3       23 UNK        -0.0205 
     16 S16         0.6171  -19.9375  -49.0143 S.3       23 UNK        -0.2404 
     17 C17        -0.9054  -20.7732  -48.4738 C.3       23 UNK        -0.0398 
     18 CA         -0.6177  -22.0973  -47.7295 C.3       11 UNK         0.1400 
     19 N          -0.1079  -21.8813  -46.3695 N.am      11 UNK        -0.5000 
     20 C           0.2730  -22.8563  -45.5295 C.2       10 UNK         0.5000 
     21 O           0.2966  -24.0499  -45.8274 O.2       10 UNK        -0.5000 
     22 CA          0.6132  -22.4376  -44.0895 C.3       10 UNK         0.1400 
     23 CB          2.0281  -21.8450  -43.9960 C.3       10 UNK        -0.1800 
     24 N          -0.3703  -21.4945  -43.5556 N.am      10 UNK        -0.5000 
     25 C          -1.6438  -21.8129  -43.2789 C.2       9 UNK         0.5000 
     26 O          -2.1051  -22.9459  -43.3998 O.2       9 UNK        -0.5000 
     27 CA         -2.5732  -20.6708  -42.8354 C.3       9 UNK         0.1400 
     28 CB         -2.5009  -20.4722  -41.3146 C.3       9 UNK        -0.1800 
     29 N          -2.2701  -19.4120  -43.5141 N.am      9 UNK        -0.5000 
     30 C          -2.4756  -19.1965  -44.8230 C.2       8 UNK         0.5000 
     31 O          -2.9627  -20.0325  -45.5837 O.2       8 UNK        -0.5000 
     32 CA         -2.0109  -17.8378  -45.3843 C.3       8 UNK         0.1400 
     33 CB         -3.0950  -16.7813  -45.1301 C.3       8 UNK        -0.1800 
     34 N          -0.7512  -17.3777  -44.7965 N.am      8 UNK        -0.5000 
     35 C           0.3904  -18.0829  -44.7744 C.2       7 UNK         0.5000 
     36 O           0.5541  -19.1187  -45.4189 O.2       7 UNK        -0.5000 
     37 CA          1.5029  -17.6150  -43.8108 C.3       7 UNK         0.1400 
     38 CB          2.7325  -17.1196  -44.5795 C.3       7 UNK        -0.1800 
     39 N           1.0713  -16.5901  -42.8542 N.am      7 UNK        -0.5000 
     40 C           0.1737  -16.7880  -41.8765 C.2       6 UNK         0.5000 
     41 O          -0.3719  -17.8734  -41.6748 O.2       6 UNK        -0.5000 
     42 CA         -0.2211  -15.5788  -41.0047 C.3       6 UNK         0.1400 
     43 CB          0.4695  -15.6632  -39.6351 C.3       6 UNK        -0.1800 
     44 N           0.0561  -14.2641  -41.5935 N.am      6 UNK        -0.5000 
     45 C          -0.4564  -13.7874  -42.7366 C.2       5 UNK         0.5000 
     46 O          -1.1907  -14.4485  -43.4761 O.2       5 UNK        -0.5000 
     47 CA         -0.0836  -12.3342  -43.0940 C.3       5 UNK         0.1400 
     48 CB          1.4156  -12.0464  -42.8801 C.3       5 UNK        -0.1800 
     49 N          -0.4015  -12.0693  -44.4922 N.am      5 UNK        -0.5000 
     50 C          -1.2422  -11.1359  -44.9563 C.2       4 UNK         0.5000 
     51 O          -1.8512  -10.3458  -44.2334 O.2       4 UNK        -0.5000 
     52 CA         -1.4274  -11.0494  -46.4884 C.3       4 UNK         0.1400 
     53 CB         -0.6999   -9.8174  -47.0495 C.3       4 UNK        -0.1800 
     54 N          -0.9357  -12.2386  -47.1856 N.am      4 UNK        -0.5000 
     55 C          -1.5687  -13.4184  -47.2162 C.2       3 UNK         0.5000 
     56 O          -2.7268  -13.5703  -46.8299 O.2       3 UNK        -0.5000 
     57 CA         -0.7723  -14.6348  -47.7362 C.3       3 UNK         0.1400 
     58 CB         -1.3493  -15.1568  -49.0588 C.3       3 UNK        -0.1800 
     59 N           0.6615  -14.3899  -47.9173 N.am      3 UNK        -0.5000 
     60 C           1.5542  -14.1772  -46.9428 C.2       2 UNK         0.5000 
     61 O           1.2470  -14.1065  -45.7532 O.2       2 UNK        -0.5000 
     62 CA          3.0267  -14.0315  -47.3826 C.3       2 UNK         0.1400 
     63 CB          3.9853  -13.7812  -46.2045 C.3       2 UNK        -0.1800 
     64 N           3.4766  -15.2092  -48.1269 N.am      2 UNK        -0.5000 
     65 C           3.1920  -15.4742  -49.4073 C.2       1 UNK         0.5000 
     66 O           2.5607  -14.6954  -50.1231 O.2       1 UNK        -0.5000 
     67 C          -1.8746  -22.9879  -47.7485 C.2       11 UNK         0.5000 
     68 O          -1.9640  -23.8843  -48.5918 O.2       11 UNK        -0.5000 
     69 N          -2.8012  -22.7327  -46.8144 N.am      12 UNK        -0.5000 
     70 CA         -4.0297  -23.4993  -46.6398 C.3       12 UNK         0.1400 
     71 CB         -4.9771  -22.7552  -45.6880 C.3       12 UNK        -0.1800 
     72 C          -3.7655  -24.9358  -46.1564 C.2       12 UNK         0.5000 
     73 O          -4.3141  -25.8741  -46.7337 O.2       12 UNK        -0.5000 
     74 N          -2.9137  -25.0853  -45.1309 N.am      13 UNK        -0.5000 
     75 CA         -2.5400  -26.3689  -44.5310 C.3       13 UNK         0.1400 
     76 CB         -1.7387  -26.1248  -43.2435 C.3       13 UNK        -0.1800 
     77 C          -1.7542  -27.2829  -45.4867 C.2       13 UNK         0.5000 
     78 O          -2.0071  -28.4879  -45.5173 O.2       13 UNK        -0.5000 
     79 N          -0.8348  -26.6959  -46.2652 N.am      14 UNK        -0.5000 
     80 CA         -0.0672  -27.3918  -47.3006 C.3       14 UNK         0.1400 
     81 CB          1.1479  -26.5313  -47.6826 C.3       14 UNK        -0.1800 
     82 C          -0.8986  -27.7113  -48.5581 C.2       14 UNK         0.5000 
     83 O          -0.4776  -28.5463  -49.3592 O.2       14 UNK        -0.5000 
     84 N          -2.0335  -27.0139  -48.7243 N.am      15 UNK        -0.5000 
     85 CA         -2.9156  -26.9991  -49.8959 C.3       15 UNK         0.1400 
     86 CB         -3.5811  -28.3729  -50.1140 C.3       15 UNK        -0.1800 
     87 C          -2.2165  -26.4534  -51.1603 C.2       15 UNK         0.5000 
     88 O          -2.6010  -26.7952  -52.2796 O.2       15 UNK        -0.5000 
     89 N          -1.2078  -25.5954  -50.9527 N.am      16 UNK        -0.5000 
     90 CA         -0.4679  -24.8864  -51.9962 C.3       16 UNK         0.1400 
     91 CB          0.8300  -24.3314  -51.3921 C.3       16 UNK        -0.1800 
     92 C          -1.3146  -23.7633  -52.6199 C.2       16 UNK         0.5000 
     93 O          -1.2212  -23.5158  -53.8221 O.2       16 UNK        -0.5000 
     94 N          -2.1611  -23.1480  -51.7889 N.am      17 UNK        -0.5000 
     95 CA         -3.2412  -22.2581  -52.1775 C.3       17 UNK         0.1400 
     96 CB         -2.7330  -20.8168  -52.3718 C.3       17 UNK        -0.1800 
     97 C          -4.2693  -22.3846  -51.0535 C.2       17 UNK         0.5000 
     98 O          -4.1398  -21.7025  -50.0375 O.2       17 UNK        -0.5000 
     99 N          -5.2289  -23.3035  -51.2242 N.am      18 UNK        -0.5000 
    100 CA        -6.2072  -23.7200  -50.2109 C.3       18 UNK         0.1400 
    101 CB        -7.1325  -24.7848  -50.8184 C.3       18 UNK        -0.1800 
    102 C         -7.0354  -22.5731  -49.5954 C.2       18 UNK         0.5000 
    103 O         -7.3842  -22.6409  -48.4169 O.2       18 UNK        -0.5000 
    104 N         -7.3127  -21.5417  -50.4023 N.am      19 UNK        -0.5000 
    105 CA        -8.0348  -20.3316  -50.0078 C.3       19 UNK         0.1400 
    106 CB        -9.0042  -19.9645  -51.1451 C.3       19 UNK        -0.1800 
    107 C         -7.0985  -19.1447  -49.6953 C.2       19 UNK         0.5000 
    108 O         -7.6043  -18.0681  -49.3763 O.2       19 UNK        -0.5000 
    109 N         -5.7727  -19.3360  -49.8221 N.am      20 UNK        -0.5000 
    110 CA        -4.7133  -18.3201  -49.7270 C.3       20 UNK         0.1400 
    111 CB        -4.5482  -17.8427  -48.2719 C.3       20 UNK        -0.1800 
    112 C         -4.9327  -17.1678  -50.7329 C.2       20 UNK         0.5000 
    113 O         -4.9300  -15.9940  -50.3588 O.2       20 UNK        -0.5000 
    114 N         -5.1750  -17.5558  -51.9939 N.am      21 UNK        -0.5000 
    115 CA        -5.7239  -16.7373  -53.0801 C.3       21 UNK         0.1400 
    116 CB        -5.8040  -17.6002  -54.3491 C.3       21 UNK        -0.1800 
    117 C         -5.0017  -15.4096  -53.3814 C.2       21 UNK         0.5000 
    118 O         -5.6613  -14.4582  -53.8031 O.2       21 UNK        -0.5000 
    119 N         -3.6817  -15.3581  -53.1644 N.am      22 UNK        -0.5000 
    120 CA        -2.8742  -14.1336  -53.2976 C.3       22 UNK         0.1400 
    121 C         -2.9484  -13.1615  -52.0806 C.2       22 UNK         0.5000 
    122 N         -3.6440  -13.4868  -50.9973 N.am      22 UNK        -0.7600 
    123 O         -2.3844  -12.0717  -52.1316 O.2       22 UNK        -0.5000 
    124 C124       -1.4204  -14.4316  -53.7477 C.3       23 UNK        -0.0398 
    125 S125       -0.4866  -15.5429  -52.6391 S.3       23 UNK        -0.2404 
    126 C126       -0.0333  -16.8778  -53.7885 C.3       23 UNK        -0.0205 
    127 H127        4.6151  -19.6434  -46.3654 H         1 UNK         0.0600 
    128 H128        4.1840  -20.3876  -47.9078 H         1 UNK         0.0600 
    129 H129        2.9450  -19.5814  -46.9372 H         1 UNK         0.0600 
    130 H130        2.7800  -18.6122  -49.2647 H         1 UNK         0.3000 
    131 H131        2.8631  -17.0504  -50.7279 H         1 UNK         0.0600 
    132 H132        5.7513  -16.3391  -50.0505 H         1 UNK         0.0800 
    133 H133        4.9140  -15.9959  -51.5388 H         1 UNK         0.0800 
    134 H134        5.1014  -19.3091  -53.5444 H         1 UNK         0.0800 
    135 H135        4.9339  -17.5703  -53.6180 H         1 UNK         0.0800 
    136 H136        2.6812  -16.9656  -54.0628 H         1 UNK         0.1150 
    137 H137       -0.5694  -18.8778  -52.0334 H         1 UNK         0.1150 
    138 H138        3.4364  -20.2855  -51.4543 H         1 UNK         0.1150 
    139 H139        1.5925  -21.5295  -50.5294 H         1 UNK         0.0800 
    140 H140       -0.0432  -21.1670  -51.0189 H         1 UNK         0.0800 
    141 H141       -1.4635  -20.0887  -47.8342 H         1 UNK         0.0800 
    142 H142       -1.5407  -20.9328  -49.3454 H         1 UNK         0.0800 
    143 H143        0.1537  -22.6421  -48.2775 H         1 UNK         0.0600 
    144 H144       -0.0503  -20.9179  -46.0528 H         1 UNK         0.3000 
    145 H145        0.5869  -23.3350  -43.4675 H         1 UNK         0.0600 
    146 H146        2.7732  -22.5785  -44.3062 H         1 UNK         0.0600 
    147 H147        2.2674  -21.5523  -42.9736 H         1 UNK         0.0600 
    148 H148        2.1533  -20.9707  -44.6337 H         1 UNK         0.0600 
    149 H149       -0.0852  -20.5299  -43.4789 H         1 UNK         0.3000 
    150 H150       -3.5964  -20.9536  -43.0907 H         1 UNK         0.0600 
    151 H151       -1.4917  -20.2206  -40.9870 H         1 UNK         0.0600 
    152 H152       -2.7969  -21.3816  -40.7901 H         1 UNK         0.0600 
    153 H153       -3.1689  -19.6754  -40.9873 H         1 UNK         0.0600 
    154 H154       -1.8129  -18.6979  -42.9579 H         1 UNK         0.3000 
    155 H155       -1.8635  -17.9455  -46.4605 H         1 UNK         0.0600 
    156 H156       -2.8395  -15.8333  -45.5973 H         1 UNK         0.0600 
    157 H157       -3.2333  -16.5955  -44.0641 H         1 UNK         0.0600 
    158 H158       -4.0579  -17.0943  -45.5343 H         1 UNK         0.0600 
    159 H159       -0.7930  -16.5173  -44.2625 H         1 UNK         0.3000 
    160 H160        1.8074  -18.4881  -43.2299 H         1 UNK         0.0600 
    161 H161        3.4709  -16.6698  -43.9158 H         1 UNK         0.0600 
    162 H162        2.4620  -16.3888  -45.3373 H         1 UNK         0.0600 
    163 H163        3.2215  -17.9481  -45.0882 H         1 UNK         0.0600 
    164 H164        1.4442  -15.6609  -42.9840 H         1 UNK         0.3000 
    165 H165       -1.2995  -15.6427  -40.8462 H         1 UNK         0.0600 
    166 H166        0.1188  -14.8772  -38.9660 H         1 UNK         0.0600 
    167 H167        0.2607  -16.6171  -39.1487 H         1 UNK         0.0600 
    168 H168        1.5526  -15.5711  -39.7253 H         1 UNK         0.0600 
    169 H169        0.6579  -13.6599  -41.0531 H         1 UNK         0.3000 
    170 H170       -0.6640  -11.6821  -42.4388 H         1 UNK         0.0600 
    171 H171        1.6733  -11.0431  -43.2201 H         1 UNK         0.0600 
    172 H172        2.0429  -12.7517  -43.4272 H         1 UNK         0.0600 
    173 H173        1.6912  -12.1028  -41.8269 H         1 UNK         0.0600 
    174 H174        0.0113  -12.7314  -45.1422 H         1 UNK         0.3000 
    175 H175       -2.4952  -10.9377  -46.6878 H         1 UNK         0.0600 
    176 H176       -1.0626   -8.9019  -46.5803 H         1 UNK         0.0600 
    177 H177        0.3756   -9.8712  -46.8759 H         1 UNK         0.0600 
    178 H178       -0.8634   -9.7174  -48.1227 H         1 UNK         0.0600 
    179 H179        0.0052  -12.1962  -47.5469 H         1 UNK         0.3000 
    180 H180       -0.8785  -15.4221  -46.9883 H         1 UNK         0.0600 
    181 H181       -1.1872  -14.4442  -49.8674 H         1 UNK         0.0600 
    182 H182       -2.4232  -15.3282  -48.9837 H         1 UNK         0.0600 
    183 H183       -0.8879  -16.1017  -49.3473 H         1 UNK         0.0600 
    184 H184        1.0135  -14.4361  -48.8684 H         1 UNK         0.3000 
    185 H185        3.0796  -13.1585  -48.0362 H         1 UNK         0.0600 
    186 H186        3.6859  -12.8996  -45.6362 H         1 UNK         0.0600 
    187 H187        4.0137  -14.6232  -45.5137 H         1 UNK         0.0600 
    188 H188        5.0019  -13.6075  -46.5574 H         1 UNK         0.0600 
    189 H189        4.0139  -15.9036  -47.6168 H         1 UNK         0.3000 
    190 H190       -2.6774  -21.9302  -46.2057 H         1 UNK         0.3000 
    191 H191       -4.5165  -23.5570  -47.6122 H         1 UNK         0.0600 
    192 H192       -5.2188  -21.7639  -46.0726 H         1 UNK         0.0600 
    193 H193       -5.9173  -23.2959  -45.5736 H         1 UNK         0.0600 
    194 H194       -4.5427  -22.6336  -44.6959 H         1 UNK         0.0600 
    195 H195       -2.5306  -24.2556  -44.6842 H         1 UNK         0.3000 
    196 H196       -3.4615  -26.8891  -44.2616 H         1 UNK         0.0600 
    197 H197       -1.4477  -27.0670  -42.7773 H         1 UNK         0.0600 
    198 H198       -2.3274  -25.5701  -42.5128 H         1 UNK         0.0600 
    199 H199       -0.8274  -25.5583  -43.4394 H         1 UNK         0.0600 
    200 H200       -0.6368  -25.7058  -46.1414 H         1 UNK         0.3000 
    201 H201        0.2959  -28.3371  -46.8921 H         1 UNK         0.0600 
    202 H202        1.7683  -27.0345  -48.4252 H         1 UNK         0.0600 
    203 H203        1.7775  -26.3309  -46.8155 H         1 UNK         0.0600 
    204 H204        0.8441  -25.5720  -48.1043 H         1 UNK         0.0600 
    205 H205       -2.2798  -26.3531  -47.9990 H         1 UNK         0.3000 
    206 H206       -3.7070  -26.2853  -49.6621 H         1 UNK         0.0600 
    207 H207       -4.0597  -28.7266  -49.2007 H         1 UNK         0.0600 
    208 H208       -4.3532  -28.3150  -50.8820 H         1 UNK         0.0600 
    209 H209       -2.8618  -29.1281  -50.4314 H         1 UNK         0.0600 
    210 H210       -1.0151  -25.3305  -49.9954 H         1 UNK         0.3000 
    211 H211       -0.2087  -25.5930  -52.7874 H         1 UNK         0.0600 
    212 H212        0.6292  -23.7007  -50.5264 H         1 UNK         0.0600 
    213 H213        1.3812  -23.7349  -52.1204 H         1 UNK         0.0600 
    214 H214        1.4868  -25.1389  -51.0679 H         1 UNK         0.0600 
    215 H215       -2.1755  -23.4366  -50.8170 H         1 UNK         0.3000 
    216 H216       -3.6879  -22.6053  -53.1117 H         1 UNK         0.0600 
    217 H217       -3.5428  -20.1622  -52.6935 H         1 UNK         0.0600 
    218 H218       -1.9579  -20.7718  -53.1370 H         1 UNK         0.0600 
    219 H219       -2.3202  -20.3993  -51.4550 H         1 UNK         0.0600 
    220 H220       -5.2470  -23.8236  -52.0899 H         1 UNK         0.3000 
    221 H221       -5.6510  -24.1946  -49.4028 H         1 UNK         0.0600 
    222 H222       -7.6897  -24.3947  -51.6710 H         1 UNK         0.0600 
    223 H223       -6.5671  -25.6544  -51.1544 H         1 UNK         0.0600 
    224 H224       -7.8589  -25.1367  -50.0845 H         1 UNK         0.0600 
    225 H225       -6.9890  -21.5833  -51.3576 H         1 UNK         0.3000 
    226 H226       -8.6249  -20.5224  -49.1091 H         1 UNK         0.0600 
    227 H227       -9.6883  -20.7856  -51.3599 H         1 UNK         0.0600 
    228 H228       -8.4719  -19.7210  -52.0655 H         1 UNK         0.0600 
    229 H229       -9.6139  -19.0997  -50.8801 H         1 UNK         0.0600 
    230 H230       -5.4389  -20.2788  -49.9975 H         1 UNK         0.3000 
    231 H231       -3.7832  -18.8116  -50.0158 H         1 UNK         0.0600 
    232 H232       -5.4248  -17.2991  -47.9190 H         1 UNK         0.0600 
    233 H233       -3.6900  -17.1782  -48.1747 H         1 UNK         0.0600 
    234 H234       -4.3839  -18.6862  -47.6014 H         1 UNK         0.0600 
    235 H235       -5.1464  -18.5462  -52.1797 H         1 UNK         0.3000 
    236 H236       -6.7431  -16.4781  -52.7864 H         1 UNK         0.0600 
    237 H237       -4.8177  -17.9459  -54.6613 H         1 UNK         0.0600 
    238 H238       -6.4347  -18.4758  -54.1939 H         1 UNK         0.0600 
    239 H239       -6.2329  -17.0381  -55.1800 H         1 UNK         0.0600 
    240 H240       -3.2113  -16.1678  -52.7888 H         1 UNK         0.3000 
    241 H241       -3.3085  -13.5550  -54.1153 H         1 UNK         0.0600 
    242 H242       -4.1138  -14.3851  -50.9162 H         1 UNK         0.3800 
    243 H243       -3.6938  -12.8346  -50.2326 H         1 UNK         0.3800 
    244 H244       -0.8544  -13.5049  -53.8558 H         1 UNK         0.0800 
    245 H245       -1.4480  -14.8651  -54.7481 H         1 UNK         0.0800 
    246 H246       -0.9319  -17.4126  -54.1002 H         1 UNK         0.0800 
    247 H247        0.4042  -16.4497  -54.6918 H         1 UNK         0.0800 
@<TRIPOS>BOND
     1    1    2 1    
     2    1  127 1    
     3    1  128 1    
     4    1  129 1    
     5    2    3 2    
     6    2    4 am   BACKBONE|DICT|INTERRES
     7    4    5 1    
     8    4  130 1    
     9    5    6 1    
    10    5   65 1    
    11    5  131 1    
    12    6    7 1    
    13    6  132 1    
    14    6  133 1    
    15    7    8 1    
    16    8    9 1    
    17    8  134 1    
    18    8  135 1    
    19    9   10 ar   
    20    9   14 ar   
    21   10   11 ar   
    22   10  136 1    
    23   11   12 ar   
    24   11  126 1    
    25   12   13 ar   
    26   12  137 1    
    27   13   14 ar   
    28   13   15 1    
    29   14  138 1    
    30   15   16 1    
    31   15  139 1    
    32   15  140 1    
    33   16   17 1    
    34   17   18 1    
    35   17  141 1    
    36   17  142 1    
    37   18   19 1    
    38   18   67 1    
    39   18  143 1    
    40   19   20 am   BACKBONE|DICT|INTERRES
    41   19  144 1    
    42   20   21 2    
    43   20   22 1    
    44   22   23 1    
    45   22   24 1    
    46   22  145 1    
    47   23  146 1    
    48   23  147 1    
    49   23  148 1    
    50   24   25 am   BACKBONE|DICT|INTERRES
    51   24  149 1    
    52   25   26 2    
    53   25   27 1    
    54   27   28 1    
    55   27   29 1    
    56   27  150 1    
    57   28  151 1    
    58   28  152 1    
    59   28  153 1    
    60   29   30 am   BACKBONE|DICT|INTERRES
    61   29  154 1    
    62   30   31 2    
    63   30   32 1    
    64   32   33 1    
    65   32   34 1    
    66   32  155 1    
    67   33  156 1    
    68   33  157 1    
    69   33  158 1    
    70   34   35 am   BACKBONE|DICT|INTERRES
    71   34  159 1    
    72   35   36 2    
    73   35   37 1    
    74   37   38 1    
    75   37   39 1    
    76   37  160 1    
    77   38  161 1    
    78   38  162 1    
    79   38  163 1    
    80   39   40 am   BACKBONE|DICT|INTERRES
    81   39  164 1    
    82   40   41 2    
    83   40   42 1    
    84   42   43 1    
    85   42   44 1    
    86   42  165 1    
    87   43  166 1    
    88   43  167 1    
    89   43  168 1    
    90   44   45 am   BACKBONE|DICT|INTERRES
    91   44  169 1    
    92   45   46 2    
    93   45   47 1    
    94   47   48 1    
    95   47   49 1    
    96   47  170 1    
    97   48  171 1    
    98   48  172 1    
    99   48  173 1    
   100   49   50 am   BACKBONE|DICT|INTERRES
   101   49  174 1    
   102   50   51 2    
   103   50   52 1    
   104   52   53 1    
   105   52   54 1    
   106   52  175 1    
   107   53  176 1    
   108   53  177 1    
   109   53  178 1    
   110   54   55 am   BACKBONE|DICT|INTERRES
   111   54  179 1    
   112   55   56 2    
   113   55   57 1    
   114   57   58 1    
   115   57   59 1    
   116   57  180 1    
   117   58  181 1    
   118   58  182 1    
   119   58  183 1    
   120   59   60 am   BACKBONE|DICT|INTERRES
   121   59  184 1    
   122   60   61 2    
   123   60   62 1    
   124   62   63 1    
   125   62   64 1    
   126   62  185 1    
   127   63  186 1    
   128   63  187 1    
   129   63  188 1    
   130   64   65 am   BACKBONE|DICT|INTERRES
   131   64  189 1    
   132   65   66 2    
   133   67   68 2    
   134   67   69 am   BACKBONE|DICT|INTERRES
   135   69   70 1    
   136   69  190 1    
   137   70   71 1    
   138   70   72 1    
   139   70  191 1    
   140   71  192 1    
   141   71  193 1    
   142   71  194 1    
   143   72   73 2    
   144   72   74 am   BACKBONE|DICT|INTERRES
   145   74   75 1    
   146   74  195 1    
   147   75   76 1    
   148   75   77 1    
   149   75  196 1    
   150   76  197 1    
   151   76  198 1    
   152   76  199 1    
   153   77   78 2    
   154   77   79 am   BACKBONE|DICT|INTERRES
   155   79   80 1    
   156   79  200 1    
   157   80   81 1    
   158   80   82 1    
   159   80  201 1    
   160   81  202 1    
   161   81  203 1    
   162   81  204 1    
   163   82   83 2    
   164   82   84 am   BACKBONE|DICT|INTERRES
   165   84   85 1    
   166   84  205 1    
   167   85   86 1    
   168   85   87 1    
   169   85  206 1    
   170   86  207 1    
   171   86  208 1    
   172   86  209 1    
   173   87   88 2    
   174   87   89 am   BACKBONE|DICT|INTERRES
   175   89   90 1    
   176   89  210 1    
   177   90   91 1    
   178   90   92 1    
   179   90  211 1    
   180   91  212 1    
   181   91  213 1    
   182   91  214 1    
   183   92   93 2    
   184   92   94 am   BACKBONE|DICT|INTERRES
   185   94   95 1    
   186   94  215 1    
   187   95   96 1    
   188   95   97 1    
   189   95  216 1    
   190   96  217 1    
   191   96  218 1    
   192   96  219 1    
   193   97   98 2    
   194   97   99 am   BACKBONE|DICT|INTERRES
   195   99  100 1    
   196   99  220 1    
   197  100  101 1    
   198  100  102 1    
   199  100  221 1    
   200  101  222 1    
   201  101  223 1    
   202  101  224 1    
   203  102  103 2    
   204  102  104 am   BACKBONE|DICT|INTERRES
   205  104  105 1    
   206  104  225 1    
   207  105  106 1    
   208  105  107 1    
   209  105  226 1    
   210  106  227 1    
   211  106  228 1    
   212  106  229 1    
   213  107  108 2    
   214  107  109 am   BACKBONE|DICT|INTERRES
   215  109  110 1    
   216  109  230 1    
   217  110  111 1    
   218  110  112 1    
   219  110  231 1    
   220  111  232 1    
   221  111  233 1    
   222  111  234 1    
   223  112  113 2    
   224  112  114 am   BACKBONE|DICT|INTERRES
   225  114  115 1    
   226  114  235 1    
   227  115  116 1    
   228  115  117 1    
   229  115  236 1    
   230  116  237 1    
   231  116  238 1    
   232  116  239 1    
   233  117  118 2    
   234  117  119 am   BACKBONE|DICT|INTERRES
   235  119  120 1    
   236  119  240 1    
   237  120  121 1    
   238  120  124 1    
   239  120  241 1    
   240  121  122 am   BACKBONE|DICT|INTERRES
   241  121  123 2    
   242  122  242 1    
   243  122  243 1    
   244  124  125 1    
   245  124  244 1    
   246  124  245 1    
   247  125  126 1    
   248  126  246 1    
   249  126  247 1    
@<TRIPOS>SUBSTRUCTURE
     1 UNK         1 GROUP             0       ****    0 ROOT    
