@<TRIPOS>MOLECULE
3R540
247   249    1
SMALL
USER_CHARGES


@<TRIPOS>ATOM
      1 CA         -2.2890  -13.5166  -53.0077 C.3       0 UNK        -0.1800 
      2 C          -1.1449  -13.1010  -52.0941 C.2       0 UNK         0.5000 
      3 O          -0.4749  -12.1030  -52.3616 O.2       0 UNK        -0.5000 
      4 N          -0.9086  -13.8743  -51.0297 N.am      1 UNK        -0.5000 
      5 CA          0.1240  -13.6402  -50.0187 C.3       1 UNK         0.1400 
      6 C6          0.3053  -14.9081  -49.1570 C.3       23 UNK        -0.0398 
      7 S7          1.7984  -14.9331  -48.1128 S.3       23 UNK        -0.2404 
      8 C8          1.5224  -16.4889  -47.2025 C.3       23 UNK        -0.0205 
      9 C9          1.8745  -17.7031  -48.0494 C.ar      23 UNK        -0.0193 
     10 C10         0.9435  -18.2458  -48.9398 C.ar      23 UNK        -0.1150 
     11 C11         1.2700  -19.3340  -49.7535 C.ar      23 UNK        -0.0193 
     12 C12         2.5411  -19.9125  -49.6259 C.ar      23 UNK        -0.1150 
     13 C13         3.4761  -19.3938  -48.7243 C.ar      23 UNK        -0.0193 
     14 C14         3.1397  -18.2845  -47.9453 C.ar      23 UNK        -0.1150 
     15 C15         4.8603  -20.0148  -48.6055 C.3       23 UNK        -0.0205 
     16 S16         4.9924  -21.1184  -47.1644 S.3       23 UNK        -0.2404 
     17 C17         3.9003  -22.4854  -47.6764 C.3       23 UNK        -0.0398 
     18 CA          4.0049  -23.7227  -46.7490 C.3       11 UNK         0.1400 
     19 N           3.6720  -23.3934  -45.3579 N.am      11 UNK        -0.5000 
     20 C           4.2045  -23.9612  -44.2678 C.2       10 UNK         0.5000 
     21 O           5.1218  -24.7814  -44.3048 O.2       10 UNK        -0.5000 
     22 CA          3.5750  -23.5886  -42.9083 C.3       10 UNK         0.1400 
     23 CB          4.4049  -22.5114  -42.1942 C.3       10 UNK        -0.1800 
     24 N           2.1839  -23.1392  -43.0280 N.am      10 UNK        -0.5000 
     25 C           1.1570  -23.9424  -43.3448 C.2       9 UNK         0.5000 
     26 O           1.2738  -25.1564  -43.5090 O.2       9 UNK        -0.5000 
     27 CA         -0.2132  -23.2806  -43.5849 C.3       9 UNK         0.1400 
     28 CB         -1.0227  -23.2228  -42.2815 C.3       9 UNK        -0.1800 
     29 N          -0.1177  -21.9376  -44.1581 N.am      9 UNK        -0.5000 
     30 C           0.4317  -21.6417  -45.3435 C.2       8 UNK         0.5000 
     31 O           0.9043  -22.4895  -46.0999 O.2       8 UNK        -0.5000 
     32 CA          0.5231  -20.1495  -45.7158 C.3       8 UNK         0.1400 
     33 CB         -0.7862  -19.6464  -46.3374 C.3       8 UNK        -0.1800 
     34 N           0.8526  -19.3070  -44.5668 N.am      8 UNK        -0.5000 
     35 C           2.0129  -19.3488  -43.8989 C.2       7 UNK         0.5000 
     36 O           2.9501  -20.0848  -44.2008 O.2       7 UNK        -0.5000 
     37 CA          2.1190  -18.4491  -42.6569 C.3       7 UNK         0.1400 
     38 CB          2.5747  -17.0343  -43.0463 C.3       7 UNK        -0.1800 
     39 N           0.8420  -18.3810  -41.9435 N.am      7 UNK        -0.5000 
     40 C           0.3745  -19.3611  -41.1551 C.2       6 UNK         0.5000 
     41 O           1.0127  -20.3791  -40.8861 O.2       6 UNK        -0.5000 
     42 CA         -1.0553  -19.1972  -40.5989 C.3       6 UNK         0.1400 
     43 CB         -1.0301  -18.4341  -39.2662 C.3       6 UNK        -0.1800 
     44 N          -1.9606  -18.5138  -41.5251 N.am      6 UNK        -0.5000 
     45 C          -2.3356  -18.9926  -42.7198 C.2       5 UNK         0.5000 
     46 O          -2.0213  -20.1075  -43.1286 O.2       5 UNK        -0.5000 
     47 CA         -3.1484  -18.0585  -43.6405 C.3       5 UNK         0.1400 
     48 CB         -4.6438  -18.3997  -43.5728 C.3       5 UNK        -0.1800 
     49 N          -2.9648  -16.6304  -43.3640 N.am      5 UNK        -0.5000 
     50 C          -1.7952  -15.9783  -43.4131 C.2       4 UNK         0.5000 
     51 O          -0.7234  -16.5245  -43.6884 O.2       4 UNK        -0.5000 
     52 CA         -1.8416  -14.4949  -42.9999 C.3       4 UNK         0.1400 
     53 CB         -2.0261  -14.3755  -41.4776 C.3       4 UNK        -0.1800 
     54 N          -0.6396  -13.7512  -43.3732 N.am      4 UNK        -0.5000 
     55 C          -0.2610  -13.4723  -44.6251 C.2       3 UNK         0.5000 
     56 O          -0.8907  -13.8166  -45.6284 O.2       3 UNK        -0.5000 
     57 CA          1.0461  -12.6694  -44.7575 C.3       3 UNK         0.1400 
     58 CB          2.2726  -13.5621  -44.5111 C.3       3 UNK        -0.1800 
     59 N           1.1562  -12.0634  -46.0818 N.am      3 UNK        -0.5000 
     60 C           0.6135  -10.8890  -46.4297 C.2       2 UNK         0.5000 
     61 O           0.0423  -10.1372  -45.6383 O.2       2 UNK        -0.5000 
     62 CA          0.7313  -10.4788  -47.9106 C.3       2 UNK         0.1400 
     63 CB          1.9567   -9.5764  -48.1227 C.3       2 UNK        -0.1800 
     64 N           0.8275  -11.6316  -48.8078 N.am      2 UNK        -0.5000 
     65 C          -0.2093  -12.4048  -49.1561 C.2       1 UNK         0.5000 
     66 O          -1.3742  -12.1860  -48.8136 O.2       1 UNK        -0.5000 
     67 C           3.1228  -24.8759  -47.2871 C.2       11 UNK         0.5000 
     68 O           3.2694  -25.2469  -48.4522 O.2       11 UNK        -0.5000 
     69 N           2.2232  -25.4131  -46.4465 N.am      12 UNK        -0.5000 
     70 CA          1.2356  -26.4604  -46.7251 C.3       12 UNK         0.1400 
     71 CB          1.9183  -27.7817  -47.1379 C.3       12 UNK        -0.1800 
     72 C           0.1187  -26.0246  -47.6983 C.2       12 UNK         0.5000 
     73 O          -0.5070  -26.8797  -48.3283 O.2       12 UNK        -0.5000 
     74 N          -0.1411  -24.7134  -47.7880 N.am      13 UNK        -0.5000 
     75 CA         -1.2789  -24.1506  -48.5128 C.3       13 UNK         0.1400 
     76 CB         -0.9635  -22.6955  -48.8727 C.3       13 UNK        -0.1800 
     77 C          -2.5565  -24.2195  -47.6587 C.2       13 UNK         0.5000 
     78 O          -2.4784  -24.2927  -46.4294 O.2       13 UNK        -0.5000 
     79 N          -3.7153  -24.1679  -48.3242 N.am      14 UNK        -0.5000 
     80 CA         -5.0284  -24.1778  -47.6777 C.3       14 UNK         0.1400 
     81 CB         -6.0831  -24.6504  -48.6906 C.3       14 UNK        -0.1800 
     82 C          -5.4168  -22.8105  -47.0814 C.2       14 UNK         0.5000 
     83 O          -6.2170  -22.7693  -46.1461 O.2       14 UNK        -0.5000 
     84 N          -4.8534  -21.7245  -47.6241 N.am      15 UNK        -0.5000 
     85 CA         -5.0860  -20.3388  -47.2285 C.3       15 UNK         0.1400 
     86 CB         -6.5022  -19.8880  -47.6469 C.3       15 UNK        -0.1800 
     87 C          -4.0102  -19.4525  -47.8761 C.2       15 UNK         0.5000 
     88 O          -3.1945  -19.9491  -48.6564 O.2       15 UNK        -0.5000 
     89 N          -4.0541  -18.1475  -47.5685 N.am      16 UNK        -0.5000 
     90 CA         -3.1682  -17.1019  -48.1026 C.3       16 UNK         0.1400 
     91 CB         -3.4215  -15.8017  -47.3236 C.3       16 UNK        -0.1800 
     92 C          -3.2861  -16.8601  -49.6253 C.2       16 UNK         0.5000 
     93 O          -2.4162  -16.2011  -50.1958 O.2       16 UNK        -0.5000 
     94 N          -4.3340  -17.4228  -50.2416 N.am      17 UNK        -0.5000 
     95 CA         -4.6354  -17.4794  -51.6719 C.3       17 UNK         0.1400 
     96 CB         -3.4345  -18.0099  -52.4852 C.3       17 UNK        -0.1800 
     97 C          -5.2105  -16.1754  -52.2523 C.2       17 UNK         0.5000 
     98 O          -5.0737  -15.0941  -51.6780 O.2       17 UNK        -0.5000 
     99 N          -5.8739  -16.3538  -53.3953 N.am      18 UNK        -0.5000 
    100 CA        -6.5969  -15.3955  -54.2305 C.3       18 UNK         0.1400 
    101 CB        -7.6648  -14.6074  -53.4447 C.3       18 UNK        -0.1800 
    102 C         -7.2336  -16.2433  -55.3405 C.2       18 UNK         0.5000 
    103 O         -6.9489  -16.0411  -56.5210 O.2       18 UNK        -0.5000 
    104 N         -7.9713  -17.2759  -54.9062 N.am      19 UNK        -0.5000 
    105 CA        -8.1132  -18.5465  -55.6157 C.3       19 UNK         0.1400 
    106 CB        -9.3727  -19.2588  -55.0972 C.3       19 UNK        -0.1800 
    107 C         -6.8547  -19.4065  -55.3658 C.2       19 UNK         0.5000 
    108 O         -6.0320  -19.0550  -54.5125 O.2       19 UNK        -0.5000 
    109 N         -6.7262  -20.5257  -56.0875 N.am      20 UNK        -0.5000 
    110 CA        -5.5682  -21.4311  -56.0865 C.3       20 UNK         0.1400 
    111 CB        -5.6302  -22.3004  -57.3557 C.3       20 UNK        -0.1800 
    112 C         -5.3898  -22.2786  -54.8004 C.2       20 UNK         0.5000 
    113 O         -5.0570  -23.4628  -54.8814 O.2       20 UNK        -0.5000 
    114 N         -5.5678  -21.6587  -53.6265 N.am      21 UNK        -0.5000 
    115 CA        -5.4051  -22.2630  -52.2981 C.3       21 UNK         0.1400 
    116 CB        -5.9177  -21.2793  -51.2367 C.3       21 UNK        -0.1800 
    117 C         -3.9532  -22.6740  -51.9786 C.2       21 UNK         0.5000 
    118 O         -3.7376  -23.5163  -51.1058 O.2       21 UNK        -0.5000 
    119 N         -2.9937  -22.0765  -52.6952 N.am      22 UNK        -0.5000 
    120 CA        -1.5696  -22.4361  -52.6784 C.3       22 UNK         0.1400 
    121 C         -1.2184  -23.6920  -53.5345 C.2       22 UNK         0.5000 
    122 N         -2.1471  -24.2787  -54.2831 N.am      22 UNK        -0.7600 
    123 O         -0.0814  -24.1535  -53.5142 O.2       22 UNK        -0.5000 
    124 C124       -0.6866  -21.2076  -53.0367 C.3       23 UNK        -0.0398 
    125 S125        0.7881  -21.0567  -51.9742 S.3       23 UNK        -0.2404 
    126 C126        0.2179  -19.8178  -50.7555 C.3       23 UNK        -0.0205 
    127 H127       -3.1540  -12.8735  -52.8456 H         1 UNK         0.0600 
    128 H128       -2.5901  -14.5481  -52.8234 H         1 UNK         0.0600 
    129 H129       -1.9900  -13.4354  -54.0527 H         1 UNK         0.0600 
    130 H130       -1.5212  -14.6660  -50.8427 H         1 UNK         0.3000 
    131 H131        1.0591  -13.4524  -50.5510 H         1 UNK         0.0600 
    132 H132       -0.5694  -15.0749  -48.5269 H         1 UNK         0.0800 
    133 H133        0.3719  -15.7631  -49.8282 H         1 UNK         0.0800 
    134 H134        2.1346  -16.4849  -46.3003 H         1 UNK         0.0800 
    135 H135        0.4878  -16.5443  -46.8603 H         1 UNK         0.0800 
    136 H136       -0.0411  -17.8087  -49.0165 H         1 UNK         0.1150 
    137 H137        2.8207  -20.7636  -50.2283 H         1 UNK         0.1150 
    138 H138        3.8648  -17.8764  -47.2552 H         1 UNK         0.1150 
    139 H139        5.1171  -20.5636  -49.5128 H         1 UNK         0.0800 
    140 H140        5.6048  -19.2230  -48.5104 H         1 UNK         0.0800 
    141 H141        2.8758  -22.1142  -47.7146 H         1 UNK         0.0800 
    142 H142        4.1648  -22.7556  -48.7003 H         1 UNK         0.0800 
    143 H143        5.0364  -24.0783  -46.7900 H         1 UNK         0.0600 
    144 H144        2.9163  -22.7302  -45.2408 H         1 UNK         0.3000 
    145 H145        3.5852  -24.4857  -42.2857 H         1 UNK         0.0600 
    146 H146        3.9602  -22.2371  -41.2373 H         1 UNK         0.0600 
    147 H147        4.4981  -21.6066  -42.7939 H         1 UNK         0.0600 
    148 H148        5.4145  -22.8715  -41.9930 H         1 UNK         0.0600 
    149 H149        2.0143  -22.1477  -42.9278 H         1 UNK         0.3000 
    150 H150       -0.7572  -23.9037  -44.2975 H         1 UNK         0.0600 
    151 H151       -1.1259  -24.2151  -41.8406 H         1 UNK         0.0600 
    152 H152       -2.0281  -22.8409  -42.4596 H         1 UNK         0.0600 
    153 H153       -0.5465  -22.5805  -41.5404 H         1 UNK         0.0600 
    154 H154       -0.5723  -21.1917  -43.6382 H         1 UNK         0.3000 
    155 H155        1.3231  -20.0359  -46.4492 H         1 UNK         0.0600 
    156 H156       -0.8570  -19.9518  -47.3794 H         1 UNK         0.0600 
    157 H157       -0.8433  -18.5588  -46.3231 H         1 UNK         0.0600 
    158 H158       -1.6637  -20.0352  -45.8206 H         1 UNK         0.0600 
    159 H159        0.1439  -18.6591  -44.2515 H         1 UNK         0.3000 
    160 H160        2.8735  -18.8766  -41.9928 H         1 UNK         0.0600 
    161 H161        1.8826  -16.5618  -43.7429 H         1 UNK         0.0600 
    162 H162        3.5527  -17.0607  -43.5283 H         1 UNK         0.0600 
    163 H163        2.6601  -16.3914  -42.1703 H         1 UNK         0.0600 
    164 H164        0.2394  -17.6007  -42.1767 H         1 UNK         0.3000 
    165 H165       -1.4544  -20.1969  -40.4144 H         1 UNK         0.0600 
    166 H166       -2.0244  -18.3822  -38.8223 H         1 UNK         0.0600 
    167 H167       -0.3790  -18.9299  -38.5449 H         1 UNK         0.0600 
    168 H168       -0.6642  -17.4143  -39.3924 H         1 UNK         0.0600 
    169 H169       -2.2706  -17.5912  -41.2604 H         1 UNK         0.3000 
    170 H170       -2.8077  -18.2361  -44.6616 H         1 UNK         0.0600 
    171 H171       -4.8147  -19.4567  -43.7814 H         1 UNK         0.0600 
    172 H172       -5.0586  -18.1908  -42.5860 H         1 UNK         0.0600 
    173 H173       -5.2139  -17.8281  -44.3053 H         1 UNK         0.0600 
    174 H174       -3.7962  -16.1179  -43.1065 H         1 UNK         0.3000 
    175 H175       -2.6949  -14.0302  -43.4981 H         1 UNK         0.0600 
    176 H176       -1.1985  -14.8344  -40.9348 H         1 UNK         0.0600 
    177 H177       -2.0903  -13.3317  -41.1692 H         1 UNK         0.0600 
    178 H178       -2.9448  -14.8618  -41.1474 H         1 UNK         0.0600 
    179 H179       -0.0460  -13.4594  -42.6112 H         1 UNK         0.3000 
    180 H180        1.0428  -11.8808  -44.0018 H         1 UNK         0.0600 
    181 H181        2.2585  -13.9795  -43.5039 H         1 UNK         0.0600 
    182 H182        3.1989  -12.9965  -44.6128 H         1 UNK         0.0600 
    183 H183        2.3126  -14.3963  -45.2091 H         1 UNK         0.0600 
    184 H184        1.5394  -12.6497  -46.8088 H         1 UNK         0.3000 
    185 H185       -0.1617   -9.9057  -48.1693 H         1 UNK         0.0600 
    186 H186        1.9046   -8.6921  -47.4861 H         1 UNK         0.0600 
    187 H187        2.8863  -10.0960  -47.8870 H         1 UNK         0.0600 
    188 H188        2.0172   -9.2292  -49.1544 H         1 UNK         0.0600 
    189 H189        1.7525  -11.8715  -49.1351 H         1 UNK         0.3000 
    190 H190        2.1780  -25.0340  -45.5093 H         1 UNK         0.3000 
    191 H191        0.7326  -26.6455  -45.7753 H         1 UNK         0.0600 
    192 H192        1.1995  -28.6015  -47.1623 H         1 UNK         0.0600 
    193 H193        2.6999  -28.0597  -46.4308 H         1 UNK         0.0600 
    194 H194        2.3680  -27.7158  -48.1287 H         1 UNK         0.0600 
    195 H195        0.3721  -24.0668  -47.1968 H         1 UNK         0.3000 
    196 H196       -1.4376  -24.7108  -49.4370 H         1 UNK         0.0600 
    197 H197       -0.8429  -22.0872  -47.9812 H         1 UNK         0.0600 
    198 H198       -0.0469  -22.6211  -49.4575 H         1 UNK         0.0600 
    199 H199       -1.7711  -22.2499  -49.4533 H         1 UNK         0.0600 
    200 H200       -3.7059  -24.0663  -49.3378 H         1 UNK         0.3000 
    201 H201       -5.0092  -24.8979  -46.8568 H         1 UNK         0.0600 
    202 H202       -7.0759  -24.6756  -48.2395 H         1 UNK         0.0600 
    203 H203       -5.8624  -25.6572  -49.0454 H         1 UNK         0.0600 
    204 H204       -6.1335  -23.9954  -49.5597 H         1 UNK         0.0600 
    205 H205       -4.1576  -21.8308  -48.3522 H         1 UNK         0.3000 
    206 H206       -4.9788  -20.2630  -46.1451 H         1 UNK         0.0600 
    207 H207       -7.2729  -20.5213  -47.2082 H         1 UNK         0.0600 
    208 H208       -6.7112  -18.8702  -47.3166 H         1 UNK         0.0600 
    209 H209       -6.6301  -19.9137  -48.7291 H         1 UNK         0.0600 
    210 H210       -4.7713  -17.8258  -46.9354 H         1 UNK         0.3000 
    211 H211       -2.1393  -17.4114  -47.9171 H         1 UNK         0.0600 
    212 H212       -4.4556  -15.4700  -47.4215 H         1 UNK         0.0600 
    213 H213       -2.7857  -14.9915  -47.6828 H         1 UNK         0.0600 
    214 H214       -3.2059  -15.9291  -46.2630 H         1 UNK         0.0600 
    215 H215       -4.9952  -17.9004  -49.6490 H         1 UNK         0.3000 
    216 H216       -5.4327  -18.2184  -51.7556 H         1 UNK         0.0600 
    217 H217       -3.7174  -18.2328  -53.5136 H         1 UNK         0.0600 
    218 H218       -3.0472  -18.9308  -52.0494 H         1 UNK         0.0600 
    219 H219       -2.6183  -17.2889  -52.5301 H         1 UNK         0.0600 
    220 H220       -5.8791  -17.2966  -53.7815 H         1 UNK         0.3000 
    221 H221       -5.8813  -14.7028  -54.6771 H         1 UNK         0.0600 
    222 H222       -8.2794  -14.0090  -54.1183 H         1 UNK         0.0600 
    223 H223       -8.3317  -15.2659  -52.8874 H         1 UNK         0.0600 
    224 H224       -7.2086  -13.9178  -52.7349 H         1 UNK         0.0600 
    225 H225       -8.1376  -17.3277  -53.9117 H         1 UNK         0.3000 
    226 H226       -8.2133  -18.3656  -56.6879 H         1 UNK         0.0600 
    227 H227      -10.2586  -18.6379  -55.2327 H         1 UNK         0.0600 
    228 H228       -9.5488  -20.1918  -55.6338 H         1 UNK         0.0600 
    229 H229       -9.2928  -19.5002  -54.0364 H         1 UNK         0.0600 
    230 H230       -7.4657  -20.7669  -56.7316 H         1 UNK         0.3000 
    231 H231       -4.6713  -20.8131  -56.1635 H         1 UNK         0.0600 
    232 H232       -4.7410  -22.9251  -57.4516 H         1 UNK         0.0600 
    233 H233       -5.6852  -21.6853  -58.2541 H         1 UNK         0.0600 
    234 H234       -6.4979  -22.9612  -57.3467 H         1 UNK         0.0600 
    235 H235       -5.8020  -20.6701  -53.6619 H         1 UNK         0.3000 
    236 H236       -6.0208  -23.1639  -52.2627 H         1 UNK         0.0600 
    237 H237       -6.9200  -20.9206  -51.4716 H         1 UNK         0.0600 
    238 H238       -5.9658  -21.7559  -50.2586 H         1 UNK         0.0600 
    239 H239       -5.2591  -20.4168  -51.1412 H         1 UNK         0.0600 
    240 H240       -3.2767  -21.4020  -53.3892 H         1 UNK         0.3000 
    241 H241       -1.3374  -22.7304  -51.6559 H         1 UNK         0.0600 
    242 H242       -3.0989  -23.9346  -54.3200 H         1 UNK         0.3800 
    243 H243       -1.8965  -25.0920  -54.8227 H         1 UNK         0.3800 
    244 H244       -1.2544  -20.2811  -52.9499 H         1 UNK         0.0800 
    245 H245       -0.3629  -21.2387  -54.0787 H         1 UNK         0.0800 
    246 H246       -0.6352  -20.2180  -50.2071 H         1 UNK         0.0800 
    247 H247       -0.1520  -18.9490  -51.3025 H         1 UNK         0.0800 
@<TRIPOS>BOND
     1    1    2 1    
     2    1  127 1    
     3    1  128 1    
     4    1  129 1    
     5    2    3 2    
     6    2    4 am   BACKBONE|DICT|INTERRES
     7    4    5 1    
     8    4  130 1    
     9    5    6 1    
    10    5   65 1    
    11    5  131 1    
    12    6    7 1    
    13    6  132 1    
    14    6  133 1    
    15    7    8 1    
    16    8    9 1    
    17    8  134 1    
    18    8  135 1    
    19    9   10 ar   
    20    9   14 ar   
    21   10   11 ar   
    22   10  136 1    
    23   11   12 ar   
    24   11  126 1    
    25   12   13 ar   
    26   12  137 1    
    27   13   14 ar   
    28   13   15 1    
    29   14  138 1    
    30   15   16 1    
    31   15  139 1    
    32   15  140 1    
    33   16   17 1    
    34   17   18 1    
    35   17  141 1    
    36   17  142 1    
    37   18   19 1    
    38   18   67 1    
    39   18  143 1    
    40   19   20 am   BACKBONE|DICT|INTERRES
    41   19  144 1    
    42   20   21 2    
    43   20   22 1    
    44   22   23 1    
    45   22   24 1    
    46   22  145 1    
    47   23  146 1    
    48   23  147 1    
    49   23  148 1    
    50   24   25 am   BACKBONE|DICT|INTERRES
    51   24  149 1    
    52   25   26 2    
    53   25   27 1    
    54   27   28 1    
    55   27   29 1    
    56   27  150 1    
    57   28  151 1    
    58   28  152 1    
    59   28  153 1    
    60   29   30 am   BACKBONE|DICT|INTERRES
    61   29  154 1    
    62   30   31 2    
    63   30   32 1    
    64   32   33 1    
    65   32   34 1    
    66   32  155 1    
    67   33  156 1    
    68   33  157 1    
    69   33  158 1    
    70   34   35 am   BACKBONE|DICT|INTERRES
    71   34  159 1    
    72   35   36 2    
    73   35   37 1    
    74   37   38 1    
    75   37   39 1    
    76   37  160 1    
    77   38  161 1    
    78   38  162 1    
    79   38  163 1    
    80   39   40 am   BACKBONE|DICT|INTERRES
    81   39  164 1    
    82   40   41 2    
    83   40   42 1    
    84   42   43 1    
    85   42   44 1    
    86   42  165 1    
    87   43  166 1    
    88   43  167 1    
    89   43  168 1    
    90   44   45 am   BACKBONE|DICT|INTERRES
    91   44  169 1    
    92   45   46 2    
    93   45   47 1    
    94   47   48 1    
    95   47   49 1    
    96   47  170 1    
    97   48  171 1    
    98   48  172 1    
    99   48  173 1    
   100   49   50 am   BACKBONE|DICT|INTERRES
   101   49  174 1    
   102   50   51 2    
   103   50   52 1    
   104   52   53 1    
   105   52   54 1    
   106   52  175 1    
   107   53  176 1    
   108   53  177 1    
   109   53  178 1    
   110   54   55 am   BACKBONE|DICT|INTERRES
   111   54  179 1    
   112   55   56 2    
   113   55   57 1    
   114   57   58 1    
   115   57   59 1    
   116   57  180 1    
   117   58  181 1    
   118   58  182 1    
   119   58  183 1    
   120   59   60 am   BACKBONE|DICT|INTERRES
   121   59  184 1    
   122   60   61 2    
   123   60   62 1    
   124   62   63 1    
   125   62   64 1    
   126   62  185 1    
   127   63  186 1    
   128   63  187 1    
   129   63  188 1    
   130   64   65 am   BACKBONE|DICT|INTERRES
   131   64  189 1    
   132   65   66 2    
   133   67   68 2    
   134   67   69 am   BACKBONE|DICT|INTERRES
   135   69   70 1    
   136   69  190 1    
   137   70   71 1    
   138   70   72 1    
   139   70  191 1    
   140   71  192 1    
   141   71  193 1    
   142   71  194 1    
   143   72   73 2    
   144   72   74 am   BACKBONE|DICT|INTERRES
   145   74   75 1    
   146   74  195 1    
   147   75   76 1    
   148   75   77 1    
   149   75  196 1    
   150   76  197 1    
   151   76  198 1    
   152   76  199 1    
   153   77   78 2    
   154   77   79 am   BACKBONE|DICT|INTERRES
   155   79   80 1    
   156   79  200 1    
   157   80   81 1    
   158   80   82 1    
   159   80  201 1    
   160   81  202 1    
   161   81  203 1    
   162   81  204 1    
   163   82   83 2    
   164   82   84 am   BACKBONE|DICT|INTERRES
   165   84   85 1    
   166   84  205 1    
   167   85   86 1    
   168   85   87 1    
   169   85  206 1    
   170   86  207 1    
   171   86  208 1    
   172   86  209 1    
   173   87   88 2    
   174   87   89 am   BACKBONE|DICT|INTERRES
   175   89   90 1    
   176   89  210 1    
   177   90   91 1    
   178   90   92 1    
   179   90  211 1    
   180   91  212 1    
   181   91  213 1    
   182   91  214 1    
   183   92   93 2    
   184   92   94 am   BACKBONE|DICT|INTERRES
   185   94   95 1    
   186   94  215 1    
   187   95   96 1    
   188   95   97 1    
   189   95  216 1    
   190   96  217 1    
   191   96  218 1    
   192   96  219 1    
   193   97   98 2    
   194   97   99 am   BACKBONE|DICT|INTERRES
   195   99  100 1    
   196   99  220 1    
   197  100  101 1    
   198  100  102 1    
   199  100  221 1    
   200  101  222 1    
   201  101  223 1    
   202  101  224 1    
   203  102  103 2    
   204  102  104 am   BACKBONE|DICT|INTERRES
   205  104  105 1    
   206  104  225 1    
   207  105  106 1    
   208  105  107 1    
   209  105  226 1    
   210  106  227 1    
   211  106  228 1    
   212  106  229 1    
   213  107  108 2    
   214  107  109 am   BACKBONE|DICT|INTERRES
   215  109  110 1    
   216  109  230 1    
   217  110  111 1    
   218  110  112 1    
   219  110  231 1    
   220  111  232 1    
   221  111  233 1    
   222  111  234 1    
   223  112  113 2    
   224  112  114 am   BACKBONE|DICT|INTERRES
   225  114  115 1    
   226  114  235 1    
   227  115  116 1    
   228  115  117 1    
   229  115  236 1    
   230  116  237 1    
   231  116  238 1    
   232  116  239 1    
   233  117  118 2    
   234  117  119 am   BACKBONE|DICT|INTERRES
   235  119  120 1    
   236  119  240 1    
   237  120  121 1    
   238  120  124 1    
   239  120  241 1    
   240  121  122 am   BACKBONE|DICT|INTERRES
   241  121  123 2    
   242  122  242 1    
   243  122  243 1    
   244  124  125 1    
   245  124  244 1    
   246  124  245 1    
   247  125  126 1    
   248  126  246 1    
   249  126  247 1    
@<TRIPOS>SUBSTRUCTURE
     1 UNK         1 GROUP             0       ****    0 ROOT    
