@<TRIPOS>MOLECULE
3R540
247   249    1
SMALL
USER_CHARGES


@<TRIPOS>ATOM
      1 CA          1.2866  -18.3637  -52.8893 C.3       0 UNK        -0.1800 
      2 C           1.3474  -17.5128  -51.6303 C.2       0 UNK         0.5000 
      3 O           1.7860  -16.3643  -51.6910 O.2       0 UNK        -0.5000 
      4 N           0.9236  -18.0837  -50.4931 N.am      1 UNK        -0.5000 
      5 CA          0.9017  -17.4656  -49.1566 C.3       1 UNK         0.1400 
      6 C6         -0.0675  -16.2533  -49.0700 C.3       23 UNK        -0.0398 
      7 S7         -1.8026  -16.7979  -49.1819 S.3       23 UNK        -0.2404 
      8 C8         -2.6507  -15.4202  -48.3512 C.3       23 UNK        -0.0205 
      9 C9         -4.1482  -15.6694  -48.2604 C.ar      23 UNK        -0.0193 
     10 C10        -4.9268  -15.6841  -49.4209 C.ar      23 UNK        -0.1150 
     11 C11        -6.3029  -15.9214  -49.3544 C.ar      23 UNK        -0.0193 
     12 C12        -6.8982  -16.1530  -48.1115 C.ar      23 UNK        -0.1150 
     13 C13        -6.1313  -16.1414  -46.9424 C.ar      23 UNK        -0.0193 
     14 C14        -4.7586  -15.8864  -47.0216 C.ar      23 UNK        -0.1150 
     15 C15        -6.7930  -16.4080  -45.5988 C.3       23 UNK        -0.0205 
     16 S16        -6.6733  -18.1645  -45.1260 S.3       23 UNK        -0.2404 
     17 C17        -5.0112  -18.2405  -44.3759 C.3       23 UNK        -0.0398 
     18 CA         -3.9306  -18.8535  -45.3016 C.3       11 UNK         0.1400 
     19 N          -2.5876  -18.4248  -44.8994 N.am      11 UNK        -0.5000 
     20 C          -1.4624  -18.6449  -45.5925 C.2       10 UNK         0.5000 
     21 O          -1.4248  -19.2153  -46.6815 O.2       10 UNK        -0.5000 
     22 CA         -0.1442  -18.2134  -44.9245 C.3       10 UNK         0.1400 
     23 CB          0.0860  -16.7020  -45.0445 C.3       10 UNK        -0.1800 
     24 N          -0.0777  -18.5945  -43.5155 N.am      10 UNK        -0.5000 
     25 C          -0.0955  -19.8559  -43.0649 C.2       9 UNK         0.5000 
     26 O          -0.1125  -20.8443  -43.7964 O.2       9 UNK        -0.5000 
     27 CA         -0.1583  -20.0378  -41.5400 C.3       9 UNK         0.1400 
     28 CB          1.2372  -19.8932  -40.9122 C.3       9 UNK        -0.1800 
     29 N          -1.0891  -19.0949  -40.9164 N.am      9 UNK        -0.5000 
     30 C          -2.4182  -19.1115  -41.0990 C.2       8 UNK         0.5000 
     31 O          -3.0045  -19.9441  -41.7891 O.2       8 UNK        -0.5000 
     32 CA         -3.2222  -17.9771  -40.4392 C.3       8 UNK         0.1400 
     33 CB         -3.4922  -18.2917  -38.9604 C.3       8 UNK        -0.1800 
     34 N          -2.5524  -16.6809  -40.5468 N.am      8 UNK        -0.5000 
     35 C          -2.3288  -16.0343  -41.7000 C.2       7 UNK         0.5000 
     36 O          -2.6989  -16.4462  -42.7979 O.2       7 UNK        -0.5000 
     37 CA         -1.4972  -14.7419  -41.6145 C.3       7 UNK         0.1400 
     38 CB         -2.3939  -13.5401  -41.2832 C.3       7 UNK        -0.1800 
     39 N          -0.4178  -14.8371  -40.6283 N.am      7 UNK        -0.5000 
     40 C           0.6081  -15.6920  -40.7202 C.2       6 UNK         0.5000 
     41 O           0.7719  -16.4709  -41.6642 O.2       6 UNK        -0.5000 
     42 CA          1.5760  -15.7261  -39.5343 C.3       6 UNK         0.1400 
     43 CB          1.0378  -16.6465  -38.4226 C.3       6 UNK        -0.1800 
     44 N           2.8628  -16.2108  -40.0130 N.am      6 UNK        -0.5000 
     45 C           4.0365  -16.0539  -39.3944 C.2       5 UNK         0.5000 
     46 O           4.1658  -15.5139  -38.2946 O.2       5 UNK        -0.5000 
     47 CA          5.2826  -16.5787  -40.1317 C.3       5 UNK         0.1400 
     48 CB          5.5736  -18.0297  -39.7187 C.3       5 UNK        -0.1800 
     49 N           5.1941  -16.5143  -41.5929 N.am      5 UNK        -0.5000 
     50 C           5.0749  -15.4048  -42.3318 C.2       4 UNK         0.5000 
     51 O           4.9470  -14.2808  -41.8451 O.2       4 UNK        -0.5000 
     52 CA          5.1140  -15.5464  -43.8708 C.3       4 UNK         0.1400 
     53 CB          6.5050  -15.1609  -44.4088 C.3       4 UNK        -0.1800 
     54 N           4.6923  -16.8367  -44.4412 N.am      4 UNK        -0.5000 
     55 C           5.2317  -18.0565  -44.2887 C.2       3 UNK         0.5000 
     56 O           6.1366  -18.3230  -43.4982 O.2       3 UNK        -0.5000 
     57 CA          4.6637  -19.1721  -45.1865 C.3       3 UNK         0.1400 
     58 CB          3.4180  -19.7890  -44.5340 C.3       3 UNK        -0.1800 
     59 N           4.3404  -18.7235  -46.5467 N.am      3 UNK        -0.5000 
     60 C           5.2284  -18.2207  -47.4197 C.2       2 UNK         0.5000 
     61 O           6.4231  -18.0720  -47.1593 O.2       2 UNK        -0.5000 
     62 CA          4.7263  -17.8354  -48.8265 C.3       2 UNK         0.1400 
     63 CB          5.4661  -18.6407  -49.9081 C.3       2 UNK        -0.1800 
     64 N           3.2880  -18.0097  -49.0359 N.am      2 UNK        -0.5000 
     65 C           2.3294  -17.1614  -48.6390 C.2       1 UNK         0.5000 
     66 O           2.5429  -16.1977  -47.9025 O.2       1 UNK        -0.5000 
     67 C          -4.0553  -20.3902  -45.3901 C.2       11 UNK         0.5000 
     68 O          -4.6599  -20.8958  -46.3360 O.2       11 UNK        -0.5000 
     69 N          -3.4632  -21.1054  -44.4219 N.am      12 UNK        -0.5000 
     70 CA         -3.4069  -22.5671  -44.3911 C.3       12 UNK         0.1400 
     71 CB         -2.9157  -23.0364  -43.0132 C.3       12 UNK        -0.1800 
     72 C          -2.5322  -23.1557  -45.5135 C.2       12 UNK         0.5000 
     73 O          -2.9044  -24.1767  -46.0932 O.2       12 UNK        -0.5000 
     74 N          -1.3965  -22.5044  -45.8026 N.am      13 UNK        -0.5000 
     75 CA         -0.4887  -22.8609  -46.8924 C.3       13 UNK         0.1400 
     76 CB          0.8322  -22.0883  -46.7418 C.3       13 UNK        -0.1800 
     77 C          -1.1167  -22.6203  -48.2767 C.2       13 UNK         0.5000 
     78 O          -1.1008  -23.5274  -49.1092 O.2       13 UNK        -0.5000 
     79 N          -1.6723  -21.4149  -48.4734 N.am      14 UNK        -0.5000 
     80 CA         -2.3187  -20.9236  -49.6928 C.3       14 UNK         0.1400 
     81 CB         -3.6680  -21.6373  -49.9031 C.3       14 UNK        -0.1800 
     82 C          -1.3693  -20.9649  -50.9130 C.2       14 UNK         0.5000 
     83 O          -0.1873  -20.6477  -50.7537 O.2       14 UNK        -0.5000 
     84 N          -1.8743  -21.3129  -52.1059 N.am      15 UNK        -0.5000 
     85 CA         -1.0575  -21.5071  -53.3057 C.3       15 UNK         0.1400 
     86 CB         -1.9507  -21.4356  -54.5547 C.3       15 UNK        -0.1800 
     87 C          -0.3153  -22.8546  -53.2620 C.2       15 UNK         0.5000 
     88 O          -0.7638  -23.7867  -52.5921 O.2       15 UNK        -0.5000 
     89 N           0.7719  -22.9634  -54.0381 N.am      16 UNK        -0.5000 
     90 CA          1.6014  -24.1709  -54.1598 C.3       16 UNK         0.1400 
     91 CB          2.8255  -23.8491  -55.0305 C.3       16 UNK        -0.1800 
     92 C           0.8530  -25.4028  -54.7147 C.2       16 UNK         0.5000 
     93 O           1.2415  -26.5342  -54.4236 O.2       16 UNK        -0.5000 
     94 N          -0.2224  -25.1590  -55.4755 N.am      17 UNK        -0.5000 
     95 CA         -1.1457  -26.1700  -55.9947 C.3       17 UNK         0.1400 
     96 CB         -1.8335  -25.5917  -57.2434 C.3       17 UNK        -0.1800 
     97 C          -2.1995  -26.6338  -54.9627 C.2       17 UNK         0.5000 
     98 O          -3.0258  -27.4813  -55.3010 O.2       17 UNK        -0.5000 
     99 N          -2.1874  -26.0494  -53.7529 N.am      18 UNK        -0.5000 
    100 CA        -3.1482  -26.2111  -52.6509 C.3       18 UNK         0.1400 
    101 CB        -3.2823  -27.6839  -52.2104 C.3       18 UNK        -0.1800 
    102 C         -4.5133  -25.5375  -52.9133 C.2       18 UNK         0.5000 
    103 O         -5.4519  -25.7326  -52.1392 O.2       18 UNK        -0.5000 
    104 N         -4.5920  -24.7313  -53.9786 N.am      19 UNK        -0.5000 
    105 CA        -5.7017  -23.8340  -54.2874 C.3       19 UNK         0.1400 
    106 CB        -5.6728  -23.5394  -55.7963 C.3       19 UNK        -0.1800 
    107 C         -5.5801  -22.5283  -53.4804 C.2       19 UNK         0.5000 
    108 O         -4.5260  -22.2548  -52.9016 O.2       19 UNK        -0.5000 
    109 N         -6.6458  -21.7196  -53.4797 N.am      20 UNK        -0.5000 
    110 CA        -6.6398  -20.3765  -52.9024 C.3       20 UNK         0.1400 
    111 CB        -8.0810  -19.8504  -52.8120 C.3       20 UNK        -0.1800 
    112 C         -5.7656  -19.4276  -53.7427 C.2       20 UNK         0.5000 
    113 O         -6.0093  -19.2814  -54.9430 O.2       20 UNK        -0.5000 
    114 N         -4.7929  -18.7699  -53.0965 N.am      21 UNK        -0.5000 
    115 CA        -3.8697  -17.8125  -53.7226 C.3       21 UNK         0.1400 
    116 CB        -2.7622  -17.4604  -52.7184 C.3       21 UNK        -0.1800 
    117 C         -4.5583  -16.5352  -54.2502 C.2       21 UNK         0.5000 
    118 O         -3.9937  -15.8406  -55.0957 O.2       21 UNK        -0.5000 
    119 N         -5.7731  -16.2716  -53.7568 N.am      22 UNK        -0.5000 
    120 CA        -6.6891  -15.2213  -54.2218 C.3       22 UNK         0.1400 
    121 C         -7.3537  -15.5248  -55.5988 C.2       22 UNK         0.5000 
    122 N         -7.2609  -16.7348  -56.1420 N.am      22 UNK        -0.7600 
    123 O         -7.9647  -14.6391  -56.1903 O.2       22 UNK        -0.5000 
    124 C124       -7.7715  -14.9028  -53.1554 C.3       23 UNK        -0.0398 
    125 S125       -7.0651  -14.3962  -51.5493 S.3       23 UNK        -0.2404 
    126 C126       -7.1340  -15.9677  -50.6279 C.3       23 UNK        -0.0205 
    127 H127        1.5060  -19.4070  -52.6632 H         1 UNK         0.0600 
    128 H128        2.0181  -18.0195  -53.6205 H         1 UNK         0.0600 
    129 H129        0.2960  -18.3003  -53.3392 H         1 UNK         0.0600 
    130 H130        0.5612  -19.0362  -50.5352 H         1 UNK         0.3000 
    131 H131        0.5257  -18.2351  -48.4802 H         1 UNK         0.0600 
    132 H132        0.0567  -15.7045  -48.1388 H         1 UNK         0.0800 
    133 H133        0.1281  -15.5280  -49.8598 H         1 UNK         0.0800 
    134 H134       -2.2253  -15.2824  -47.3559 H         1 UNK         0.0800 
    135 H135       -2.4694  -14.4963  -48.9021 H         1 UNK         0.0800 
    136 H136       -4.4587  -15.5142  -50.3803 H         1 UNK         0.1150 
    137 H137       -7.9590  -16.3526  -48.0526 H         1 UNK         0.1150 
    138 H138       -4.1627  -15.8744  -46.1198 H         1 UNK         0.1150 
    139 H139       -6.3601  -15.7706  -44.8265 H         1 UNK         0.0800 
    140 H140       -7.8485  -16.1364  -45.6489 H         1 UNK         0.0800 
    141 H141       -5.0740  -18.7861  -43.4327 H         1 UNK         0.0800 
    142 H142       -4.7312  -17.2252  -44.0996 H         1 UNK         0.0800 
    143 H143       -4.0827  -18.4688  -46.3116 H         1 UNK         0.0600 
    144 H144       -2.5248  -17.9034  -44.0293 H         1 UNK         0.3000 
    145 H145        0.6644  -18.7216  -45.4518 H         1 UNK         0.0600 
    146 H146        1.0434  -16.4125  -44.6106 H         1 UNK         0.0600 
    147 H147       -0.6948  -16.1301  -44.5445 H         1 UNK         0.0600 
    148 H148        0.0977  -16.3952  -46.0861 H         1 UNK         0.0600 
    149 H149       -0.0128  -17.8378  -42.8412 H         1 UNK         0.3000 
    150 H150       -0.5171  -21.0494  -41.3393 H         1 UNK         0.0600 
    151 H151        1.9313  -20.6175  -41.3404 H         1 UNK         0.0600 
    152 H152        1.2068  -20.0704  -39.8372 H         1 UNK         0.0600 
    153 H153        1.6602  -18.9025  -41.0774 H         1 UNK         0.0600 
    154 H154       -0.6851  -18.3496  -40.3711 H         1 UNK         0.3000 
    155 H155       -4.1823  -17.9061  -40.9549 H         1 UNK         0.0600 
    156 H156       -4.0042  -19.2489  -38.8528 H         1 UNK         0.0600 
    157 H157       -4.1280  -17.5317  -38.5058 H         1 UNK         0.0600 
    158 H158       -2.5685  -18.3464  -38.3828 H         1 UNK         0.0600 
    159 H159       -2.2155  -16.2680  -39.6901 H         1 UNK         0.3000 
    160 H160       -1.0459  -14.5717  -42.5941 H         1 UNK         0.0600 
    161 H161       -2.8562  -13.6385  -40.3002 H         1 UNK         0.0600 
    162 H162       -3.1966  -13.4395  -42.0151 H         1 UNK         0.0600 
    163 H163       -1.8262  -12.6095  -41.2960 H         1 UNK         0.0600 
    164 H164       -0.4857  -14.2307  -39.8233 H         1 UNK         0.3000 
    165 H165        1.6950  -14.7104  -39.1513 H         1 UNK         0.0600 
    166 H166        1.6960  -16.6460  -37.5538 H         1 UNK         0.0600 
    167 H167        0.0556  -16.3191  -38.0799 H         1 UNK         0.0600 
    168 H168        0.9417  -17.6772  -38.7646 H         1 UNK         0.0600 
    169 H169        2.8353  -16.6292  -40.9343 H         1 UNK         0.3000 
    170 H170        6.1281  -15.9592  -39.8261 H         1 UNK         0.0600 
    171 H171        4.7732  -18.7030  -40.0286 H         1 UNK         0.0600 
    172 H172        6.5030  -18.3874  -40.1624 H         1 UNK         0.0600 
    173 H173        5.6761  -18.1163  -38.6362 H         1 UNK         0.0600 
    174 H174        5.3845  -17.3747  -42.0986 H         1 UNK         0.3000 
    175 H175        4.4017  -14.8150  -44.2559 H         1 UNK         0.0600 
    176 H176        7.2776  -15.8478  -44.0617 H         1 UNK         0.0600 
    177 H177        6.5204  -15.1639  -45.4989 H         1 UNK         0.0600 
    178 H178        6.7882  -14.1594  -44.0827 H         1 UNK         0.0600 
    179 H179        3.9380  -16.7659  -45.1097 H         1 UNK         0.3000 
    180 H180        5.4249  -19.9504  -45.2719 H         1 UNK         0.0600 
    181 H181        2.9789  -20.5657  -45.1595 H         1 UNK         0.0600 
    182 H182        2.6565  -19.0353  -44.3403 H         1 UNK         0.0600 
    183 H183        3.6678  -20.2470  -43.5761 H         1 UNK         0.0600 
    184 H184        3.3845  -18.8253  -46.8505 H         1 UNK         0.3000 
    185 H185        4.9675  -16.7799  -48.9695 H         1 UNK         0.0600 
    186 H186        6.5452  -18.4964  -49.8396 H         1 UNK         0.0600 
    187 H187        5.2714  -19.7099  -49.8164 H         1 UNK         0.0600 
    188 H188        5.1641  -18.3283  -50.9081 H         1 UNK         0.0600 
    189 H189        3.0152  -18.7806  -49.6286 H         1 UNK         0.3000 
    190 H190       -3.0386  -20.6194  -43.6379 H         1 UNK         0.3000 
    191 H191       -4.4224  -22.9436  -44.5315 H         1 UNK         0.0600 
    192 H192       -3.5780  -22.6898  -42.2197 H         1 UNK         0.0600 
    193 H193       -1.9127  -22.6690  -42.7958 H         1 UNK         0.0600 
    194 H194       -2.8856  -24.1253  -42.9593 H         1 UNK         0.0600 
    195 H195       -1.1264  -21.7133  -45.2259 H         1 UNK         0.3000 
    196 H196       -0.2646  -23.9264  -46.8080 H         1 UNK         0.0600 
    197 H197        1.3243  -22.3365  -45.8014 H         1 UNK         0.0600 
    198 H198        0.6765  -21.0096  -46.7623 H         1 UNK         0.0600 
    199 H199        1.5241  -22.3360  -47.5477 H         1 UNK         0.0600 
    200 H200       -1.5943  -20.7250  -47.7287 H         1 UNK         0.3000 
    201 H201       -2.5291  -19.8694  -49.5080 H         1 UNK         0.0600 
    202 H202       -4.2415  -21.6751  -48.9770 H         1 UNK         0.0600 
    203 H203       -3.5395  -22.6620  -50.2548 H         1 UNK         0.0600 
    204 H204       -4.2784  -21.1010  -50.6273 H         1 UNK         0.0600 
    205 H205       -2.8405  -21.6212  -52.1768 H         1 UNK         0.3000 
    206 H206       -0.3250  -20.7026  -53.3652 H         1 UNK         0.0600 
    207 H207       -2.5886  -22.3145  -54.6476 H         1 UNK         0.0600 
    208 H208       -2.5943  -20.5570  -54.5348 H         1 UNK         0.0600 
    209 H209       -1.3487  -21.3765  -55.4619 H         1 UNK         0.0600 
    210 H210        1.0703  -22.1639  -54.5781 H         1 UNK         0.3000 
    211 H211        1.9530  -24.4313  -53.1592 H         1 UNK         0.0600 
    212 H212        2.5350  -23.5524  -56.0390 H         1 UNK         0.0600 
    213 H213        3.4811  -24.7166  -55.1198 H         1 UNK         0.0600 
    214 H214        3.4166  -23.0413  -54.5985 H         1 UNK         0.0600 
    215 H215       -0.4523  -24.1964  -55.6720 H         1 UNK         0.3000 
    216 H216       -0.5751  -27.0511  -56.2956 H         1 UNK         0.0600 
    217 H217       -2.4934  -26.3267  -57.7062 H         1 UNK         0.0600 
    218 H218       -1.1017  -25.2990  -57.9967 H         1 UNK         0.0600 
    219 H219       -2.4367  -24.7154  -57.0025 H         1 UNK         0.0600 
    220 H220       -1.4732  -25.3516  -53.5664 H         1 UNK         0.3000 
    221 H221       -2.7146  -25.6654  -51.8114 H         1 UNK         0.0600 
    222 H222       -3.8157  -28.2845  -52.9472 H         1 UNK         0.0600 
    223 H223       -2.3050  -28.1380  -52.0471 H         1 UNK         0.0600 
    224 H224       -3.8345  -27.7595  -51.2732 H         1 UNK         0.0600 
    225 H225       -3.7541  -24.6064  -54.5237 H         1 UNK         0.3000 
    226 H226       -6.6465  -24.3193  -54.0339 H         1 UNK         0.0600 
    227 H227       -5.7370  -24.4589  -56.3786 H         1 UNK         0.0600 
    228 H228       -6.5132  -22.9107  -56.0927 H         1 UNK         0.0600 
    229 H229       -4.7581  -23.0214  -56.0886 H         1 UNK         0.0600 
    230 H230       -7.4672  -21.9819  -54.0045 H         1 UNK         0.3000 
    231 H231       -6.2386  -20.4359  -51.8888 H         1 UNK         0.0600 
    232 H232       -8.6984  -20.4985  -52.1898 H         1 UNK         0.0600 
    233 H233       -8.5498  -19.7836  -53.7948 H         1 UNK         0.0600 
    234 H234       -8.1072  -18.8546  -52.3680 H         1 UNK         0.0600 
    235 H235       -4.6548  -18.9416  -52.1118 H         1 UNK         0.3000 
    236 H236       -3.4079  -18.3027  -54.5816 H         1 UNK         0.0600 
    237 H237       -2.2163  -18.3480  -52.3994 H         1 UNK         0.0600 
    238 H238       -2.0357  -16.7754  -53.1573 H         1 UNK         0.0600 
    239 H239       -3.1706  -16.9788  -51.8304 H         1 UNK         0.0600 
    240 H240       -6.1436  -16.9074  -53.0703 H         1 UNK         0.3000 
    241 H241       -6.0963  -14.3165  -54.3690 H         1 UNK         0.0600 
    242 H242       -6.7638  -17.4876  -55.6804 H         1 UNK         0.3800 
    243 H243       -7.6956  -16.9056  -57.0349 H         1 UNK         0.3800 
    244 H244       -8.4346  -15.7575  -53.0099 H         1 UNK         0.0800 
    245 H245       -8.4080  -14.0851  -53.4984 H         1 UNK         0.0800 
    246 H246       -8.1767  -16.1989  -50.4043 H         1 UNK         0.0800 
    247 H247       -6.7629  -16.7844  -51.2456 H         1 UNK         0.0800 
@<TRIPOS>BOND
     1    1    2 1    
     2    1  127 1    
     3    1  128 1    
     4    1  129 1    
     5    2    3 2    
     6    2    4 am   BACKBONE|DICT|INTERRES
     7    4    5 1    
     8    4  130 1    
     9    5    6 1    
    10    5   65 1    
    11    5  131 1    
    12    6    7 1    
    13    6  132 1    
    14    6  133 1    
    15    7    8 1    
    16    8    9 1    
    17    8  134 1    
    18    8  135 1    
    19    9   10 ar   
    20    9   14 ar   
    21   10   11 ar   
    22   10  136 1    
    23   11   12 ar   
    24   11  126 1    
    25   12   13 ar   
    26   12  137 1    
    27   13   14 ar   
    28   13   15 1    
    29   14  138 1    
    30   15   16 1    
    31   15  139 1    
    32   15  140 1    
    33   16   17 1    
    34   17   18 1    
    35   17  141 1    
    36   17  142 1    
    37   18   19 1    
    38   18   67 1    
    39   18  143 1    
    40   19   20 am   BACKBONE|DICT|INTERRES
    41   19  144 1    
    42   20   21 2    
    43   20   22 1    
    44   22   23 1    
    45   22   24 1    
    46   22  145 1    
    47   23  146 1    
    48   23  147 1    
    49   23  148 1    
    50   24   25 am   BACKBONE|DICT|INTERRES
    51   24  149 1    
    52   25   26 2    
    53   25   27 1    
    54   27   28 1    
    55   27   29 1    
    56   27  150 1    
    57   28  151 1    
    58   28  152 1    
    59   28  153 1    
    60   29   30 am   BACKBONE|DICT|INTERRES
    61   29  154 1    
    62   30   31 2    
    63   30   32 1    
    64   32   33 1    
    65   32   34 1    
    66   32  155 1    
    67   33  156 1    
    68   33  157 1    
    69   33  158 1    
    70   34   35 am   BACKBONE|DICT|INTERRES
    71   34  159 1    
    72   35   36 2    
    73   35   37 1    
    74   37   38 1    
    75   37   39 1    
    76   37  160 1    
    77   38  161 1    
    78   38  162 1    
    79   38  163 1    
    80   39   40 am   BACKBONE|DICT|INTERRES
    81   39  164 1    
    82   40   41 2    
    83   40   42 1    
    84   42   43 1    
    85   42   44 1    
    86   42  165 1    
    87   43  166 1    
    88   43  167 1    
    89   43  168 1    
    90   44   45 am   BACKBONE|DICT|INTERRES
    91   44  169 1    
    92   45   46 2    
    93   45   47 1    
    94   47   48 1    
    95   47   49 1    
    96   47  170 1    
    97   48  171 1    
    98   48  172 1    
    99   48  173 1    
   100   49   50 am   BACKBONE|DICT|INTERRES
   101   49  174 1    
   102   50   51 2    
   103   50   52 1    
   104   52   53 1    
   105   52   54 1    
   106   52  175 1    
   107   53  176 1    
   108   53  177 1    
   109   53  178 1    
   110   54   55 am   BACKBONE|DICT|INTERRES
   111   54  179 1    
   112   55   56 2    
   113   55   57 1    
   114   57   58 1    
   115   57   59 1    
   116   57  180 1    
   117   58  181 1    
   118   58  182 1    
   119   58  183 1    
   120   59   60 am   BACKBONE|DICT|INTERRES
   121   59  184 1    
   122   60   61 2    
   123   60   62 1    
   124   62   63 1    
   125   62   64 1    
   126   62  185 1    
   127   63  186 1    
   128   63  187 1    
   129   63  188 1    
   130   64   65 am   BACKBONE|DICT|INTERRES
   131   64  189 1    
   132   65   66 2    
   133   67   68 2    
   134   67   69 am   BACKBONE|DICT|INTERRES
   135   69   70 1    
   136   69  190 1    
   137   70   71 1    
   138   70   72 1    
   139   70  191 1    
   140   71  192 1    
   141   71  193 1    
   142   71  194 1    
   143   72   73 2    
   144   72   74 am   BACKBONE|DICT|INTERRES
   145   74   75 1    
   146   74  195 1    
   147   75   76 1    
   148   75   77 1    
   149   75  196 1    
   150   76  197 1    
   151   76  198 1    
   152   76  199 1    
   153   77   78 2    
   154   77   79 am   BACKBONE|DICT|INTERRES
   155   79   80 1    
   156   79  200 1    
   157   80   81 1    
   158   80   82 1    
   159   80  201 1    
   160   81  202 1    
   161   81  203 1    
   162   81  204 1    
   163   82   83 2    
   164   82   84 am   BACKBONE|DICT|INTERRES
   165   84   85 1    
   166   84  205 1    
   167   85   86 1    
   168   85   87 1    
   169   85  206 1    
   170   86  207 1    
   171   86  208 1    
   172   86  209 1    
   173   87   88 2    
   174   87   89 am   BACKBONE|DICT|INTERRES
   175   89   90 1    
   176   89  210 1    
   177   90   91 1    
   178   90   92 1    
   179   90  211 1    
   180   91  212 1    
   181   91  213 1    
   182   91  214 1    
   183   92   93 2    
   184   92   94 am   BACKBONE|DICT|INTERRES
   185   94   95 1    
   186   94  215 1    
   187   95   96 1    
   188   95   97 1    
   189   95  216 1    
   190   96  217 1    
   191   96  218 1    
   192   96  219 1    
   193   97   98 2    
   194   97   99 am   BACKBONE|DICT|INTERRES
   195   99  100 1    
   196   99  220 1    
   197  100  101 1    
   198  100  102 1    
   199  100  221 1    
   200  101  222 1    
   201  101  223 1    
   202  101  224 1    
   203  102  103 2    
   204  102  104 am   BACKBONE|DICT|INTERRES
   205  104  105 1    
   206  104  225 1    
   207  105  106 1    
   208  105  107 1    
   209  105  226 1    
   210  106  227 1    
   211  106  228 1    
   212  106  229 1    
   213  107  108 2    
   214  107  109 am   BACKBONE|DICT|INTERRES
   215  109  110 1    
   216  109  230 1    
   217  110  111 1    
   218  110  112 1    
   219  110  231 1    
   220  111  232 1    
   221  111  233 1    
   222  111  234 1    
   223  112  113 2    
   224  112  114 am   BACKBONE|DICT|INTERRES
   225  114  115 1    
   226  114  235 1    
   227  115  116 1    
   228  115  117 1    
   229  115  236 1    
   230  116  237 1    
   231  116  238 1    
   232  116  239 1    
   233  117  118 2    
   234  117  119 am   BACKBONE|DICT|INTERRES
   235  119  120 1    
   236  119  240 1    
   237  120  121 1    
   238  120  124 1    
   239  120  241 1    
   240  121  122 am   BACKBONE|DICT|INTERRES
   241  121  123 2    
   242  122  242 1    
   243  122  243 1    
   244  124  125 1    
   245  124  244 1    
   246  124  245 1    
   247  125  126 1    
   248  126  246 1    
   249  126  247 1    
@<TRIPOS>SUBSTRUCTURE
     1 UNK         1 GROUP             0       ****    0 ROOT    
