@<TRIPOS>MOLECULE
3R540
247   249    1
SMALL
USER_CHARGES


@<TRIPOS>ATOM
      1 CA         -5.2089  -18.2653  -46.5044 C.3       0 UNK        -0.1800 
      2 C          -4.6031  -17.0371  -47.1706 C.2       0 UNK         0.5000 
      3 O          -5.2033  -16.4826  -48.0910 O.2       0 UNK        -0.5000 
      4 N          -3.4079  -16.6293  -46.7242 N.am      1 UNK        -0.5000 
      5 CA         -2.6607  -15.4735  -47.2362 C.3       1 UNK         0.1400 
      6 C6         -1.1895  -15.4715  -46.7450 C.3       23 UNK        -0.0398 
      7 S7         -0.2843  -16.9603  -47.2841 S.3       23 UNK        -0.2404 
      8 C8          0.5507  -16.3680  -48.7931 C.3       23 UNK        -0.0205 
      9 C9          0.8628  -17.5191  -49.7407 C.ar      23 UNK        -0.0193 
     10 C10         0.2200  -17.6154  -50.9778 C.ar      23 UNK        -0.1150 
     11 C11         0.4714  -18.6969  -51.8290 C.ar      23 UNK        -0.0193 
     12 C12         1.3714  -19.6905  -51.4326 C.ar      23 UNK        -0.1150 
     13 C13         2.0237  -19.6043  -50.2000 C.ar      23 UNK        -0.0193 
     14 C14         1.7808  -18.5048  -49.3724 C.ar      23 UNK        -0.1150 
     15 C15         2.9727  -20.7068  -49.7461 C.3       23 UNK        -0.0205 
     16 S16         2.1373  -22.3025  -49.4291 S.3       23 UNK        -0.2404 
     17 C17         0.6044  -21.8104  -48.5706 C.3       23 UNK        -0.0398 
     18 CA         -0.0943  -23.0016  -47.8735 C.3       11 UNK         0.1400 
     19 N           0.6667  -23.5268  -46.7336 N.am      11 UNK        -0.5000 
     20 C           0.4108  -24.6973  -46.1306 C.2       10 UNK         0.5000 
     21 O          -0.4937  -25.4582  -46.4725 O.2       10 UNK        -0.5000 
     22 CA          1.2815  -25.0577  -44.9133 C.3       10 UNK         0.1400 
     23 CB          2.6802  -25.5124  -45.3568 C.3       10 UNK        -0.1800 
     24 N           1.4051  -23.9535  -43.9612 N.am      10 UNK        -0.5000 
     25 C           0.3857  -23.4344  -43.2616 C.2       9 UNK         0.5000 
     26 O          -0.7681  -23.8533  -43.3228 O.2       9 UNK        -0.5000 
     27 CA          0.6920  -22.2074  -42.3829 C.3       9 UNK         0.1400 
     28 CB          1.1488  -22.6449  -40.9837 C.3       9 UNK        -0.1800 
     29 N           1.6911  -21.3043  -42.9571 N.am      9 UNK        -0.5000 
     30 C           1.6109  -20.7192  -44.1584 C.2       8 UNK         0.5000 
     31 O           0.6738  -20.8884  -44.9427 O.2       8 UNK        -0.5000 
     32 CA          2.7853  -19.7990  -44.5294 C.3       8 UNK         0.1400 
     33 CB          2.7270  -19.3375  -45.9895 C.3       8 UNK        -0.1800 
     34 N           2.8285  -18.6178  -43.6735 N.am      8 UNK        -0.5000 
     35 C           3.3975  -18.5515  -42.4644 C.2       7 UNK         0.5000 
     36 O           3.8661  -19.5374  -41.8910 O.2       7 UNK        -0.5000 
     37 CA          3.4419  -17.1669  -41.7771 C.3       7 UNK         0.1400 
     38 CB          4.7590  -16.9456  -41.0062 C.3       7 UNK        -0.1800 
     39 N           3.1738  -16.0217  -42.6602 N.am      7 UNK        -0.5000 
     40 C           3.8619  -15.6341  -43.7489 C.2       6 UNK         0.5000 
     41 O           4.8233  -16.2464  -44.2137 O.2       6 UNK        -0.5000 
     42 CA          3.3945  -14.3345  -44.4367 C.3       6 UNK         0.1400 
     43 CB          2.3442  -14.6502  -45.5138 C.3       6 UNK        -0.1800 
     44 N           2.8363  -13.3612  -43.4965 N.am      6 UNK        -0.5000 
     45 C           3.5257  -12.7709  -42.5074 C.2       5 UNK         0.5000 
     46 O           4.7446  -12.8809  -42.3689 O.2       5 UNK        -0.5000 
     47 CA          2.7286  -11.9364  -41.4827 C.3       5 UNK         0.1400 
     48 CB          2.9431  -10.4352  -41.7316 C.3       5 UNK        -0.1800 
     49 N           1.2882  -12.2043  -41.4651 N.am      5 UNK        -0.5000 
     50 C           0.6929  -13.3767  -41.1979 C.2       4 UNK         0.5000 
     51 O           1.3034  -14.4069  -40.9110 O.2       4 UNK        -0.5000 
     52 CA         -0.8433  -13.4123  -41.3216 C.3       4 UNK         0.1400 
     53 CB         -1.4962  -13.3097  -39.9351 C.3       4 UNK        -0.1800 
     54 N          -1.3804  -12.3539  -42.1846 N.am      4 UNK        -0.5000 
     55 C          -1.1877  -12.2789  -43.5077 C.2       3 UNK         0.5000 
     56 O          -0.5390  -13.1040  -44.1579 O.2       3 UNK        -0.5000 
     57 CA         -1.7754  -11.0513  -44.2123 C.3       3 UNK         0.1400 
     58 CB         -0.7364   -9.9213  -44.3005 C.3       3 UNK        -0.1800 
     59 N          -2.1778  -11.4535  -45.5518 N.am      3 UNK        -0.5000 
     60 C          -3.2763  -11.0384  -46.1906 C.2       2 UNK         0.5000 
     61 O          -4.0176  -10.1493  -45.7692 O.2       2 UNK        -0.5000 
     62 CA         -3.6222  -11.7444  -47.5184 C.3       2 UNK         0.1400 
     63 CB         -3.1670  -10.8907  -48.7122 C.3       2 UNK        -0.1800 
     64 N          -3.0586  -13.0930  -47.6577 N.am      2 UNK        -0.5000 
     65 C          -3.3562  -14.1422  -46.8770 C.2       1 UNK         0.5000 
     66 O          -4.1151  -14.0780  -45.9060 O.2       1 UNK        -0.5000 
     67 C          -1.5343  -22.6246  -47.4753 C.2       11 UNK         0.5000 
     68 O          -2.4466  -22.8000  -48.2850 O.2       11 UNK        -0.5000 
     69 N          -1.7196  -22.1344  -46.2420 N.am      12 UNK        -0.5000 
     70 CA         -3.0294  -21.8517  -45.6601 C.3       12 UNK         0.1400 
     71 CB         -2.8585  -21.0261  -44.3768 C.3       12 UNK        -0.1800 
     72 C          -3.8391  -23.1363  -45.4016 C.2       12 UNK         0.5000 
     73 O          -4.9990  -23.2063  -45.8069 O.2       12 UNK        -0.5000 
     74 N          -3.2101  -24.1400  -44.7715 N.am      13 UNK        -0.5000 
     75 CA         -3.8125  -25.4383  -44.4518 C.3       13 UNK         0.1400 
     76 CB         -2.8729  -26.2339  -43.5332 C.3       13 UNK        -0.1800 
     77 C          -4.1726  -26.2675  -45.6970 C.2       13 UNK         0.5000 
     78 O          -5.2237  -26.9088  -45.7158 O.2       13 UNK        -0.5000 
     79 N          -3.3142  -26.2164  -46.7247 N.am      14 UNK        -0.5000 
     80 CA         -3.5410  -26.8447  -48.0287 C.3       14 UNK         0.1400 
     81 CB         -2.2036  -26.9121  -48.7838 C.3       14 UNK        -0.1800 
     82 C          -4.5932  -26.1138  -48.8875 C.2       14 UNK         0.5000 
     83 O          -5.0291  -26.6665  -49.8973 O.2       14 UNK        -0.5000 
     84 N          -4.9422  -24.8773  -48.4990 N.am      15 UNK        -0.5000 
     85 CA         -5.8066  -23.9153  -49.1924 C.3       15 UNK         0.1400 
     86 CB         -7.2345  -24.4647  -49.3819 C.3       15 UNK        -0.1800 
     87 C          -5.2046  -23.3753  -50.5060 C.2       15 UNK         0.5000 
     88 O          -5.8962  -22.6795  -51.2493 O.2       15 UNK        -0.5000 
     89 N          -3.9141  -23.6450  -50.7468 N.am      16 UNK        -0.5000 
     90 CA         -3.1356  -23.1464  -51.8790 C.3       16 UNK         0.1400 
     91 CB         -1.7543  -23.8170  -51.8795 C.3       16 UNK        -0.1800 
     92 C          -2.9894  -21.6175  -51.8522 C.2       16 UNK         0.5000 
     93 O          -3.0143  -20.9874  -52.9093 O.2       16 UNK        -0.5000 
     94 N          -2.8879  -21.0512  -50.6412 N.am      17 UNK        -0.5000 
     95 CA         -2.8645  -19.6104  -50.4077 C.3       17 UNK         0.1400 
     96 CB         -2.4734  -19.3243  -48.9546 C.3       17 UNK        -0.1800 
     97 C          -4.1940  -18.9271  -50.7670 C.2       17 UNK         0.5000 
     98 O          -4.1812  -17.8687  -51.3946 O.2       17 UNK        -0.5000 
     99 N          -5.3110  -19.5680  -50.3963 N.am      18 UNK        -0.5000 
    100 CA        -6.6672  -19.1003  -50.6837 C.3       18 UNK         0.1400 
    101 CB        -7.6660  -19.8659  -49.8019 C.3       18 UNK        -0.1800 
    102 C         -7.0292  -19.2389  -52.1741 C.2       18 UNK         0.5000 
    103 O         -7.6691  -18.3472  -52.7321 O.2       18 UNK        -0.5000 
    104 N         -6.5925  -20.3434  -52.7946 N.am      19 UNK        -0.5000 
    105 CA        -6.7735  -20.6372  -54.2174 C.3       19 UNK         0.1400 
    106 CB        -6.5102  -22.1344  -54.4449 C.3       19 UNK        -0.1800 
    107 C         -5.8724  -19.7985  -55.1461 C.2       19 UNK         0.5000 
    108 O         -6.1404  -19.7471  -56.3471 O.2       19 UNK        -0.5000 
    109 N         -4.8149  -19.1907  -54.5860 N.am      20 UNK        -0.5000 
    110 CA        -3.7271  -18.4832  -55.2717 C.3       20 UNK         0.1400 
    111 CB        -4.2421  -17.2197  -55.9912 C.3       20 UNK        -0.1800 
    112 C         -2.9084  -19.4203  -56.1873 C.2       20 UNK         0.5000 
    113 O         -2.4584  -19.0148  -57.2602 O.2       20 UNK        -0.5000 
    114 N         -2.7277  -20.6662  -55.7343 N.am      21 UNK        -0.5000 
    115 CA        -2.0124  -21.7400  -56.4187 C.3       21 UNK         0.1400 
    116 CB        -2.8253  -23.0384  -56.2633 C.3       21 UNK        -0.1800 
    117 C         -0.5912  -21.8528  -55.8399 C.2       21 UNK         0.5000 
    118 O         -0.2051  -22.9051  -55.3279 O.2       21 UNK        -0.5000 
    119 N          0.1374  -20.7324  -55.8720 N.am      22 UNK        -0.5000 
    120 CA         1.4552  -20.5685  -55.2449 C.3       22 UNK         0.1400 
    121 C          2.5818  -21.3543  -55.9726 C.2       22 UNK         0.5000 
    122 N          3.6009  -21.8013  -55.2512 N.am      22 UNK        -0.7600 
    123 O          2.5644  -21.5252  -57.1899 O.2       22 UNK        -0.5000 
    124 C124        1.8427  -19.0717  -55.0877 C.3       23 UNK        -0.0398 
    125 S125        0.5255  -17.9363  -54.5086 S.3       23 UNK        -0.2404 
    126 C126       -0.2886  -18.8187  -53.1398 C.3       23 UNK        -0.0205 
    127 H127       -6.1491  -18.0033  -46.0193 H         1 UNK         0.0600 
    128 H128       -4.5431  -18.6888  -45.7522 H         1 UNK         0.0600 
    129 H129       -5.4120  -19.0345  -47.2494 H         1 UNK         0.0600 
    130 H130       -2.9693  -17.1209  -45.9598 H         1 UNK         0.3000 
    131 H131       -2.6529  -15.5511  -48.3259 H         1 UNK         0.0600 
    132 H132       -0.6523  -14.5890  -47.0967 H         1 UNK         0.0800 
    133 H133       -1.1528  -15.4284  -45.6548 H         1 UNK         0.0800 
    134 H134        1.4740  -15.8557  -48.5196 H         1 UNK         0.0800 
    135 H135       -0.0790  -15.6310  -49.2934 H         1 UNK         0.0800 
    136 H136       -0.4946  -16.8597  -51.2725 H         1 UNK         0.1150 
    137 H137        1.5485  -20.5477  -52.0638 H         1 UNK         0.1150 
    138 H138        2.2865  -18.4217  -48.4245 H         1 UNK         0.1150 
    139 H139        3.5106  -20.4051  -48.8473 H         1 UNK         0.0800 
    140 H140        3.7343  -20.8574  -50.5121 H         1 UNK         0.0800 
    141 H141       -0.0490  -21.3837  -49.3333 H         1 UNK         0.0800 
    142 H142        0.8145  -21.0118  -47.8574 H         1 UNK         0.0800 
    143 H143       -0.1815  -23.8083  -48.6048 H         1 UNK         0.0600 
    144 H144        1.3958  -22.9342  -46.3660 H         1 UNK         0.3000 
    145 H145        0.8008  -25.8923  -44.3983 H         1 UNK         0.0600 
    146 H146        2.6147  -26.3436  -46.0602 H         1 UNK         0.0600 
    147 H147        3.2712  -25.8538  -44.5068 H         1 UNK         0.0600 
    148 H148        3.2313  -24.7095  -45.8481 H         1 UNK         0.0600 
    149 H149        2.3203  -23.5431  -43.8508 H         1 UNK         0.3000 
    150 H150       -0.2351  -21.6411  -42.2767 H         1 UNK         0.0600 
    151 H151        2.0952  -23.1858  -41.0199 H         1 UNK         0.0600 
    152 H152        0.4117  -23.3018  -40.5196 H         1 UNK         0.0600 
    153 H153        1.2780  -21.7862  -40.3245 H         1 UNK         0.0600 
    154 H154        2.4844  -21.0655  -42.3724 H         1 UNK         0.3000 
    155 H155        3.7069  -20.3709  -44.4017 H         1 UNK         0.0600 
    156 H156        3.5845  -18.7140  -46.2436 H         1 UNK         0.0600 
    157 H157        1.8211  -18.7650  -46.1877 H         1 UNK         0.0600 
    158 H158        2.7343  -20.1947  -46.6615 H         1 UNK         0.0600 
    159 H159        2.4367  -17.7713  -44.0575 H         1 UNK         0.3000 
    160 H160        2.6320  -17.1733  -41.0464 H         1 UNK         0.0600 
    161 H161        5.6251  -16.9836  -41.6675 H         1 UNK         0.0600 
    162 H162        4.8997  -17.7071  -40.2383 H         1 UNK         0.0600 
    163 H163        4.7627  -15.9777  -40.5045 H         1 UNK         0.0600 
    164 H164        2.4194  -15.4215  -42.3440 H         1 UNK         0.3000 
    165 H165        4.2618  -13.8810  -44.9208 H         1 UNK         0.0600 
    166 H166        2.0524  -13.7519  -46.0580 H         1 UNK         0.0600 
    167 H167        2.7324  -15.3617  -46.2440 H         1 UNK         0.0600 
    168 H168        1.4423  -15.0847  -45.0807 H         1 UNK         0.0600 
    169 H169        1.8388  -13.2037  -43.5497 H         1 UNK         0.3000 
    170 H170        3.1209  -12.1820  -40.4939 H         1 UNK         0.0600 
    171 H171        2.4618   -9.8336  -40.9603 H         1 UNK         0.0600 
    172 H172        2.5420  -10.1274  -42.6983 H         1 UNK         0.0600 
    173 H173        4.0045  -10.1834  -41.7213 H         1 UNK         0.0600 
    174 H174        0.6914  -11.4232  -41.6912 H         1 UNK         0.3000 
    175 H175       -1.1136  -14.3762  -41.7581 H         1 UNK         0.0600 
    176 H176       -1.1379  -14.1009  -39.2750 H         1 UNK         0.0600 
    177 H177       -1.2744  -12.3559  -39.4546 H         1 UNK         0.0600 
    178 H178       -2.5798  -13.4099  -40.0006 H         1 UNK         0.0600 
    179 H179       -1.9218  -11.6350  -41.7256 H         1 UNK         0.3000 
    180 H180       -2.6437  -10.7066  -43.6464 H         1 UNK         0.0600 
    181 H181        0.1557  -10.2364  -44.8437 H         1 UNK         0.0600 
    182 H182       -0.4212   -9.5992  -43.3074 H         1 UNK         0.0600 
    183 H183       -1.1468   -9.0491  -44.8096 H         1 UNK         0.0600 
    184 H184       -1.6433  -12.2206  -45.9363 H         1 UNK         0.3000 
    185 H185       -4.7095  -11.8360  -47.5600 H         1 UNK         0.0600 
    186 H186       -3.4887  -11.3285  -49.6574 H         1 UNK         0.0600 
    187 H187       -3.5920   -9.8873  -48.6605 H         1 UNK         0.0600 
    188 H188       -2.0817  -10.7858  -48.7408 H         1 UNK         0.0600 
    189 H189       -2.4268  -13.2246  -48.4344 H         1 UNK         0.3000 
    190 H190       -0.9075  -21.9537  -45.6605 H         1 UNK         0.3000 
    191 H191       -3.5915  -21.2455  -46.3731 H         1 UNK         0.0600 
    192 H192       -2.3199  -20.0989  -44.5748 H         1 UNK         0.0600 
    193 H193       -3.8274  -20.7578  -43.9543 H         1 UNK         0.0600 
    194 H194       -2.3080  -21.5748  -43.6132 H         1 UNK         0.0600 
    195 H195       -2.2610  -23.9951  -44.4348 H         1 UNK         0.3000 
    196 H196       -4.7383  -25.2481  -43.9049 H         1 UNK         0.0600 
    197 H197       -3.2990  -27.2061  -43.2824 H         1 UNK         0.0600 
    198 H198       -2.6984  -25.7053  -42.5960 H         1 UNK         0.0600 
    199 H199       -1.9049  -26.4094  -44.0045 H         1 UNK         0.0600 
    200 H200       -2.4315  -25.7266  -46.6049 H         1 UNK         0.3000 
    201 H201       -3.8968  -27.8643  -47.8674 H         1 UNK         0.0600 
    202 H202       -2.3206  -27.4031  -49.7507 H         1 UNK         0.0600 
    203 H203       -1.4618  -27.4792  -48.2211 H         1 UNK         0.0600 
    204 H204       -1.7954  -25.9173  -48.9674 H         1 UNK         0.0600 
    205 H205       -4.5235  -24.5255  -47.6474 H         1 UNK         0.3000 
    206 H206       -5.8764  -23.0541  -48.5266 H         1 UNK         0.0600 
    207 H207       -7.6406  -24.8389  -48.4422 H         1 UNK         0.0600 
    208 H208       -7.9082  -23.6841  -49.7375 H         1 UNK         0.0600 
    209 H209       -7.2667  -25.2751  -50.1102 H         1 UNK         0.0600 
    210 H210       -3.4068  -24.1519  -50.0363 H         1 UNK         0.3000 
    211 H211       -3.6580  -23.4206  -52.7972 H         1 UNK         0.0600 
    212 H212       -1.1925  -23.5858  -50.9736 H         1 UNK         0.0600 
    213 H213       -1.1586  -23.4810  -52.7293 H         1 UNK         0.0600 
    214 H214       -1.8420  -24.9011  -51.9529 H         1 UNK         0.0600 
    215 H215       -2.8645  -21.6560  -49.8257 H         1 UNK         0.3000 
    216 H216       -2.0992  -19.1817  -51.0475 H         1 UNK         0.0600 
    217 H217       -2.4670  -18.2507  -48.7754 H         1 UNK         0.0600 
    218 H218       -1.4713  -19.6840  -48.7294 H         1 UNK         0.0600 
    219 H219       -3.1658  -19.7795  -48.2474 H         1 UNK         0.0600 
    220 H220       -5.2268  -20.4589  -49.9318 H         1 UNK         0.3000 
    221 H221       -6.7253  -18.0414  -50.4214 H         1 UNK         0.0600 
    222 H222       -7.6459  -20.9376  -50.0022 H         1 UNK         0.0600 
    223 H223       -7.4520  -19.7176  -48.7434 H         1 UNK         0.0600 
    224 H224       -8.6850  -19.5192  -49.9781 H         1 UNK         0.0600 
    225 H225       -6.1444  -21.0684  -52.2401 H         1 UNK         0.3000 
    226 H226       -7.8109  -20.4258  -54.4846 H         1 UNK         0.0600 
    227 H227       -6.6732  -22.4089  -55.4878 H         1 UNK         0.0600 
    228 H228       -5.4838  -22.4027  -54.1917 H         1 UNK         0.0600 
    229 H229       -7.1761  -22.7494  -53.8391 H         1 UNK         0.0600 
    230 H230       -4.6782  -19.3310  -53.5940 H         1 UNK         0.3000 
    231 H231       -3.0460  -18.1524  -54.4884 H         1 UNK         0.0600 
    232 H232       -4.8734  -17.4645  -56.8456 H         1 UNK         0.0600 
    233 H233       -3.4112  -16.6188  -56.3626 H         1 UNK         0.0600 
    234 H234       -4.8203  -16.5901  -55.3149 H         1 UNK         0.0600 
    235 H235       -3.0324  -20.8708  -54.7855 H         1 UNK         0.3000 
    236 H236       -1.9218  -21.5214  -57.4846 H         1 UNK         0.0600 
    237 H237       -2.9343  -23.3228  -55.2161 H         1 UNK         0.0600 
    238 H238       -3.8249  -22.9284  -56.6843 H         1 UNK         0.0600 
    239 H239       -2.3427  -23.8671  -56.7827 H         1 UNK         0.0600 
    240 H240       -0.2506  -19.9125  -56.3167 H         1 UNK         0.3000 
    241 H241        1.3757  -20.9994  -54.2471 H         1 UNK         0.0600 
    242 H242        4.3451  -22.2989  -55.7156 H         1 UNK         0.3800 
    243 H243        3.6471  -21.6690  -54.2529 H         1 UNK         0.3800 
    244 H244        2.1920  -18.6755  -56.0430 H         1 UNK         0.0800 
    245 H245        2.6866  -18.9791  -54.4022 H         1 UNK         0.0800 
    246 H246       -1.2775  -18.3788  -53.0157 H         1 UNK         0.0800 
    247 H247       -0.4704  -19.8646  -53.3825 H         1 UNK         0.0800 
@<TRIPOS>BOND
     1    1    2 1    
     2    1  127 1    
     3    1  128 1    
     4    1  129 1    
     5    2    3 2    
     6    2    4 am   BACKBONE|DICT|INTERRES
     7    4    5 1    
     8    4  130 1    
     9    5    6 1    
    10    5   65 1    
    11    5  131 1    
    12    6    7 1    
    13    6  132 1    
    14    6  133 1    
    15    7    8 1    
    16    8    9 1    
    17    8  134 1    
    18    8  135 1    
    19    9   10 ar   
    20    9   14 ar   
    21   10   11 ar   
    22   10  136 1    
    23   11   12 ar   
    24   11  126 1    
    25   12   13 ar   
    26   12  137 1    
    27   13   14 ar   
    28   13   15 1    
    29   14  138 1    
    30   15   16 1    
    31   15  139 1    
    32   15  140 1    
    33   16   17 1    
    34   17   18 1    
    35   17  141 1    
    36   17  142 1    
    37   18   19 1    
    38   18   67 1    
    39   18  143 1    
    40   19   20 am   BACKBONE|DICT|INTERRES
    41   19  144 1    
    42   20   21 2    
    43   20   22 1    
    44   22   23 1    
    45   22   24 1    
    46   22  145 1    
    47   23  146 1    
    48   23  147 1    
    49   23  148 1    
    50   24   25 am   BACKBONE|DICT|INTERRES
    51   24  149 1    
    52   25   26 2    
    53   25   27 1    
    54   27   28 1    
    55   27   29 1    
    56   27  150 1    
    57   28  151 1    
    58   28  152 1    
    59   28  153 1    
    60   29   30 am   BACKBONE|DICT|INTERRES
    61   29  154 1    
    62   30   31 2    
    63   30   32 1    
    64   32   33 1    
    65   32   34 1    
    66   32  155 1    
    67   33  156 1    
    68   33  157 1    
    69   33  158 1    
    70   34   35 am   BACKBONE|DICT|INTERRES
    71   34  159 1    
    72   35   36 2    
    73   35   37 1    
    74   37   38 1    
    75   37   39 1    
    76   37  160 1    
    77   38  161 1    
    78   38  162 1    
    79   38  163 1    
    80   39   40 am   BACKBONE|DICT|INTERRES
    81   39  164 1    
    82   40   41 2    
    83   40   42 1    
    84   42   43 1    
    85   42   44 1    
    86   42  165 1    
    87   43  166 1    
    88   43  167 1    
    89   43  168 1    
    90   44   45 am   BACKBONE|DICT|INTERRES
    91   44  169 1    
    92   45   46 2    
    93   45   47 1    
    94   47   48 1    
    95   47   49 1    
    96   47  170 1    
    97   48  171 1    
    98   48  172 1    
    99   48  173 1    
   100   49   50 am   BACKBONE|DICT|INTERRES
   101   49  174 1    
   102   50   51 2    
   103   50   52 1    
   104   52   53 1    
   105   52   54 1    
   106   52  175 1    
   107   53  176 1    
   108   53  177 1    
   109   53  178 1    
   110   54   55 am   BACKBONE|DICT|INTERRES
   111   54  179 1    
   112   55   56 2    
   113   55   57 1    
   114   57   58 1    
   115   57   59 1    
   116   57  180 1    
   117   58  181 1    
   118   58  182 1    
   119   58  183 1    
   120   59   60 am   BACKBONE|DICT|INTERRES
   121   59  184 1    
   122   60   61 2    
   123   60   62 1    
   124   62   63 1    
   125   62   64 1    
   126   62  185 1    
   127   63  186 1    
   128   63  187 1    
   129   63  188 1    
   130   64   65 am   BACKBONE|DICT|INTERRES
   131   64  189 1    
   132   65   66 2    
   133   67   68 2    
   134   67   69 am   BACKBONE|DICT|INTERRES
   135   69   70 1    
   136   69  190 1    
   137   70   71 1    
   138   70   72 1    
   139   70  191 1    
   140   71  192 1    
   141   71  193 1    
   142   71  194 1    
   143   72   73 2    
   144   72   74 am   BACKBONE|DICT|INTERRES
   145   74   75 1    
   146   74  195 1    
   147   75   76 1    
   148   75   77 1    
   149   75  196 1    
   150   76  197 1    
   151   76  198 1    
   152   76  199 1    
   153   77   78 2    
   154   77   79 am   BACKBONE|DICT|INTERRES
   155   79   80 1    
   156   79  200 1    
   157   80   81 1    
   158   80   82 1    
   159   80  201 1    
   160   81  202 1    
   161   81  203 1    
   162   81  204 1    
   163   82   83 2    
   164   82   84 am   BACKBONE|DICT|INTERRES
   165   84   85 1    
   166   84  205 1    
   167   85   86 1    
   168   85   87 1    
   169   85  206 1    
   170   86  207 1    
   171   86  208 1    
   172   86  209 1    
   173   87   88 2    
   174   87   89 am   BACKBONE|DICT|INTERRES
   175   89   90 1    
   176   89  210 1    
   177   90   91 1    
   178   90   92 1    
   179   90  211 1    
   180   91  212 1    
   181   91  213 1    
   182   91  214 1    
   183   92   93 2    
   184   92   94 am   BACKBONE|DICT|INTERRES
   185   94   95 1    
   186   94  215 1    
   187   95   96 1    
   188   95   97 1    
   189   95  216 1    
   190   96  217 1    
   191   96  218 1    
   192   96  219 1    
   193   97   98 2    
   194   97   99 am   BACKBONE|DICT|INTERRES
   195   99  100 1    
   196   99  220 1    
   197  100  101 1    
   198  100  102 1    
   199  100  221 1    
   200  101  222 1    
   201  101  223 1    
   202  101  224 1    
   203  102  103 2    
   204  102  104 am   BACKBONE|DICT|INTERRES
   205  104  105 1    
   206  104  225 1    
   207  105  106 1    
   208  105  107 1    
   209  105  226 1    
   210  106  227 1    
   211  106  228 1    
   212  106  229 1    
   213  107  108 2    
   214  107  109 am   BACKBONE|DICT|INTERRES
   215  109  110 1    
   216  109  230 1    
   217  110  111 1    
   218  110  112 1    
   219  110  231 1    
   220  111  232 1    
   221  111  233 1    
   222  111  234 1    
   223  112  113 2    
   224  112  114 am   BACKBONE|DICT|INTERRES
   225  114  115 1    
   226  114  235 1    
   227  115  116 1    
   228  115  117 1    
   229  115  236 1    
   230  116  237 1    
   231  116  238 1    
   232  116  239 1    
   233  117  118 2    
   234  117  119 am   BACKBONE|DICT|INTERRES
   235  119  120 1    
   236  119  240 1    
   237  120  121 1    
   238  120  124 1    
   239  120  241 1    
   240  121  122 am   BACKBONE|DICT|INTERRES
   241  121  123 2    
   242  122  242 1    
   243  122  243 1    
   244  124  125 1    
   245  124  244 1    
   246  124  245 1    
   247  125  126 1    
   248  126  246 1    
   249  126  247 1    
@<TRIPOS>SUBSTRUCTURE
     1 UNK         1 GROUP             0       ****    0 ROOT    
