@<TRIPOS>MOLECULE
3R540
247   249    1
SMALL
USER_CHARGES


@<TRIPOS>ATOM
      1 CA          4.8739   -8.9460  -47.0679 C.3       0 UNK        -0.1800 
      2 C           3.8478  -10.0009  -47.4525 C.2       0 UNK         0.5000 
      3 O           2.7255   -9.6540  -47.8206 O.2       0 UNK        -0.5000 
      4 N           4.2312  -11.2838  -47.3858 N.am      1 UNK        -0.5000 
      5 CA          3.3932  -12.4592  -47.6671 C.3       1 UNK         0.1400 
      6 C6          4.1859  -13.7801  -47.5013 C.3       23 UNK        -0.0398 
      7 S7          4.2839  -14.3183  -45.7621 S.3       23 UNK        -0.2404 
      8 C8          2.6857  -15.1726  -45.5377 C.3       23 UNK        -0.0205 
      9 C9          2.5390  -16.4003  -46.4268 C.ar      23 UNK        -0.0193 
     10 C10         1.8409  -16.3153  -47.6351 C.ar      23 UNK        -0.1150 
     11 C11         1.7372  -17.4263  -48.4759 C.ar      23 UNK        -0.0193 
     12 C12         2.3036  -18.6421  -48.0837 C.ar      23 UNK        -0.1150 
     13 C13         2.9936  -18.7436  -46.8730 C.ar      23 UNK        -0.0193 
     14 C14         3.1080  -17.6195  -46.0485 C.ar      23 UNK        -0.1150 
     15 C15         3.6537  -20.0533  -46.4725 C.3       23 UNK        -0.0205 
     16 S16         2.7097  -20.9144  -45.1822 S.3       23 UNK        -0.2404 
     17 C17         1.3582  -21.7023  -46.1281 C.3       23 UNK        -0.0398 
     18 CA          1.3853  -23.2517  -46.0535 C.3       11 UNK         0.1400 
     19 N           1.5542  -23.7431  -44.6823 N.am      11 UNK        -0.5000 
     20 C           2.0401  -24.9424  -44.3414 C.2       10 UNK         0.5000 
     21 O           2.4364  -25.7730  -45.1576 O.2       10 UNK        -0.5000 
     22 CA          2.0836  -25.2734  -42.8362 C.3       10 UNK         0.1400 
     23 CB          3.4604  -24.9220  -42.2527 C.3       10 UNK        -0.1800 
     24 N           1.0498  -24.5759  -42.0675 N.am      10 UNK        -0.5000 
     25 C          -0.2562  -24.8760  -42.1026 C.2       9 UNK         0.5000 
     26 O          -0.7240  -25.8155  -42.7454 O.2       9 UNK        -0.5000 
     27 CA         -1.2028  -23.9385  -41.3230 C.3       9 UNK         0.1400 
     28 CB         -1.3586  -24.4182  -39.8722 C.3       9 UNK        -0.1800 
     29 N          -0.7870  -22.5294  -41.3249 N.am      9 UNK        -0.5000 
     30 C          -0.6085  -21.7869  -42.4259 C.2       8 UNK         0.5000 
     31 O          -0.7523  -22.2321  -43.5661 O.2       8 UNK        -0.5000 
     32 CA         -0.1363  -20.3351  -42.2185 C.3       8 UNK         0.1400 
     33 CB          1.2779  -20.3047  -41.6146 C.3       8 UNK        -0.1800 
     34 N          -0.1129  -19.5983  -43.4826 N.am      8 UNK        -0.5000 
     35 C          -1.1883  -19.0821  -44.0889 C.2       7 UNK         0.5000 
     36 O          -2.3210  -19.0825  -43.6004 O.2       7 UNK        -0.5000 
     37 CA         -0.9555  -18.4525  -45.4779 C.3       7 UNK         0.1400 
     38 CB         -1.7295  -19.2234  -46.5615 C.3       7 UNK        -0.1800 
     39 N          -1.3510  -17.0442  -45.5191 N.am      7 UNK        -0.5000 
     40 C          -0.8602  -16.0760  -44.7354 C.2       6 UNK         0.5000 
     41 O           0.0434  -16.2518  -43.9166 O.2       6 UNK        -0.5000 
     42 CA         -1.4757  -14.6744  -44.9129 C.3       6 UNK         0.1400 
     43 CB         -0.9199  -13.6478  -43.9085 C.3       6 UNK        -0.1800 
     44 N          -1.2704  -14.1513  -46.2613 N.am      6 UNK        -0.5000 
     45 C          -2.0240  -14.4247  -47.3342 C.2       5 UNK         0.5000 
     46 O          -2.9392  -15.2505  -47.3243 O.2       5 UNK        -0.5000 
     47 CA         -1.7013  -13.6198  -48.6156 C.3       5 UNK         0.1400 
     48 CB         -2.8876  -13.5514  -49.5981 C.3       5 UNK        -0.1800 
     49 N          -1.1704  -12.2782  -48.3373 N.am      5 UNK        -0.5000 
     50 C          -1.7755  -11.2942  -47.6524 C.2       4 UNK         0.5000 
     51 O          -2.9254  -11.3598  -47.2169 O.2       4 UNK        -0.5000 
     52 CA         -0.9408  -10.0335  -47.3691 C.3       4 UNK         0.1400 
     53 CB         -0.1116  -10.2237  -46.0887 C.3       4 UNK        -0.1800 
     54 N          -0.0466   -9.6638  -48.4648 N.am      4 UNK        -0.5000 
     55 C          -0.4479   -9.1405  -49.6314 C.2       3 UNK         0.5000 
     56 O          -1.6283   -8.9629  -49.9342 O.2       3 UNK        -0.5000 
     57 CA          0.6569   -8.7355  -50.6202 C.3       3 UNK         0.1400 
     58 CB          1.2746   -7.3863  -50.2191 C.3       3 UNK        -0.1800 
     59 N           1.7092   -9.7474  -50.6796 N.am      3 UNK        -0.5000 
     60 C           1.7444  -10.7513  -51.5658 C.2       2 UNK         0.5000 
     61 O           0.9162  -10.9005  -52.4650 O.2       2 UNK        -0.5000 
     62 CA          2.8988  -11.7647  -51.4318 C.3       2 UNK         0.1400 
     63 CB          4.0624  -11.3785  -52.3577 C.3       2 UNK        -0.1800 
     64 N           3.4050  -11.9028  -50.0648 N.am      2 UNK        -0.5000 
     65 C           2.7072  -12.4259  -49.0478 C.2       1 UNK         0.5000 
     66 O           1.5555  -12.8476  -49.1525 O.2       1 UNK        -0.5000 
     67 C           0.0989  -23.8493  -46.6585 C.2       11 UNK         0.5000 
     68 O           0.0982  -24.3032  -47.8024 O.2       11 UNK        -0.5000 
     69 N          -0.9627  -23.8884  -45.8408 N.am      12 UNK        -0.5000 
     70 CA         -2.2764  -24.4587  -46.1375 C.3       12 UNK         0.1400 
     71 CB         -3.2508  -24.0333  -45.0281 C.3       12 UNK        -0.1800 
     72 C          -2.2870  -25.9906  -46.3160 C.2       12 UNK         0.5000 
     73 O          -3.2926  -26.5346  -46.7707 O.2       12 UNK        -0.5000 
     74 N          -1.1743  -26.6606  -45.9871 N.am      13 UNK        -0.5000 
     75 CA         -0.9394  -28.0825  -46.2452 C.3       13 UNK         0.1400 
     76 CB          0.2875  -28.5354  -45.4390 C.3       13 UNK        -0.1800 
     77 C          -0.7626  -28.4152  -47.7444 C.2       13 UNK         0.5000 
     78 O          -0.7978  -29.5938  -48.1022 O.2       13 UNK        -0.5000 
     79 N          -0.5691  -27.3887  -48.5868 N.am      14 UNK        -0.5000 
     80 CA         -0.5321  -27.4741  -50.0454 C.3       14 UNK         0.1400 
     81 CB          0.3225  -26.3064  -50.5804 C.3       14 UNK        -0.1800 
     82 C          -1.9589  -27.5295  -50.6462 C.2       14 UNK         0.5000 
     83 O          -2.8194  -28.2491  -50.1347 O.2       14 UNK        -0.5000 
     84 N          -2.1845  -26.8005  -51.7468 N.am      15 UNK        -0.5000 
     85 CA         -3.4617  -26.7182  -52.4560 C.3       15 UNK         0.1400 
     86 CB         -3.2223  -26.0264  -53.8081 C.3       15 UNK        -0.1800 
     87 C          -4.5388  -25.9577  -51.6598 C.2       15 UNK         0.5000 
     88 O          -4.2135  -25.1064  -50.8290 O.2       15 UNK        -0.5000 
     89 N          -5.8110  -26.2193  -51.9877 N.am      16 UNK        -0.5000 
     90 CA         -6.9709  -25.5273  -51.4171 C.3       16 UNK         0.1400 
     91 CB         -8.2614  -26.2000  -51.9076 C.3       16 UNK        -0.1800 
     92 C          -6.9882  -24.0204  -51.7373 C.2       16 UNK         0.5000 
     93 O          -7.3579  -23.2217  -50.8788 O.2       16 UNK        -0.5000 
     94 N          -6.5369  -23.6534  -52.9455 N.am      17 UNK        -0.5000 
     95 CA         -6.3632  -22.2637  -53.3738 C.3       17 UNK         0.1400 
     96 CB         -6.0973  -22.2273  -54.8857 C.3       17 UNK        -0.1800 
     97 C          -5.2324  -21.5473  -52.6126 C.2       17 UNK         0.5000 
     98 O          -5.3485  -20.3516  -52.3300 O.2       17 UNK        -0.5000 
     99 N          -4.1692  -22.2944  -52.2766 N.am      18 UNK        -0.5000 
    100 CA        -3.0464  -21.8117  -51.4749 C.3       18 UNK         0.1400 
    101 CB        -1.8596  -22.7851  -51.5529 C.3       18 UNK        -0.1800 
    102 C         -3.4697  -21.5485  -50.0219 C.2       18 UNK         0.5000 
    103 O         -3.1554  -20.4884  -49.4814 O.2       18 UNK        -0.5000 
    104 N         -4.2313  -22.4934  -49.4528 N.am      19 UNK        -0.5000 
    105 CA        -4.8575  -22.3893  -48.1358 C.3       19 UNK         0.1400 
    106 CB        -5.5494  -23.7204  -47.8022 C.3       19 UNK        -0.1800 
    107 C         -5.8616  -21.2276  -48.0309 C.2       19 UNK         0.5000 
    108 O         -5.9115  -20.5668  -46.9934 O.2       19 UNK        -0.5000 
    109 N         -6.6401  -21.0078  -49.0998 N.am      20 UNK        -0.5000 
    110 CA        -7.6370  -19.9462  -49.1980 C.3       20 UNK         0.1400 
    111 CB        -8.5190  -20.1642  -50.4381 C.3       20 UNK        -0.1800 
    112 C         -7.0131  -18.5409  -49.2003 C.2       20 UNK         0.5000 
    113 O         -7.3524  -17.7372  -48.3301 O.2       20 UNK        -0.5000 
    114 N         -6.1328  -18.2615  -50.1726 N.am      21 UNK        -0.5000 
    115 CA        -5.5564  -16.9305  -50.3790 C.3       21 UNK         0.1400 
    116 CB        -6.6350  -15.9464  -50.8918 C.3       21 UNK        -0.1800 
    117 C         -4.3250  -16.9700  -51.3005 C.2       21 UNK         0.5000 
    118 O         -4.1869  -16.0978  -52.1606 O.2       21 UNK        -0.5000 
    119 N         -3.4397  -17.9584  -51.1103 N.am      22 UNK        -0.5000 
    120 CA        -2.1506  -18.0748  -51.8241 C.3       22 UNK         0.1400 
    121 C         -2.2699  -18.3162  -53.3632 C.2       22 UNK         0.5000 
    122 N         -3.3774  -18.8515  -53.8611 N.am      22 UNK        -0.7600 
    123 O         -1.3395  -18.0478  -54.1185 O.2       22 UNK        -0.5000 
    124 C124       -1.1676  -16.9259  -51.4633 C.3       23 UNK        -0.0398 
    125 S125       -0.7093  -16.9744  -49.6985 S.3       23 UNK        -0.2404 
    126 C126        1.0721  -17.2940  -49.8353 C.3       23 UNK        -0.0205 
    127 H127        4.5042   -8.3535  -46.2312 H         1 UNK         0.0600 
    128 H128        5.0542   -8.2758  -47.9083 H         1 UNK         0.0600 
    129 H129        5.8251   -9.3919  -46.7764 H         1 UNK         0.0600 
    130 H130        5.1676  -11.4911  -47.0685 H         1 UNK         0.3000 
    131 H131        2.5818  -12.4424  -46.9372 H         1 UNK         0.0600 
    132 H132        3.7687  -14.5933  -48.0936 H         1 UNK         0.0800 
    133 H133        5.2021  -13.6624  -47.8808 H         1 UNK         0.0800 
    134 H134        2.5962  -15.4723  -44.4925 H         1 UNK         0.0800 
    135 H135        1.8691  -14.4734  -45.7196 H         1 UNK         0.0800 
    136 H136        1.4024  -15.3755  -47.9404 H         1 UNK         0.1150 
    137 H137        2.2316  -19.5026  -48.7338 H         1 UNK         0.1150 
    138 H138        3.6511  -17.6908  -45.1165 H         1 UNK         0.1150 
    139 H139        3.7882  -20.7086  -47.3345 H         1 UNK         0.0800 
    140 H140        4.6548  -19.8454  -46.0920 H         1 UNK         0.0800 
    141 H141        1.3936  -21.3767  -47.1686 H         1 UNK         0.0800 
    142 H142        0.4227  -21.3155  -45.7274 H         1 UNK         0.0800 
    143 H143        2.2302  -23.6003  -46.6514 H         1 UNK         0.0600 
    144 H144        1.2060  -23.1355  -43.9543 H         1 UNK         0.3000 
    145 H145        1.9295  -26.3493  -42.7286 H         1 UNK         0.0600 
    146 H146        3.5297  -25.2098  -41.2035 H         1 UNK         0.0600 
    147 H147        4.2553  -25.4457  -42.7854 H         1 UNK         0.0600 
    148 H148        3.6670  -23.8532  -42.3233 H         1 UNK         0.0600 
    149 H149        1.3486  -23.7928  -41.5053 H         1 UNK         0.3000 
    150 H150       -2.1818  -23.9907  -41.8027 H         1 UNK         0.0600 
    151 H151       -0.4182  -24.3540  -39.3233 H         1 UNK         0.0600 
    152 H152       -1.6888  -25.4573  -39.8376 H         1 UNK         0.0600 
    153 H153       -2.1013  -23.8255  -39.3379 H         1 UNK         0.0600 
    154 H154       -0.6420  -22.1050  -40.4201 H         1 UNK         0.3000 
    155 H155       -0.8261  -19.8426  -41.5302 H         1 UNK         0.0600 
    156 H156        1.9943  -20.8484  -42.2313 H         1 UNK         0.0600 
    157 H157        1.2953  -20.7533  -40.6208 H         1 UNK         0.0600 
    158 H158        1.6384  -19.2812  -41.5089 H         1 UNK         0.0600 
    159 H159        0.7784  -19.5644  -43.9565 H         1 UNK         0.3000 
    160 H160        0.1087  -18.5046  -45.7174 H         1 UNK         0.0600 
    161 H161       -2.8081  -19.1088  -46.4456 H         1 UNK         0.0600 
    162 H162       -1.5143  -20.2913  -46.5248 H         1 UNK         0.0600 
    163 H163       -1.4638  -18.8767  -47.5594 H         1 UNK         0.0600 
    164 H164       -2.0738  -16.7907  -46.1831 H         1 UNK         0.3000 
    165 H165       -2.5480  -14.7677  -44.7279 H         1 UNK         0.0600 
    166 H166       -1.0751  -13.9813  -42.8817 H         1 UNK         0.0600 
    167 H167        0.1501  -13.4858  -44.0439 H         1 UNK         0.0600 
    168 H168       -1.4205  -12.6850  -44.0132 H         1 UNK         0.0600 
    169 H169       -0.5294  -13.4766  -46.3701 H         1 UNK         0.3000 
    170 H170       -0.8936  -14.1543  -49.1147 H         1 UNK         0.0600 
    171 H171       -3.1864  -14.5507  -49.9141 H         1 UNK         0.0600 
    172 H172       -3.7602  -13.0758  -49.1500 H         1 UNK         0.0600 
    173 H173       -2.6235  -12.9943  -50.4969 H         1 UNK         0.0600 
    174 H174       -0.2143  -12.1341  -48.6490 H         1 UNK         0.3000 
    175 H175       -1.6346   -9.2065  -47.2033 H         1 UNK         0.0600 
    176 H176        0.4299   -9.3130  -45.8320 H         1 UNK         0.0600 
    177 H177       -0.7511  -10.4712  -45.2406 H         1 UNK         0.0600 
    178 H178        0.6192  -11.0258  -46.1963 H         1 UNK         0.0600 
    179 H179        0.9511   -9.7326  -48.2772 H         1 UNK         0.3000 
    180 H180        0.2000   -8.6126  -51.6046 H         1 UNK         0.0600 
    181 H181        1.7559   -7.4340  -49.2415 H         1 UNK         0.0600 
    182 H182        0.5128   -6.6071  -50.1725 H         1 UNK         0.0600 
    183 H183        2.0229   -7.0662  -50.9444 H         1 UNK         0.0600 
    184 H184        2.3955   -9.7280  -49.9356 H         1 UNK         0.3000 
    185 H185        2.5180  -12.7378  -51.7496 H         1 UNK         0.0600 
    186 H186        3.7269  -11.2930  -53.3922 H         1 UNK         0.0600 
    187 H187        4.5009  -10.4207  -52.0746 H         1 UNK         0.0600 
    188 H188        4.8516  -12.1303  -52.3349 H         1 UNK         0.0600 
    189 H189        4.3387  -11.5620  -49.8873 H         1 UNK         0.3000 
    190 H190       -0.8727  -23.4460  -44.9283 H         1 UNK         0.3000 
    191 H191       -2.6096  -24.0308  -47.0835 H         1 UNK         0.0600 
    192 H192       -3.3249  -22.9475  -44.9607 H         1 UNK         0.0600 
    193 H193       -4.2537  -24.4192  -45.2105 H         1 UNK         0.0600 
    194 H194       -2.9317  -24.4085  -44.0560 H         1 UNK         0.0600 
    195 H195       -0.4068  -26.1404  -45.5876 H         1 UNK         0.3000 
    196 H196       -1.8078  -28.6388  -45.8867 H         1 UNK         0.0600 
    197 H197        0.4307  -29.6135  -45.5199 H         1 UNK         0.0600 
    198 H198        0.1761  -28.3004  -44.3800 H         1 UNK         0.0600 
    199 H199        1.1999  -28.0577  -45.7965 H         1 UNK         0.0600 
    200 H200       -0.5405  -26.4540  -48.1998 H         1 UNK         0.3000 
    201 H201       -0.0344  -28.4038  -50.3281 H         1 UNK         0.0600 
    202 H202        0.4978  -26.3959  -51.6530 H         1 UNK         0.0600 
    203 H203       -0.1491  -25.3406  -50.3934 H         1 UNK         0.0600 
    204 H204        1.3022  -26.2896  -50.1021 H         1 UNK         0.0600 
    205 H205       -1.4386  -26.2189  -52.0977 H         1 UNK         0.3000 
    206 H206       -3.8183  -27.7341  -52.6384 H         1 UNK         0.0600 
    207 H207       -2.4935  -26.5736  -54.4064 H         1 UNK         0.0600 
    208 H208       -4.1410  -25.9720  -54.3935 H         1 UNK         0.0600 
    209 H209       -2.8531  -25.0079  -53.6813 H         1 UNK         0.0600 
    210 H210       -6.0051  -26.9244  -52.6843 H         1 UNK         0.3000 
    211 H211       -6.9222  -25.6329  -50.3313 H         1 UNK         0.0600 
    212 H212       -8.3544  -26.1531  -52.9933 H         1 UNK         0.0600 
    213 H213       -9.1403  -25.7143  -51.4814 H         1 UNK         0.0600 
    214 H214       -8.2964  -27.2487  -51.6119 H         1 UNK         0.0600 
    215 H215       -6.2633  -24.3725  -53.5984 H         1 UNK         0.3000 
    216 H216       -7.2923  -21.7252  -53.1767 H         1 UNK         0.0600 
    217 H217       -5.9817  -21.2009  -55.2365 H         1 UNK         0.0600 
    218 H218       -6.9247  -22.6682  -55.4421 H         1 UNK         0.0600 
    219 H219       -5.1880  -22.7689  -55.1495 H         1 UNK         0.0600 
    220 H220       -4.1780  -23.2777  -52.4996 H         1 UNK         0.3000 
    221 H221       -2.7220  -20.8712  -51.9122 H         1 UNK         0.0600 
    222 H222       -2.0815  -23.7462  -51.0918 H         1 UNK         0.0600 
    223 H223       -1.5640  -22.9665  -52.5862 H         1 UNK         0.0600 
    224 H224       -0.9920  -22.3748  -51.0347 H         1 UNK         0.0600 
    225 H225       -4.3996  -23.3513  -49.9706 H         1 UNK         0.3000 
    226 H226       -4.0675  -22.2081  -47.4051 H         1 UNK         0.0600 
    227 H227       -5.9582  -23.7051  -46.7915 H         1 UNK         0.0600 
    228 H228       -6.3755  -23.9268  -48.4821 H         1 UNK         0.0600 
    229 H229       -4.8569  -24.5589  -47.8661 H         1 UNK         0.0600 
    230 H230       -6.5932  -21.6586  -49.8763 H         1 UNK         0.3000 
    231 H231       -8.2820  -20.0182  -48.3197 H         1 UNK         0.0600 
    232 H232       -7.9342  -20.1693  -51.3576 H         1 UNK         0.0600 
    233 H233       -9.2661  -19.3748  -50.5292 H         1 UNK         0.0600 
    234 H234       -9.0553  -21.1112  -50.3777 H         1 UNK         0.0600 
    235 H235       -5.8867  -18.9756  -50.8519 H         1 UNK         0.3000 
    236 H236       -5.1919  -16.5637  -49.4168 H         1 UNK         0.0600 
    237 H237       -6.2237  -14.9452  -51.0269 H         1 UNK         0.0600 
    238 H238       -7.0423  -16.2687  -51.8507 H         1 UNK         0.0600 
    239 H239       -7.4652  -15.8478  -50.1933 H         1 UNK         0.0600 
    240 H240       -3.6003  -18.6496  -50.3858 H         1 UNK         0.3000 
    241 H241       -1.6879  -18.9861  -51.4489 H         1 UNK         0.0600 
    242 H242       -4.1394  -19.1307  -53.2524 H         1 UNK         0.3800 
    243 H243       -3.4469  -19.0030  -54.8541 H         1 UNK         0.3800 
    244 H244       -1.5978  -15.9501  -51.6903 H         1 UNK         0.0800 
    245 H245       -0.2570  -16.9909  -52.0603 H         1 UNK         0.0800 
    246 H246        1.2282  -18.1965  -50.4286 H         1 UNK         0.0800 
    247 H247        1.5437  -16.4756  -50.3816 H         1 UNK         0.0800 
@<TRIPOS>BOND
     1    1    2 1    
     2    1  127 1    
     3    1  128 1    
     4    1  129 1    
     5    2    3 2    
     6    2    4 am   BACKBONE|DICT|INTERRES
     7    4    5 1    
     8    4  130 1    
     9    5    6 1    
    10    5   65 1    
    11    5  131 1    
    12    6    7 1    
    13    6  132 1    
    14    6  133 1    
    15    7    8 1    
    16    8    9 1    
    17    8  134 1    
    18    8  135 1    
    19    9   10 ar   
    20    9   14 ar   
    21   10   11 ar   
    22   10  136 1    
    23   11   12 ar   
    24   11  126 1    
    25   12   13 ar   
    26   12  137 1    
    27   13   14 ar   
    28   13   15 1    
    29   14  138 1    
    30   15   16 1    
    31   15  139 1    
    32   15  140 1    
    33   16   17 1    
    34   17   18 1    
    35   17  141 1    
    36   17  142 1    
    37   18   19 1    
    38   18   67 1    
    39   18  143 1    
    40   19   20 am   BACKBONE|DICT|INTERRES
    41   19  144 1    
    42   20   21 2    
    43   20   22 1    
    44   22   23 1    
    45   22   24 1    
    46   22  145 1    
    47   23  146 1    
    48   23  147 1    
    49   23  148 1    
    50   24   25 am   BACKBONE|DICT|INTERRES
    51   24  149 1    
    52   25   26 2    
    53   25   27 1    
    54   27   28 1    
    55   27   29 1    
    56   27  150 1    
    57   28  151 1    
    58   28  152 1    
    59   28  153 1    
    60   29   30 am   BACKBONE|DICT|INTERRES
    61   29  154 1    
    62   30   31 2    
    63   30   32 1    
    64   32   33 1    
    65   32   34 1    
    66   32  155 1    
    67   33  156 1    
    68   33  157 1    
    69   33  158 1    
    70   34   35 am   BACKBONE|DICT|INTERRES
    71   34  159 1    
    72   35   36 2    
    73   35   37 1    
    74   37   38 1    
    75   37   39 1    
    76   37  160 1    
    77   38  161 1    
    78   38  162 1    
    79   38  163 1    
    80   39   40 am   BACKBONE|DICT|INTERRES
    81   39  164 1    
    82   40   41 2    
    83   40   42 1    
    84   42   43 1    
    85   42   44 1    
    86   42  165 1    
    87   43  166 1    
    88   43  167 1    
    89   43  168 1    
    90   44   45 am   BACKBONE|DICT|INTERRES
    91   44  169 1    
    92   45   46 2    
    93   45   47 1    
    94   47   48 1    
    95   47   49 1    
    96   47  170 1    
    97   48  171 1    
    98   48  172 1    
    99   48  173 1    
   100   49   50 am   BACKBONE|DICT|INTERRES
   101   49  174 1    
   102   50   51 2    
   103   50   52 1    
   104   52   53 1    
   105   52   54 1    
   106   52  175 1    
   107   53  176 1    
   108   53  177 1    
   109   53  178 1    
   110   54   55 am   BACKBONE|DICT|INTERRES
   111   54  179 1    
   112   55   56 2    
   113   55   57 1    
   114   57   58 1    
   115   57   59 1    
   116   57  180 1    
   117   58  181 1    
   118   58  182 1    
   119   58  183 1    
   120   59   60 am   BACKBONE|DICT|INTERRES
   121   59  184 1    
   122   60   61 2    
   123   60   62 1    
   124   62   63 1    
   125   62   64 1    
   126   62  185 1    
   127   63  186 1    
   128   63  187 1    
   129   63  188 1    
   130   64   65 am   BACKBONE|DICT|INTERRES
   131   64  189 1    
   132   65   66 2    
   133   67   68 2    
   134   67   69 am   BACKBONE|DICT|INTERRES
   135   69   70 1    
   136   69  190 1    
   137   70   71 1    
   138   70   72 1    
   139   70  191 1    
   140   71  192 1    
   141   71  193 1    
   142   71  194 1    
   143   72   73 2    
   144   72   74 am   BACKBONE|DICT|INTERRES
   145   74   75 1    
   146   74  195 1    
   147   75   76 1    
   148   75   77 1    
   149   75  196 1    
   150   76  197 1    
   151   76  198 1    
   152   76  199 1    
   153   77   78 2    
   154   77   79 am   BACKBONE|DICT|INTERRES
   155   79   80 1    
   156   79  200 1    
   157   80   81 1    
   158   80   82 1    
   159   80  201 1    
   160   81  202 1    
   161   81  203 1    
   162   81  204 1    
   163   82   83 2    
   164   82   84 am   BACKBONE|DICT|INTERRES
   165   84   85 1    
   166   84  205 1    
   167   85   86 1    
   168   85   87 1    
   169   85  206 1    
   170   86  207 1    
   171   86  208 1    
   172   86  209 1    
   173   87   88 2    
   174   87   89 am   BACKBONE|DICT|INTERRES
   175   89   90 1    
   176   89  210 1    
   177   90   91 1    
   178   90   92 1    
   179   90  211 1    
   180   91  212 1    
   181   91  213 1    
   182   91  214 1    
   183   92   93 2    
   184   92   94 am   BACKBONE|DICT|INTERRES
   185   94   95 1    
   186   94  215 1    
   187   95   96 1    
   188   95   97 1    
   189   95  216 1    
   190   96  217 1    
   191   96  218 1    
   192   96  219 1    
   193   97   98 2    
   194   97   99 am   BACKBONE|DICT|INTERRES
   195   99  100 1    
   196   99  220 1    
   197  100  101 1    
   198  100  102 1    
   199  100  221 1    
   200  101  222 1    
   201  101  223 1    
   202  101  224 1    
   203  102  103 2    
   204  102  104 am   BACKBONE|DICT|INTERRES
   205  104  105 1    
   206  104  225 1    
   207  105  106 1    
   208  105  107 1    
   209  105  226 1    
   210  106  227 1    
   211  106  228 1    
   212  106  229 1    
   213  107  108 2    
   214  107  109 am   BACKBONE|DICT|INTERRES
   215  109  110 1    
   216  109  230 1    
   217  110  111 1    
   218  110  112 1    
   219  110  231 1    
   220  111  232 1    
   221  111  233 1    
   222  111  234 1    
   223  112  113 2    
   224  112  114 am   BACKBONE|DICT|INTERRES
   225  114  115 1    
   226  114  235 1    
   227  115  116 1    
   228  115  117 1    
   229  115  236 1    
   230  116  237 1    
   231  116  238 1    
   232  116  239 1    
   233  117  118 2    
   234  117  119 am   BACKBONE|DICT|INTERRES
   235  119  120 1    
   236  119  240 1    
   237  120  121 1    
   238  120  124 1    
   239  120  241 1    
   240  121  122 am   BACKBONE|DICT|INTERRES
   241  121  123 2    
   242  122  242 1    
   243  122  243 1    
   244  124  125 1    
   245  124  244 1    
   246  124  245 1    
   247  125  126 1    
   248  126  246 1    
   249  126  247 1    
@<TRIPOS>SUBSTRUCTURE
     1 UNK         1 GROUP             0       ****    0 ROOT    
