@<TRIPOS>MOLECULE
3R540
247   249    1
SMALL
USER_CHARGES


@<TRIPOS>ATOM
      1 CA          7.4273  -10.3017  -46.8706 C.3       0 UNK        -0.1800 
      2 C           6.5786  -11.5642  -46.8132 C.2       0 UNK         0.5000 
      3 O           6.9011  -12.4859  -46.0637 O.2       0 UNK        -0.5000 
      4 N           5.4982  -11.6090  -47.5986 N.am      1 UNK        -0.5000 
      5 CA          4.5570  -12.7238  -47.6689 C.3       1 UNK         0.1400 
      6 C6          5.0613  -13.8721  -48.5826 C.3       23 UNK        -0.0398 
      7 S7          4.0882  -15.4064  -48.3881 S.3       23 UNK        -0.2404 
      8 C8          3.4252  -15.5953  -50.0717 C.3       23 UNK        -0.0205 
      9 C9          2.3319  -16.6479  -50.1213 C.ar      23 UNK        -0.0193 
     10 C10         1.0005  -16.2810  -49.9066 C.ar      23 UNK        -0.1150 
     11 C11        -0.0139  -17.2414  -49.9398 C.ar      23 UNK        -0.0193 
     12 C12         0.3119  -18.5689  -50.2224 C.ar      23 UNK        -0.1150 
     13 C13         1.6413  -18.9546  -50.4236 C.ar      23 UNK        -0.0193 
     14 C14         2.6481  -17.9861  -50.3733 C.ar      23 UNK        -0.1150 
     15 C15         1.9909  -20.4143  -50.6887 C.3       23 UNK        -0.0205 
     16 S16         2.1216  -21.3863  -49.1485 S.3       23 UNK        -0.2404 
     17 C17         0.3757  -21.4275  -48.6374 C.3       23 UNK        -0.0398 
     18 CA          0.0132  -22.5844  -47.6799 C.3       11 UNK         0.1400 
     19 N           0.5009  -22.3367  -46.3174 N.am      11 UNK        -0.5000 
     20 C           0.3526  -23.1719  -45.2788 C.2       10 UNK         0.5000 
     21 O          -0.1628  -24.2847  -45.3655 O.2       10 UNK        -0.5000 
     22 CA          0.7924  -22.6582  -43.8966 C.3       10 UNK         0.1400 
     23 CB          2.3183  -22.7273  -43.7367 C.3       10 UNK        -0.1800 
     24 N           0.3174  -21.3003  -43.6283 N.am      10 UNK        -0.5000 
     25 C          -0.9756  -20.9552  -43.5353 C.2       9 UNK         0.5000 
     26 O          -1.9042  -21.7590  -43.6156 O.2       9 UNK        -0.5000 
     27 CA         -1.2913  -19.4569  -43.3766 C.3       9 UNK         0.1400 
     28 CB         -1.1268  -19.0103  -41.9166 C.3       9 UNK        -0.1800 
     29 N          -0.4681  -18.6163  -44.2437 N.am      9 UNK        -0.5000 
     30 C          -0.4814  -18.6576  -45.5829 C.2       8 UNK         0.5000 
     31 O          -1.2356  -19.3743  -46.2403 O.2       8 UNK        -0.5000 
     32 CA          0.5620  -17.7926  -46.3079 C.3       8 UNK         0.1400 
     33 CB          0.0966  -16.3355  -46.4016 C.3       8 UNK        -0.1800 
     34 N           1.8740  -17.8462  -45.6684 N.am      8 UNK        -0.5000 
     35 C           2.6342  -18.9465  -45.5920 C.2       7 UNK         0.5000 
     36 O           2.3142  -20.0355  -46.0656 O.2       7 UNK        -0.5000 
     37 CA          3.9455  -18.8162  -44.7975 C.3       7 UNK         0.1400 
     38 CB          5.0277  -18.1238  -45.6397 C.3       7 UNK        -0.1800 
     39 N           3.7603  -18.0840  -43.5435 N.am      7 UNK        -0.5000 
     40 C           3.0170  -18.5184  -42.5153 C.2       6 UNK         0.5000 
     41 O           2.4537  -19.6121  -42.4920 O.2       6 UNK        -0.5000 
     42 CA          2.8318  -17.5441  -41.3362 C.3       6 UNK         0.1400 
     43 CB          3.9931  -17.6736  -40.3394 C.3       6 UNK        -0.1800 
     44 N           2.7020  -16.1447  -41.7556 N.am      6 UNK        -0.5000 
     45 C           1.7169  -15.6753  -42.5331 C.2       5 UNK         0.5000 
     46 O           0.8200  -16.3841  -42.9932 O.2       5 UNK        -0.5000 
     47 CA          1.7893  -14.1811  -42.8989 C.3       5 UNK         0.1400 
     48 CB          2.8169  -13.9639  -44.0227 C.3       5 UNK        -0.1800 
     49 N           0.4921  -13.6386  -43.3160 N.am      5 UNK        -0.5000 
     50 C          -0.5514  -13.4568  -42.4904 C.2       4 UNK         0.5000 
     51 O          -0.5048  -13.7127  -41.2856 O.2       4 UNK        -0.5000 
     52 CA         -1.8549  -12.8591  -43.0654 C.3       4 UNK         0.1400 
     53 CB         -2.1589  -11.5015  -42.4092 C.3       4 UNK        -0.1800 
     54 N          -1.8208  -12.6647  -44.5143 N.am      4 UNK        -0.5000 
     55 C          -2.2238  -13.5566  -45.4285 C.2       3 UNK         0.5000 
     56 O          -2.7264  -14.6441  -45.1465 O.2       3 UNK        -0.5000 
     57 CA         -2.0229  -13.1767  -46.9145 C.3       3 UNK         0.1400 
     58 CB         -3.3572  -12.7605  -47.5525 C.3       3 UNK        -0.1800 
     59 N          -1.0259  -12.1229  -47.1558 N.am      3 UNK        -0.5000 
     60 C           0.2695  -12.2190  -46.8306 C.2       2 UNK         0.5000 
     61 O           0.7390  -13.1882  -46.2338 O.2       2 UNK        -0.5000 
     62 CA          1.1737  -11.0157  -47.1578 C.3       2 UNK         0.1400 
     63 CB          0.9517   -9.8891  -46.1360 C.3       2 UNK        -0.1800 
     64 N           2.5808  -11.4143  -47.1126 N.am      2 UNK        -0.5000 
     65 C           3.1849  -12.1459  -48.0567 C.2       1 UNK         0.5000 
     66 O           2.7167  -12.3270  -49.1818 O.2       1 UNK        -0.5000 
     67 C          -1.5137  -22.8143  -47.7202 C.2       11 UNK         0.5000 
     68 O          -1.9790  -23.7415  -48.3913 O.2       11 UNK        -0.5000 
     69 N          -2.2650  -21.9600  -47.0111 N.am      12 UNK        -0.5000 
     70 CA         -3.7187  -22.0349  -46.8944 C.3       12 UNK         0.1400 
     71 CB         -4.2552  -20.7873  -46.1780 C.3       12 UNK        -0.1800 
     72 C          -4.1833  -23.3249  -46.1978 C.2       12 UNK         0.5000 
     73 O          -5.0693  -24.0063  -46.7145 O.2       12 UNK        -0.5000 
     74 N          -3.5446  -23.6575  -45.0684 N.am      13 UNK        -0.5000 
     75 CA         -3.7995  -24.8736  -44.2972 C.3       13 UNK         0.1400 
     76 CB         -3.0392  -24.7983  -42.9644 C.3       13 UNK        -0.1800 
     77 C          -3.4348  -26.1642  -45.0542 C.2       13 UNK         0.5000 
     78 O          -4.1412  -27.1633  -44.9128 O.2       13 UNK        -0.5000 
     79 N          -2.3445  -26.1235  -45.8330 N.am      14 UNK        -0.5000 
     80 CA         -1.8345  -27.2512  -46.6085 C.3       14 UNK         0.1400 
     81 CB         -0.4314  -26.9280  -47.1474 C.3       14 UNK        -0.1800 
     82 C          -2.7711  -27.6755  -47.7508 C.2       14 UNK         0.5000 
     83 O          -3.1335  -28.8513  -47.8212 O.2       14 UNK        -0.5000 
     84 N          -3.1264  -26.7319  -48.6348 N.am      15 UNK        -0.5000 
     85 CA         -3.8578  -27.0340  -49.8692 C.3       15 UNK         0.1400 
     86 CB         -2.9099  -27.7036  -50.8913 C.3       15 UNK        -0.1800 
     87 C          -4.5605  -25.8022  -50.4640 C.2       15 UNK         0.5000 
     88 O          -4.6850  -25.7178  -51.6871 O.2       15 UNK        -0.5000 
     89 N          -4.9832  -24.8459  -49.6216 N.am      16 UNK        -0.5000 
     90 CA         -5.6390  -23.5885  -50.0179 C.3       16 UNK         0.1400 
     91 CB         -7.0546  -23.8607  -50.5690 C.3       16 UNK        -0.1800 
     92 C          -4.7742  -22.7431  -50.9801 C.2       16 UNK         0.5000 
     93 O          -5.2952  -22.1601  -51.9326 O.2       16 UNK        -0.5000 
     94 N          -3.4543  -22.7390  -50.7351 N.am      17 UNK        -0.5000 
     95 CA         -2.4098  -22.1417  -51.5726 C.3       17 UNK         0.1400 
     96 CB         -2.5524  -20.6056  -51.6095 C.3       17 UNK        -0.1800 
     97 C          -2.3360  -22.7858  -52.9712 C.2       17 UNK         0.5000 
     98 O          -2.2436  -22.0796  -53.9732 O.2       17 UNK        -0.5000 
     99 N          -2.4186  -24.1246  -53.0081 N.am      18 UNK        -0.5000 
    100 CA        -2.5284  -24.9678  -54.2064 C.3       18 UNK         0.1400 
    101 CB        -1.2278  -24.9278  -55.0353 C.3       18 UNK        -0.1800 
    102 C         -3.7909  -24.6258  -55.0266 C.2       18 UNK         0.5000 
    103 O         -3.7303  -24.4908  -56.2498 O.2       18 UNK        -0.5000 
    104 N         -4.9050  -24.4543  -54.3017 N.am      19 UNK        -0.5000 
    105 CA        -6.2333  -24.0370  -54.7577 C.3       19 UNK         0.1400 
    106 CB        -6.8379  -25.0853  -55.7146 C.3       19 UNK        -0.1800 
    107 C         -6.3070  -22.6024  -55.3295 C.2       19 UNK         0.5000 
    108 O         -7.3177  -22.2593  -55.9458 O.2       19 UNK        -0.5000 
    109 N         -5.2737  -21.7736  -55.1106 N.am      20 UNK        -0.5000 
    110 CA        -5.2585  -20.3657  -55.5190 C.3       20 UNK         0.1400 
    111 CB        -3.8186  -19.8333  -55.5320 C.3       20 UNK        -0.1800 
    112 C         -6.1496  -19.4790  -54.6297 C.2       20 UNK         0.5000 
    113 O         -6.6830  -18.4890  -55.1309 O.2       20 UNK        -0.5000 
    114 N         -6.3046  -19.8655  -53.3521 N.am      21 UNK        -0.5000 
    115 CA        -7.1460  -19.2566  -52.3193 C.3       21 UNK         0.1400 
    116 CB        -8.6343  -19.5122  -52.6316 C.3       21 UNK        -0.1800 
    117 C         -6.8378  -17.7626  -52.0869 C.2       21 UNK         0.5000 
    118 O         -7.5466  -16.8963  -52.6039 O.2       21 UNK        -0.5000 
    119 N         -5.7818  -17.4899  -51.3070 N.am      22 UNK        -0.5000 
    120 CA        -5.3469  -16.1316  -50.9227 C.3       22 UNK         0.1400 
    121 C         -6.4009  -15.2859  -50.1423 C.2       22 UNK         0.5000 
    122 N         -7.3796  -15.8884  -49.4773 N.am      22 UNK        -0.7600 
    123 O         -6.3215  -14.0606  -50.1369 O.2       22 UNK        -0.5000 
    124 C124       -4.0268  -16.1483  -50.1114 C.3       23 UNK        -0.0398 
    125 S125       -2.5952  -16.8782  -50.9744 S.3       23 UNK        -0.2404 
    126 C126       -1.4404  -16.8651  -49.5695 C.3       23 UNK        -0.0205 
    127 H127        8.4434  -10.5466  -47.1802 H         1 UNK         0.0600 
    128 H128        7.4727   -9.8351  -45.8866 H         1 UNK         0.0600 
    129 H129        7.0240   -9.5730  -47.5742 H         1 UNK         0.0600 
    130 H130        5.2682  -10.8157  -48.1826 H         1 UNK         0.3000 
    131 H131        4.4402  -13.1332  -46.6624 H         1 UNK         0.0600 
    132 H132        6.0916  -14.1204  -48.3253 H         1 UNK         0.0800 
    133 H133        5.0865  -13.5573  -49.6270 H         1 UNK         0.0800 
    134 H134        4.2359  -15.8602  -50.7520 H         1 UNK         0.0800 
    135 H135        3.0274  -14.6428  -50.4238 H         1 UNK         0.0800 
    136 H136        0.7619  -15.2507  -49.6811 H         1 UNK         0.1150 
    137 H137       -0.4737  -19.3057  -50.2470 H         1 UNK         0.1150 
    138 H138        3.6792  -18.2736  -50.5239 H         1 UNK         0.1150 
    139 H139        1.2489  -20.8628  -51.3510 H         1 UNK         0.0800 
    140 H140        2.9421  -20.4771  -51.2195 H         1 UNK         0.0800 
    141 H141       -0.2151  -21.4892  -49.5483 H         1 UNK         0.0800 
    142 H142        0.1295  -20.4691  -48.1814 H         1 UNK         0.0800 
    143 H143        0.4843  -23.5011  -48.0399 H         1 UNK         0.0600 
    144 H144        0.9879  -21.4564  -46.1684 H         1 UNK         0.3000 
    145 H145        0.3485  -23.3154  -43.1458 H         1 UNK         0.0600 
    146 H146        2.6211  -22.4427  -42.7289 H         1 UNK         0.0600 
    147 H147        2.8311  -22.0688  -44.4371 H         1 UNK         0.0600 
    148 H148        2.6828  -23.7402  -43.9120 H         1 UNK         0.0600 
    149 H149        1.0278  -20.5861  -43.5026 H         1 UNK         0.3000 
    150 H150       -2.3338  -19.3040  -43.6624 H         1 UNK         0.0600 
    151 H151       -1.7691  -19.5938  -41.2560 H         1 UNK         0.0600 
    152 H152       -1.3970  -17.9613  -41.7926 H         1 UNK         0.0600 
    153 H153       -0.1009  -19.1337  -41.5704 H         1 UNK         0.0600 
    154 H154        0.1432  -17.9445  -43.7854 H         1 UNK         0.3000 
    155 H155        0.6697  -18.1838  -47.3206 H         1 UNK         0.0600 
    156 H156       -0.9108  -16.2753  -46.8105 H         1 UNK         0.0600 
    157 H157        0.7536  -15.7551  -47.0489 H         1 UNK         0.0600 
    158 H158        0.0735  -15.8490  -45.4273 H         1 UNK         0.0600 
    159 H159        2.1868  -17.0056  -45.2085 H         1 UNK         0.3000 
    160 H160        4.2913  -19.8237  -44.5567 H         1 UNK         0.0600 
    161 H161        4.7654  -17.0891  -45.8633 H         1 UNK         0.0600 
    162 H162        5.1708  -18.6381  -46.5911 H         1 UNK         0.0600 
    163 H163        5.9878  -18.1221  -45.1235 H         1 UNK         0.0600 
    164 H164        4.1898  -17.1736  -43.4763 H         1 UNK         0.3000 
    165 H165        1.9099  -17.8226  -40.8215 H         1 UNK         0.0600 
    166 H166        3.8268  -17.0549  -39.4574 H         1 UNK         0.0600 
    167 H167        4.0995  -18.7037  -39.9965 H         1 UNK         0.0600 
    168 H168        4.9431  -17.3762  -40.7851 H         1 UNK         0.0600 
    169 H169        3.4100  -15.5073  -41.4204 H         1 UNK         0.3000 
    170 H170        2.1180  -13.6268  -42.0175 H         1 UNK         0.0600 
    171 H171        2.5721  -14.5463  -44.9119 H         1 UNK         0.0600 
    172 H172        2.8681  -12.9146  -44.3130 H         1 UNK         0.0600 
    173 H173        3.8177  -14.2593  -43.7060 H         1 UNK         0.0600 
    174 H174        0.3826  -13.4580  -44.3087 H         1 UNK         0.3000 
    175 H175       -2.6641  -13.5460  -42.8089 H         1 UNK         0.0600 
    176 H176       -1.3737  -10.7719  -42.6119 H         1 UNK         0.0600 
    177 H177       -3.1012  -11.0905  -42.7722 H         1 UNK         0.0600 
    178 H178       -2.2461  -11.5978  -41.3262 H         1 UNK         0.0600 
    179 H179       -1.4180  -11.7998  -44.8424 H         1 UNK         0.3000 
    180 H180       -1.6735  -14.0742  -47.4267 H         1 UNK         0.0600 
    181 H181       -3.7481  -11.8460  -47.1048 H         1 UNK         0.0600 
    182 H182       -4.1125  -13.5375  -47.4253 H         1 UNK         0.0600 
    183 H183       -3.2481  -12.5917  -48.6240 H         1 UNK         0.0600 
    184 H184       -1.3561  -11.2900  -47.6220 H         1 UNK         0.3000 
    185 H185        0.9302  -10.6489  -48.1571 H         1 UNK         0.0600 
    186 H186        1.1577  -10.2216  -45.1174 H         1 UNK         0.0600 
    187 H187        1.5962   -9.0353  -46.3459 H         1 UNK         0.0600 
    188 H188       -0.0776   -9.5295  -46.1625 H         1 UNK         0.0600 
    189 H189        3.0423  -11.3068  -46.2217 H         1 UNK         0.3000 
    190 H190       -1.8137  -21.1824  -46.5359 H         1 UNK         0.3000 
    191 H191       -4.1228  -22.0305  -47.9058 H         1 UNK         0.0600 
    192 H192       -3.9886  -19.8786  -46.7183 H         1 UNK         0.0600 
    193 H193       -3.8615  -20.7003  -45.1656 H         1 UNK         0.0600 
    194 H194       -5.3431  -20.8159  -46.1062 H         1 UNK         0.0600 
    195 H195       -2.8430  -23.0229  -44.6946 H         1 UNK         0.3000 
    196 H196       -4.8684  -24.9106  -44.0771 H         1 UNK         0.0600 
    197 H197       -3.3543  -23.9339  -42.3795 H         1 UNK         0.0600 
    198 H198       -1.9625  -24.7207  -43.1209 H         1 UNK         0.0600 
    199 H199       -3.2215  -25.6862  -42.3577 H         1 UNK         0.0600 
    200 H200       -1.7741  -25.2830  -45.8302 H         1 UNK         0.3000 
    201 H201       -1.7388  -28.1020  -45.9305 H         1 UNK         0.0600 
    202 H202        0.2779  -26.7836  -46.3325 H         1 UNK         0.0600 
    203 H203       -0.4289  -26.0238  -47.7568 H         1 UNK         0.0600 
    204 H204       -0.0507  -27.7425  -47.7651 H         1 UNK         0.0600 
    205 H205       -2.7889  -25.7828  -48.5140 H         1 UNK         0.3000 
    206 H206       -4.6593  -27.7377  -49.6357 H         1 UNK         0.0600 
    207 H207       -2.4736  -28.6210  -50.4968 H         1 UNK         0.0600 
    208 H208       -2.0915  -27.0391  -51.1700 H         1 UNK         0.0600 
    209 H209       -3.4386  -27.9783  -51.8050 H         1 UNK         0.0600 
    210 H210       -4.8633  -24.9740  -48.6228 H         1 UNK         0.3000 
    211 H211       -5.7641  -22.9935  -49.1149 H         1 UNK         0.0600 
    212 H212       -7.0300  -24.4370  -51.4934 H         1 UNK         0.0600 
    213 H213       -7.5806  -22.9285  -50.7790 H         1 UNK         0.0600 
    214 H214       -7.6552  -24.4143  -49.8475 H         1 UNK         0.0600 
    215 H215       -3.1172  -23.2551  -49.9280 H         1 UNK         0.3000 
    216 H216       -1.4610  -22.3839  -51.0986 H         1 UNK         0.0600 
    217 H217       -1.7060  -20.1459  -52.1208 H         1 UNK         0.0600 
    218 H218       -2.5965  -20.1908  -50.6028 H         1 UNK         0.0600 
    219 H219       -3.4537  -20.2900  -52.1343 H         1 UNK         0.0600 
    220 H220       -2.5520  -24.6086  -52.1322 H         1 UNK         0.3000 
    221 H221       -2.6623  -25.9912  -53.8525 H         1 UNK         0.0600 
    222 H222       -1.0526  -23.9446  -55.4728 H         1 UNK         0.0600 
    223 H223       -0.3627  -25.1815  -54.4228 H         1 UNK         0.0600 
    224 H224       -1.2670  -25.6463  -55.8548 H         1 UNK         0.0600 
    225 H225       -4.8347  -24.6398  -53.3046 H         1 UNK         0.3000 
    226 H226       -6.8545  -24.0208  -53.8620 H         1 UNK         0.0600 
    227 H227       -6.7948  -26.0849  -55.2820 H         1 UNK         0.0600 
    228 H228       -7.8867  -24.8697  -55.9217 H         1 UNK         0.0600 
    229 H229       -6.3159  -25.1099  -56.6714 H         1 UNK         0.0600 
    230 H230       -4.4693  -22.1113  -54.5977 H         1 UNK         0.3000 
    231 H231       -5.6418  -20.3048  -56.5399 H         1 UNK         0.0600 
    232 H232       -3.7814  -18.8279  -55.9528 H         1 UNK         0.0600 
    233 H233       -3.1669  -20.4642  -56.1369 H         1 UNK         0.0600 
    234 H234       -3.3995  -19.7784  -54.5274 H         1 UNK         0.0600 
    235 H235       -5.8175  -20.7065  -53.0508 H         1 UNK         0.3000 
    236 H236       -6.9182  -19.7806  -51.3896 H         1 UNK         0.0600 
    237 H237       -8.9397  -19.0502  -53.5710 H         1 UNK         0.0600 
    238 H238       -8.8415  -20.5801  -52.7027 H         1 UNK         0.0600 
    239 H239       -9.2726  -19.1080  -51.8451 H         1 UNK         0.0600 
    240 H240       -5.2261  -18.2507  -50.9455 H         1 UNK         0.3000 
    241 H241       -5.1562  -15.5924  -51.8525 H         1 UNK         0.0600 
    242 H242       -8.0554  -15.3302  -48.9797 H         1 UNK         0.3800 
    243 H243       -7.4593  -16.8921  -49.4714 H         1 UNK         0.3800 
    244 H244       -4.1773  -16.6853  -49.1727 H         1 UNK         0.0800 
    245 H245       -3.7425  -15.1306  -49.8352 H         1 UNK         0.0800 
    246 H246       -1.8018  -17.5553  -48.8051 H         1 UNK         0.0800 
    247 H247       -1.4531  -15.8723  -49.1184 H         1 UNK         0.0800 
@<TRIPOS>BOND
     1    1    2 1    
     2    1  127 1    
     3    1  128 1    
     4    1  129 1    
     5    2    3 2    
     6    2    4 am   BACKBONE|DICT|INTERRES
     7    4    5 1    
     8    4  130 1    
     9    5    6 1    
    10    5   65 1    
    11    5  131 1    
    12    6    7 1    
    13    6  132 1    
    14    6  133 1    
    15    7    8 1    
    16    8    9 1    
    17    8  134 1    
    18    8  135 1    
    19    9   10 ar   
    20    9   14 ar   
    21   10   11 ar   
    22   10  136 1    
    23   11   12 ar   
    24   11  126 1    
    25   12   13 ar   
    26   12  137 1    
    27   13   14 ar   
    28   13   15 1    
    29   14  138 1    
    30   15   16 1    
    31   15  139 1    
    32   15  140 1    
    33   16   17 1    
    34   17   18 1    
    35   17  141 1    
    36   17  142 1    
    37   18   19 1    
    38   18   67 1    
    39   18  143 1    
    40   19   20 am   BACKBONE|DICT|INTERRES
    41   19  144 1    
    42   20   21 2    
    43   20   22 1    
    44   22   23 1    
    45   22   24 1    
    46   22  145 1    
    47   23  146 1    
    48   23  147 1    
    49   23  148 1    
    50   24   25 am   BACKBONE|DICT|INTERRES
    51   24  149 1    
    52   25   26 2    
    53   25   27 1    
    54   27   28 1    
    55   27   29 1    
    56   27  150 1    
    57   28  151 1    
    58   28  152 1    
    59   28  153 1    
    60   29   30 am   BACKBONE|DICT|INTERRES
    61   29  154 1    
    62   30   31 2    
    63   30   32 1    
    64   32   33 1    
    65   32   34 1    
    66   32  155 1    
    67   33  156 1    
    68   33  157 1    
    69   33  158 1    
    70   34   35 am   BACKBONE|DICT|INTERRES
    71   34  159 1    
    72   35   36 2    
    73   35   37 1    
    74   37   38 1    
    75   37   39 1    
    76   37  160 1    
    77   38  161 1    
    78   38  162 1    
    79   38  163 1    
    80   39   40 am   BACKBONE|DICT|INTERRES
    81   39  164 1    
    82   40   41 2    
    83   40   42 1    
    84   42   43 1    
    85   42   44 1    
    86   42  165 1    
    87   43  166 1    
    88   43  167 1    
    89   43  168 1    
    90   44   45 am   BACKBONE|DICT|INTERRES
    91   44  169 1    
    92   45   46 2    
    93   45   47 1    
    94   47   48 1    
    95   47   49 1    
    96   47  170 1    
    97   48  171 1    
    98   48  172 1    
    99   48  173 1    
   100   49   50 am   BACKBONE|DICT|INTERRES
   101   49  174 1    
   102   50   51 2    
   103   50   52 1    
   104   52   53 1    
   105   52   54 1    
   106   52  175 1    
   107   53  176 1    
   108   53  177 1    
   109   53  178 1    
   110   54   55 am   BACKBONE|DICT|INTERRES
   111   54  179 1    
   112   55   56 2    
   113   55   57 1    
   114   57   58 1    
   115   57   59 1    
   116   57  180 1    
   117   58  181 1    
   118   58  182 1    
   119   58  183 1    
   120   59   60 am   BACKBONE|DICT|INTERRES
   121   59  184 1    
   122   60   61 2    
   123   60   62 1    
   124   62   63 1    
   125   62   64 1    
   126   62  185 1    
   127   63  186 1    
   128   63  187 1    
   129   63  188 1    
   130   64   65 am   BACKBONE|DICT|INTERRES
   131   64  189 1    
   132   65   66 2    
   133   67   68 2    
   134   67   69 am   BACKBONE|DICT|INTERRES
   135   69   70 1    
   136   69  190 1    
   137   70   71 1    
   138   70   72 1    
   139   70  191 1    
   140   71  192 1    
   141   71  193 1    
   142   71  194 1    
   143   72   73 2    
   144   72   74 am   BACKBONE|DICT|INTERRES
   145   74   75 1    
   146   74  195 1    
   147   75   76 1    
   148   75   77 1    
   149   75  196 1    
   150   76  197 1    
   151   76  198 1    
   152   76  199 1    
   153   77   78 2    
   154   77   79 am   BACKBONE|DICT|INTERRES
   155   79   80 1    
   156   79  200 1    
   157   80   81 1    
   158   80   82 1    
   159   80  201 1    
   160   81  202 1    
   161   81  203 1    
   162   81  204 1    
   163   82   83 2    
   164   82   84 am   BACKBONE|DICT|INTERRES
   165   84   85 1    
   166   84  205 1    
   167   85   86 1    
   168   85   87 1    
   169   85  206 1    
   170   86  207 1    
   171   86  208 1    
   172   86  209 1    
   173   87   88 2    
   174   87   89 am   BACKBONE|DICT|INTERRES
   175   89   90 1    
   176   89  210 1    
   177   90   91 1    
   178   90   92 1    
   179   90  211 1    
   180   91  212 1    
   181   91  213 1    
   182   91  214 1    
   183   92   93 2    
   184   92   94 am   BACKBONE|DICT|INTERRES
   185   94   95 1    
   186   94  215 1    
   187   95   96 1    
   188   95   97 1    
   189   95  216 1    
   190   96  217 1    
   191   96  218 1    
   192   96  219 1    
   193   97   98 2    
   194   97   99 am   BACKBONE|DICT|INTERRES
   195   99  100 1    
   196   99  220 1    
   197  100  101 1    
   198  100  102 1    
   199  100  221 1    
   200  101  222 1    
   201  101  223 1    
   202  101  224 1    
   203  102  103 2    
   204  102  104 am   BACKBONE|DICT|INTERRES
   205  104  105 1    
   206  104  225 1    
   207  105  106 1    
   208  105  107 1    
   209  105  226 1    
   210  106  227 1    
   211  106  228 1    
   212  106  229 1    
   213  107  108 2    
   214  107  109 am   BACKBONE|DICT|INTERRES
   215  109  110 1    
   216  109  230 1    
   217  110  111 1    
   218  110  112 1    
   219  110  231 1    
   220  111  232 1    
   221  111  233 1    
   222  111  234 1    
   223  112  113 2    
   224  112  114 am   BACKBONE|DICT|INTERRES
   225  114  115 1    
   226  114  235 1    
   227  115  116 1    
   228  115  117 1    
   229  115  236 1    
   230  116  237 1    
   231  116  238 1    
   232  116  239 1    
   233  117  118 2    
   234  117  119 am   BACKBONE|DICT|INTERRES
   235  119  120 1    
   236  119  240 1    
   237  120  121 1    
   238  120  124 1    
   239  120  241 1    
   240  121  122 am   BACKBONE|DICT|INTERRES
   241  121  123 2    
   242  122  242 1    
   243  122  243 1    
   244  124  125 1    
   245  124  244 1    
   246  124  245 1    
   247  125  126 1    
   248  126  246 1    
   249  126  247 1    
@<TRIPOS>SUBSTRUCTURE
     1 UNK         1 GROUP             0       ****    0 ROOT    
