@<TRIPOS>MOLECULE
3R540
247   249    1
SMALL
USER_CHARGES


@<TRIPOS>ATOM
      1 CA         -1.2656   -8.4181  -44.4101 C.3       0 UNK        -0.1800 
      2 C          -0.9604   -9.5589  -45.3700 C.2       0 UNK         0.5000 
      3 O          -0.5480   -9.3109  -46.5034 O.2       0 UNK        -0.5000 
      4 N          -1.1543  -10.8056  -44.9173 N.am      1 UNK        -0.5000 
      5 CA         -0.9436  -12.0400  -45.6879 C.3       1 UNK         0.1400 
      6 C6         -1.3327  -13.3052  -44.8862 C.3       23 UNK        -0.0398 
      7 S7         -3.0299  -13.2981  -44.2076 S.3       23 UNK        -0.2404 
      8 C8         -4.0639  -13.7604  -45.6375 C.3       23 UNK        -0.0205 
      9 C9         -3.5709  -15.0131  -46.3460 C.ar      23 UNK        -0.0193 
     10 C10        -2.8982  -14.8969  -47.5640 C.ar      23 UNK        -0.1150 
     11 C11        -2.3979  -16.0256  -48.2152 C.ar      23 UNK        -0.0193 
     12 C12        -2.5857  -17.2867  -47.6351 C.ar      23 UNK        -0.1150 
     13 C13        -3.2686  -17.4205  -46.4199 C.ar      23 UNK        -0.0193 
     14 C14        -3.7617  -16.2777  -45.7817 C.ar      23 UNK        -0.1150 
     15 C15        -3.4407  -18.7917  -45.7786 C.3       23 UNK        -0.0205 
     16 S16        -4.7509  -19.7618  -46.5903 S.3       23 UNK        -0.2404 
     17 C17        -4.6929  -21.3353  -45.6585 C.3       23 UNK        -0.0398 
     18 CA         -3.8035  -22.3997  -46.3499 C.3       11 UNK         0.1400 
     19 N          -2.4044  -21.9949  -46.3729 N.am      11 UNK        -0.5000 
     20 C          -1.5957  -22.0503  -47.4348 C.2       10 UNK         0.5000 
     21 O          -1.9451  -22.4542  -48.5464 O.2       10 UNK        -0.5000 
     22 CA         -0.1434  -21.5783  -47.2112 C.3       10 UNK         0.1400 
     23 CB          0.0594  -20.1700  -47.7862 C.3       10 UNK        -0.1800 
     24 N           0.2650  -21.5822  -45.8007 N.am      10 UNK        -0.5000 
     25 C           0.4600  -22.7017  -45.0894 C.2       9 UNK         0.5000 
     26 O           0.3282  -23.8314  -45.5572 O.2       9 UNK        -0.5000 
     27 CA          0.8079  -22.5584  -43.5962 C.3       9 UNK         0.1400 
     28 CB          2.3284  -22.5847  -43.3854 C.3       9 UNK        -0.1800 
     29 N           0.2335  -21.3930  -42.9153 N.am      9 UNK        -0.5000 
     30 C          -1.0800  -21.1395  -42.8072 C.2       8 UNK         0.5000 
     31 O          -1.9460  -21.7375  -43.4449 O.2       8 UNK        -0.5000 
     32 CA         -1.4982  -20.0420  -41.8222 C.3       8 UNK         0.1400 
     33 CB         -1.1286  -20.4167  -40.3773 C.3       8 UNK        -0.1800 
     34 N          -0.8671  -18.7769  -42.1816 N.am      8 UNK        -0.5000 
     35 C          -1.5294  -17.6697  -42.5345 C.2       7 UNK         0.5000 
     36 O          -2.7558  -17.5649  -42.5085 O.2       7 UNK        -0.5000 
     37 CA         -0.6849  -16.4608  -42.9807 C.3       7 UNK         0.1400 
     38 CB         -0.6018  -15.4335  -41.8399 C.3       7 UNK        -0.1800 
     39 N           0.6783  -16.7723  -43.4270 N.am      7 UNK        -0.5000 
     40 C           1.0025  -17.5385  -44.4770 C.2       6 UNK         0.5000 
     41 O           0.1957  -18.2151  -45.1151 O.2       6 UNK        -0.5000 
     42 CA          2.4950  -17.5819  -44.8571 C.3       6 UNK         0.1400 
     43 CB          3.0954  -18.9525  -44.5155 C.3       6 UNK        -0.1800 
     44 N           2.7097  -17.3128  -46.2795 N.am      6 UNK        -0.5000 
     45 C           2.3885  -16.1694  -46.8984 C.2       5 UNK         0.5000 
     46 O           1.9260  -15.1910  -46.3123 O.2       5 UNK        -0.5000 
     47 CA          2.6352  -16.1161  -48.4158 C.3       5 UNK         0.1400 
     48 CB          1.9617  -17.3089  -49.1339 C.3       5 UNK        -0.1800 
     49 N           2.1675  -14.8380  -48.9630 N.am      5 UNK        -0.5000 
     50 C           2.4922  -14.3649  -50.1751 C.2       4 UNK         0.5000 
     51 O           3.2608  -14.9425  -50.9452 O.2       4 UNK        -0.5000 
     52 CA          1.8707  -13.0292  -50.6147 C.3       4 UNK         0.1400 
     53 CB          0.3486  -13.1454  -50.7837 C.3       4 UNK        -0.1800 
     54 N           2.1646  -11.9669  -49.6595 N.am      4 UNK        -0.5000 
     55 C           3.0047  -10.9451  -49.8749 C.2       3 UNK         0.5000 
     56 O           3.6383  -10.7878  -50.9196 O.2       3 UNK        -0.5000 
     57 CA          3.1668   -9.9106  -48.7405 C.3       3 UNK         0.1400 
     58 CB          2.2980   -8.6733  -49.0140 C.3       3 UNK        -0.1800 
     59 N           2.8246  -10.4410  -47.4217 N.am      3 UNK        -0.5000 
     60 C           3.5277  -11.3778  -46.7721 C.2       2 UNK         0.5000 
     61 O           4.6115  -11.8107  -47.1654 O.2       2 UNK        -0.5000 
     62 CA          2.9151  -11.9453  -45.4777 C.3       2 UNK         0.1400 
     63 CB          3.6023  -11.3314  -44.2482 C.3       2 UNK        -0.1800 
     64 N           1.4651  -11.7737  -45.3358 N.am      2 UNK        -0.5000 
     65 C           0.5103  -12.2009  -46.1783 C.2       1 UNK         0.5000 
     66 O           0.7270  -12.6887  -47.2886 O.2       1 UNK        -0.5000 
     67 C          -3.9137  -23.7776  -45.6734 C.2       11 UNK         0.5000 
     68 O          -4.4735  -24.6986  -46.2669 O.2       11 UNK        -0.5000 
     69 N          -3.3628  -23.9010  -44.4589 N.am      12 UNK        -0.5000 
     70 CA         -3.4326  -25.0941  -43.6207 C.3       12 UNK         0.1400 
     71 CB         -3.1670  -24.6964  -42.1567 C.3       12 UNK        -0.1800 
     72 C          -2.4862  -26.2078  -44.1033 C.2       12 UNK         0.5000 
     73 O          -2.9451  -27.1755  -44.7105 O.2       12 UNK        -0.5000 
     74 N          -1.1867  -26.0632  -43.8068 N.am      13 UNK        -0.5000 
     75 CA         -0.1482  -27.0784  -44.0195 C.3       13 UNK         0.1400 
     76 CB          1.1768  -26.5838  -43.4192 C.3       13 UNK        -0.1800 
     77 C           0.0422  -27.4895  -45.4911 C.2       13 UNK         0.5000 
     78 O           0.2710  -28.6669  -45.7698 O.2       13 UNK        -0.5000 
     79 N          -0.0897  -26.5200  -46.4037 N.am      14 UNK        -0.5000 
     80 CA         -0.0332  -26.7170  -47.8518 C.3       14 UNK         0.1400 
     81 CB          0.2792  -25.3691  -48.5210 C.3       14 UNK        -0.1800 
     82 C          -1.3191  -27.3264  -48.4479 C.2       14 UNK         0.5000 
     83 O          -1.3432  -27.5785  -49.6517 O.2       14 UNK        -0.5000 
     84 N          -2.3708  -27.5206  -47.6342 N.am      15 UNK        -0.5000 
     85 CA         -3.6903  -28.0458  -48.0111 C.3       15 UNK         0.1400 
     86 CB         -3.5963  -29.5441  -48.3660 C.3       15 UNK        -0.1800 
     87 C          -4.3635  -27.2014  -49.1141 C.2       15 UNK         0.5000 
     88 O          -4.9044  -27.7421  -50.0801 O.2       15 UNK        -0.5000 
     89 N          -4.2694  -25.8755  -48.9481 N.am      16 UNK        -0.5000 
     90 CA         -4.7566  -24.8109  -49.8267 C.3       16 UNK         0.1400 
     91 CB         -6.2961  -24.8403  -49.9194 C.3       16 UNK        -0.1800 
     92 C          -4.0847  -24.7384  -51.2160 C.2       16 UNK         0.5000 
     93 O          -4.5699  -23.9958  -52.0708 O.2       16 UNK        -0.5000 
     94 N          -2.9722  -25.4593  -51.4299 N.am      17 UNK        -0.5000 
     95 CA         -2.2400  -25.4701  -52.7009 C.3       17 UNK         0.1400 
     96 CB         -1.1696  -26.5703  -52.6810 C.3       17 UNK        -0.1800 
     97 C          -1.6083  -24.1091  -53.0447 C.2       17 UNK         0.5000 
     98 O          -1.6300  -23.7080  -54.2082 O.2       17 UNK        -0.5000 
     99 N          -1.0860  -23.4133  -52.0255 N.am      18 UNK        -0.5000 
    100 CA        -0.5720  -22.0500  -52.1543 C.3       18 UNK         0.1400 
    101 CB         0.5042  -21.8014  -51.0902 C.3       18 UNK        -0.1800 
    102 C         -1.7033  -21.0085  -52.0840 C.2       18 UNK         0.5000 
    103 O         -1.6494  -20.0128  -52.8047 O.2       18 UNK        -0.5000 
    104 N         -2.7426  -21.2777  -51.2778 N.am      19 UNK        -0.5000 
    105 CA        -3.9433  -20.4425  -51.1489 C.3       19 UNK         0.1400 
    106 CB        -4.8644  -21.0107  -50.0666 C.3       19 UNK        -0.1800 
    107 C         -4.7250  -20.2510  -52.4635 C.2       19 UNK         0.5000 
    108 O         -5.3894  -19.2279  -52.6298 O.2       19 UNK        -0.5000 
    109 N         -4.5926  -21.2046  -53.3947 N.am      20 UNK        -0.5000 
    110 CA        -5.0970  -21.1171  -54.7649 C.3       20 UNK         0.1400 
    111 CB        -4.8595  -22.4603  -55.4706 C.3       20 UNK        -0.1800 
    112 C         -4.4787  -19.9590  -55.5783 C.2       20 UNK         0.5000 
    113 O         -5.1464  -19.4338  -56.4700 O.2       20 UNK        -0.5000 
    114 N         -3.2370  -19.5666  -55.2533 N.am      21 UNK        -0.5000 
    115 CA        -2.5740  -18.3896  -55.8168 C.3       21 UNK         0.1400 
    116 CB        -1.0525  -18.6055  -55.8218 C.3       21 UNK        -0.1800 
    117 C         -2.9420  -17.1071  -55.0472 C.2       21 UNK         0.5000 
    118 O         -3.0097  -16.0401  -55.6589 O.2       21 UNK        -0.5000 
    119 N         -3.1802  -17.2288  -53.7331 N.am      22 UNK        -0.5000 
    120 CA        -3.6580  -16.1427  -52.8590 C.3       22 UNK         0.1400 
    121 C         -5.0846  -15.6488  -53.2280 C.2       22 UNK         0.5000 
    122 N         -6.0246  -16.5486  -53.4901 N.am      22 UNK        -0.7600 
    123 O         -5.3376  -14.4482  -53.2749 O.2       22 UNK        -0.5000 
    124 C124       -3.6135  -16.5216  -51.3559 C.3       23 UNK        -0.0398 
    125 S125       -1.9663  -17.0727  -50.7951 S.3       23 UNK        -0.2404 
    126 C126       -1.6093  -15.8381  -49.5077 C.3       23 UNK        -0.0205 
    127 H127       -0.3694   -7.8215  -44.2400 H         1 UNK         0.0600 
    128 H128       -1.6198   -8.7830  -43.4456 H         1 UNK         0.0600 
    129 H129       -2.0337   -7.7694  -44.8312 H         1 UNK         0.0600 
    130 H130       -1.5173  -10.9381  -43.9836 H         1 UNK         0.3000 
    131 H131       -1.5807  -11.9845  -46.5727 H         1 UNK         0.0600 
    132 H132       -0.6604  -13.4140  -44.0351 H         1 UNK         0.0800 
    133 H133       -1.1802  -14.2045  -45.4845 H         1 UNK         0.0800 
    134 H134       -4.1038  -12.9183  -46.3301 H         1 UNK         0.0800 
    135 H135       -5.0876  -13.9187  -45.2956 H         1 UNK         0.0800 
    136 H136       -2.7406  -13.9178  -47.9943 H         1 UNK         0.1150 
    137 H137       -2.1977  -18.1662  -48.1272 H         1 UNK         0.1150 
    138 H138       -4.2737  -16.3683  -44.8338 H         1 UNK         0.1150 
    139 H139       -2.4927  -19.3270  -45.8217 H         1 UNK         0.0800 
    140 H140       -3.6847  -18.6894  -44.7211 H         1 UNK         0.0800 
    141 H141       -5.7184  -21.6995  -45.5770 H         1 UNK         0.0800 
    142 H142       -4.3591  -21.1413  -44.6378 H         1 UNK         0.0800 
    143 H143       -4.1736  -22.5271  -47.3668 H         1 UNK         0.0600 
    144 H144       -2.0159  -21.6989  -45.4857 H         1 UNK         0.3000 
    145 H145        0.5079  -22.2658  -47.7540 H         1 UNK         0.0600 
    146 H146        1.1073  -19.8765  -47.7385 H         1 UNK         0.0600 
    147 H147       -0.2543  -20.1083  -48.8283 H         1 UNK         0.0600 
    148 H148       -0.5189  -19.4305  -47.2369 H         1 UNK         0.0600 
    149 H149        0.3530  -20.6823  -45.3473 H         1 UNK         0.3000 
    150 H150        0.3975  -23.4388  -43.0985 H         1 UNK         0.0600 
    151 H151        2.7720  -23.4687  -43.8456 H         1 UNK         0.0600 
    152 H152        2.5803  -22.6140  -42.3252 H         1 UNK         0.0600 
    153 H153        2.8148  -21.7144  -43.8224 H         1 UNK         0.0600 
    154 H154        0.8759  -20.8572  -42.3524 H         1 UNK         0.3000 
    155 H155       -2.5861  -19.9641  -41.8769 H         1 UNK         0.0600 
    156 H156       -0.0498  -20.4795  -40.2308 H         1 UNK         0.0600 
    157 H157       -1.5561  -21.3820  -40.1022 H         1 UNK         0.0600 
    158 H158       -1.5155  -19.6792  -39.6739 H         1 UNK         0.0600 
    159 H159        0.1386  -18.7628  -42.2539 H         1 UNK         0.3000 
    160 H160       -1.2071  -16.0062  -43.8241 H         1 UNK         0.0600 
    161 H161       -0.1421  -15.8622  -40.9484 H         1 UNK         0.0600 
    162 H162       -1.5958  -15.0816  -41.5600 H         1 UNK         0.0600 
    163 H163       -0.0174  -14.5594  -42.1249 H         1 UNK         0.0600 
    164 H164        1.4171  -16.2749  -42.9515 H         1 UNK         0.3000 
    165 H165        3.0299  -16.8189  -44.2878 H         1 UNK         0.0600 
    166 H166        4.1694  -18.9706  -44.7013 H         1 UNK         0.0600 
    167 H167        2.9445  -19.1966  -43.4632 H         1 UNK         0.0600 
    168 H168        2.6396  -19.7446  -45.1105 H         1 UNK         0.0600 
    169 H169        3.0681  -18.0794  -46.8284 H         1 UNK         0.3000 
    170 H170        3.7146  -16.1714  -48.5701 H         1 UNK         0.0600 
    171 H171        2.5036  -18.2340  -48.9378 H         1 UNK         0.0600 
    172 H172        0.9368  -17.4605  -48.7961 H         1 UNK         0.0600 
    173 H173        1.9394  -17.1860  -50.2163 H         1 UNK         0.0600 
    174 H174        1.5961  -14.2848  -48.3288 H         1 UNK         0.3000 
    175 H175        2.2870  -12.7873  -51.5948 H         1 UNK         0.0600 
    176 H176       -0.1513  -13.2623  -49.8226 H         1 UNK         0.0600 
    177 H177       -0.0594  -12.2538  -51.2599 H         1 UNK         0.0600 
    178 H178        0.0841  -13.9992  -51.4092 H         1 UNK         0.0600 
    179 H179        1.7068  -12.0468  -48.7551 H         1 UNK         0.3000 
    180 H180        4.2132   -9.5991  -48.7240 H         1 UNK         0.0600 
    181 H181        2.4577   -7.9040  -48.2583 H         1 UNK         0.0600 
    182 H182        1.2358   -8.9224  -49.0194 H         1 UNK         0.0600 
    183 H183        2.5379   -8.2321  -49.9823 H         1 UNK         0.0600 
    184 H184        1.9375  -10.1521  -47.0323 H         1 UNK         0.3000 
    185 H185        3.1172  -13.0171  -45.4760 H         1 UNK         0.0600 
    186 H186        3.2613  -11.8044  -43.3270 H         1 UNK         0.0600 
    187 H187        4.6841  -11.4631  -44.2963 H         1 UNK         0.0600 
    188 H188        3.4049  -10.2614  -44.1712 H         1 UNK         0.0600 
    189 H189        1.1597  -11.3501  -44.4720 H         1 UNK         0.3000 
    190 H190       -2.8808  -23.0994  -44.0561 H         1 UNK         0.3000 
    191 H191       -4.4492  -25.4902  -43.6719 H         1 UNK         0.0600 
    192 H192       -3.1747  -25.5712  -41.5051 H         1 UNK         0.0600 
    193 H193       -3.9375  -24.0164  -41.7931 H         1 UNK         0.0600 
    194 H194       -2.2053  -24.1982  -42.0307 H         1 UNK         0.0600 
    195 H195       -0.8973  -25.2217  -43.3347 H         1 UNK         0.3000 
    196 H196       -0.4538  -27.9717  -43.4709 H         1 UNK         0.0600 
    197 H197        1.5416  -25.6917  -43.9282 H         1 UNK         0.0600 
    198 H198        1.0703  -26.3487  -42.3601 H         1 UNK         0.0600 
    199 H199        1.9513  -27.3470  -43.5053 H         1 UNK         0.0600 
    200 H200       -0.1944  -25.5619  -46.0773 H         1 UNK         0.3000 
    201 H201        0.7851  -27.4040  -48.0767 H         1 UNK         0.0600 
    202 H202       -0.5318  -24.6592  -48.3695 H         1 UNK         0.0600 
    203 H203        0.4203  -25.4835  -49.5963 H         1 UNK         0.0600 
    204 H204        1.1917  -24.9281  -48.1193 H         1 UNK         0.0600 
    205 H205       -2.2730  -27.2810  -46.6533 H         1 UNK         0.3000 
    206 H206       -4.3223  -27.9538  -47.1266 H         1 UNK         0.0600 
    207 H207       -3.1338  -30.1108  -47.5578 H         1 UNK         0.0600 
    208 H208       -4.5867  -29.9684  -48.5341 H         1 UNK         0.0600 
    209 H209       -3.0107  -29.7113  -49.2705 H         1 UNK         0.0600 
    210 H210       -3.8665  -25.5520  -48.0758 H         1 UNK         0.3000 
    211 H211       -4.4776  -23.8855  -49.3242 H         1 UNK         0.0600 
    212 H212       -6.6791  -23.9689  -50.4512 H         1 UNK         0.0600 
    213 H213       -6.7490  -24.8361  -48.9278 H         1 UNK         0.0600 
    214 H214       -6.6531  -25.7239  -50.4487 H         1 UNK         0.0600 
    215 H215       -2.6322  -26.0761  -50.7022 H         1 UNK         0.3000 
    216 H216       -2.9540  -25.7109  -53.4916 H         1 UNK         0.0600 
    217 H217       -0.4139  -26.3843  -51.9172 H         1 UNK         0.0600 
    218 H218       -0.6559  -26.6319  -53.6412 H         1 UNK         0.0600 
    219 H219       -1.6115  -27.5476  -52.4858 H         1 UNK         0.0600 
    220 H220       -1.1182  -23.8087  -51.0974 H         1 UNK         0.3000 
    221 H221       -0.0937  -21.9366  -53.1299 H         1 UNK         0.0600 
    222 H222        1.3894  -22.4075  -51.2830 H         1 UNK         0.0600 
    223 H223        0.1460  -22.0529  -50.0954 H         1 UNK         0.0600 
    224 H224        0.8197  -20.7571  -51.0812 H         1 UNK         0.0600 
    225 H225       -2.6818  -22.0791  -50.6650 H         1 UNK         0.3000 
    226 H226       -3.6076  -19.4632  -50.8129 H         1 UNK         0.0600 
    227 H227       -5.3176  -21.9507  -50.3751 H         1 UNK         0.0600 
    228 H228       -4.3165  -21.1757  -49.1428 H         1 UNK         0.0600 
    229 H229       -5.6752  -20.3162  -49.8434 H         1 UNK         0.0600 
    230 H230       -4.0941  -22.0495  -53.1451 H         1 UNK         0.3000 
    231 H231       -6.1736  -20.9439  -54.7102 H         1 UNK         0.0600 
    232 H232       -3.7960  -22.6848  -55.5571 H         1 UNK         0.0600 
    233 H233       -5.2766  -22.4514  -56.4783 H         1 UNK         0.0600 
    234 H234       -5.3320  -23.2804  -54.9292 H         1 UNK         0.0600 
    235 H235       -2.7584  -20.0211  -54.4830 H         1 UNK         0.3000 
    236 H236       -2.8919  -18.2602  -56.8536 H         1 UNK         0.0600 
    237 H237       -0.7842  -19.5174  -56.3554 H         1 UNK         0.0600 
    238 H238       -0.5464  -17.7768  -56.3183 H         1 UNK         0.0600 
    239 H239       -0.6467  -18.6746  -54.8125 H         1 UNK         0.0600 
    240 H240       -3.0592  -18.1331  -53.2998 H         1 UNK         0.3000 
    241 H241       -2.9806  -15.2984  -53.0025 H         1 UNK         0.0600 
    242 H242       -6.9539  -16.2463  -53.7342 H         1 UNK         0.3800 
    243 H243       -5.8292  -17.5392  -53.3666 H         1 UNK         0.3800 
    244 H244       -4.3315  -17.3104  -51.1342 H         1 UNK         0.0800 
    245 H245       -3.9295  -15.6697  -50.7512 H         1 UNK         0.0800 
    246 H246       -1.8104  -14.8537  -49.9297 H         1 UNK         0.0800 
    247 H247       -0.5474  -15.8558  -49.2730 H         1 UNK         0.0800 
@<TRIPOS>BOND
     1    1    2 1    
     2    1  127 1    
     3    1  128 1    
     4    1  129 1    
     5    2    3 2    
     6    2    4 am   BACKBONE|DICT|INTERRES
     7    4    5 1    
     8    4  130 1    
     9    5    6 1    
    10    5   65 1    
    11    5  131 1    
    12    6    7 1    
    13    6  132 1    
    14    6  133 1    
    15    7    8 1    
    16    8    9 1    
    17    8  134 1    
    18    8  135 1    
    19    9   10 ar   
    20    9   14 ar   
    21   10   11 ar   
    22   10  136 1    
    23   11   12 ar   
    24   11  126 1    
    25   12   13 ar   
    26   12  137 1    
    27   13   14 ar   
    28   13   15 1    
    29   14  138 1    
    30   15   16 1    
    31   15  139 1    
    32   15  140 1    
    33   16   17 1    
    34   17   18 1    
    35   17  141 1    
    36   17  142 1    
    37   18   19 1    
    38   18   67 1    
    39   18  143 1    
    40   19   20 am   BACKBONE|DICT|INTERRES
    41   19  144 1    
    42   20   21 2    
    43   20   22 1    
    44   22   23 1    
    45   22   24 1    
    46   22  145 1    
    47   23  146 1    
    48   23  147 1    
    49   23  148 1    
    50   24   25 am   BACKBONE|DICT|INTERRES
    51   24  149 1    
    52   25   26 2    
    53   25   27 1    
    54   27   28 1    
    55   27   29 1    
    56   27  150 1    
    57   28  151 1    
    58   28  152 1    
    59   28  153 1    
    60   29   30 am   BACKBONE|DICT|INTERRES
    61   29  154 1    
    62   30   31 2    
    63   30   32 1    
    64   32   33 1    
    65   32   34 1    
    66   32  155 1    
    67   33  156 1    
    68   33  157 1    
    69   33  158 1    
    70   34   35 am   BACKBONE|DICT|INTERRES
    71   34  159 1    
    72   35   36 2    
    73   35   37 1    
    74   37   38 1    
    75   37   39 1    
    76   37  160 1    
    77   38  161 1    
    78   38  162 1    
    79   38  163 1    
    80   39   40 am   BACKBONE|DICT|INTERRES
    81   39  164 1    
    82   40   41 2    
    83   40   42 1    
    84   42   43 1    
    85   42   44 1    
    86   42  165 1    
    87   43  166 1    
    88   43  167 1    
    89   43  168 1    
    90   44   45 am   BACKBONE|DICT|INTERRES
    91   44  169 1    
    92   45   46 2    
    93   45   47 1    
    94   47   48 1    
    95   47   49 1    
    96   47  170 1    
    97   48  171 1    
    98   48  172 1    
    99   48  173 1    
   100   49   50 am   BACKBONE|DICT|INTERRES
   101   49  174 1    
   102   50   51 2    
   103   50   52 1    
   104   52   53 1    
   105   52   54 1    
   106   52  175 1    
   107   53  176 1    
   108   53  177 1    
   109   53  178 1    
   110   54   55 am   BACKBONE|DICT|INTERRES
   111   54  179 1    
   112   55   56 2    
   113   55   57 1    
   114   57   58 1    
   115   57   59 1    
   116   57  180 1    
   117   58  181 1    
   118   58  182 1    
   119   58  183 1    
   120   59   60 am   BACKBONE|DICT|INTERRES
   121   59  184 1    
   122   60   61 2    
   123   60   62 1    
   124   62   63 1    
   125   62   64 1    
   126   62  185 1    
   127   63  186 1    
   128   63  187 1    
   129   63  188 1    
   130   64   65 am   BACKBONE|DICT|INTERRES
   131   64  189 1    
   132   65   66 2    
   133   67   68 2    
   134   67   69 am   BACKBONE|DICT|INTERRES
   135   69   70 1    
   136   69  190 1    
   137   70   71 1    
   138   70   72 1    
   139   70  191 1    
   140   71  192 1    
   141   71  193 1    
   142   71  194 1    
   143   72   73 2    
   144   72   74 am   BACKBONE|DICT|INTERRES
   145   74   75 1    
   146   74  195 1    
   147   75   76 1    
   148   75   77 1    
   149   75  196 1    
   150   76  197 1    
   151   76  198 1    
   152   76  199 1    
   153   77   78 2    
   154   77   79 am   BACKBONE|DICT|INTERRES
   155   79   80 1    
   156   79  200 1    
   157   80   81 1    
   158   80   82 1    
   159   80  201 1    
   160   81  202 1    
   161   81  203 1    
   162   81  204 1    
   163   82   83 2    
   164   82   84 am   BACKBONE|DICT|INTERRES
   165   84   85 1    
   166   84  205 1    
   167   85   86 1    
   168   85   87 1    
   169   85  206 1    
   170   86  207 1    
   171   86  208 1    
   172   86  209 1    
   173   87   88 2    
   174   87   89 am   BACKBONE|DICT|INTERRES
   175   89   90 1    
   176   89  210 1    
   177   90   91 1    
   178   90   92 1    
   179   90  211 1    
   180   91  212 1    
   181   91  213 1    
   182   91  214 1    
   183   92   93 2    
   184   92   94 am   BACKBONE|DICT|INTERRES
   185   94   95 1    
   186   94  215 1    
   187   95   96 1    
   188   95   97 1    
   189   95  216 1    
   190   96  217 1    
   191   96  218 1    
   192   96  219 1    
   193   97   98 2    
   194   97   99 am   BACKBONE|DICT|INTERRES
   195   99  100 1    
   196   99  220 1    
   197  100  101 1    
   198  100  102 1    
   199  100  221 1    
   200  101  222 1    
   201  101  223 1    
   202  101  224 1    
   203  102  103 2    
   204  102  104 am   BACKBONE|DICT|INTERRES
   205  104  105 1    
   206  104  225 1    
   207  105  106 1    
   208  105  107 1    
   209  105  226 1    
   210  106  227 1    
   211  106  228 1    
   212  106  229 1    
   213  107  108 2    
   214  107  109 am   BACKBONE|DICT|INTERRES
   215  109  110 1    
   216  109  230 1    
   217  110  111 1    
   218  110  112 1    
   219  110  231 1    
   220  111  232 1    
   221  111  233 1    
   222  111  234 1    
   223  112  113 2    
   224  112  114 am   BACKBONE|DICT|INTERRES
   225  114  115 1    
   226  114  235 1    
   227  115  116 1    
   228  115  117 1    
   229  115  236 1    
   230  116  237 1    
   231  116  238 1    
   232  116  239 1    
   233  117  118 2    
   234  117  119 am   BACKBONE|DICT|INTERRES
   235  119  120 1    
   236  119  240 1    
   237  120  121 1    
   238  120  124 1    
   239  120  241 1    
   240  121  122 am   BACKBONE|DICT|INTERRES
   241  121  123 2    
   242  122  242 1    
   243  122  243 1    
   244  124  125 1    
   245  124  244 1    
   246  124  245 1    
   247  125  126 1    
   248  126  246 1    
   249  126  247 1    
@<TRIPOS>SUBSTRUCTURE
     1 UNK         1 GROUP             0       ****    0 ROOT    
