@<TRIPOS>MOLECULE
3R540
247   249    1
SMALL
USER_CHARGES


@<TRIPOS>ATOM
      1 CA          5.1493  -14.6722  -49.1643 C.3       0 UNK        -0.1800 
      2 C           3.9417  -14.8758  -48.2617 C.2       0 UNK         0.5000 
      3 O           3.9845  -14.5118  -47.0877 O.2       0 UNK        -0.5000 
      4 N           2.8545  -15.4382  -48.8053 N.am      1 UNK        -0.5000 
      5 CA          1.6029  -15.7244  -48.0902 C.3       1 UNK         0.1400 
      6 C6          0.6562  -16.6117  -48.9352 C.3       23 UNK        -0.0398 
      7 S7          0.0745  -15.8300  -50.4855 S.3       23 UNK        -0.2404 
      8 C8         -1.5309  -16.6545  -50.7277 C.3       23 UNK        -0.0205 
      9 C9         -1.3613  -18.0053  -51.4045 C.ar      23 UNK        -0.0193 
     10 C10        -1.6252  -18.1468  -52.7685 C.ar      23 UNK        -0.1150 
     11 C11        -1.4651  -19.3834  -53.3985 C.ar      23 UNK        -0.0193 
     12 C12        -1.0243  -20.4825  -52.6568 C.ar      23 UNK        -0.1150 
     13 C13        -0.7585  -20.3564  -51.2893 C.ar      23 UNK        -0.0193 
     14 C14        -0.9445  -19.1169  -50.6691 C.ar      23 UNK        -0.1150 
     15 C15        -0.3011  -21.5701  -50.4912 C.3       23 UNK        -0.0205 
     16 S16         1.2431  -21.2811  -49.5641 S.3       23 UNK        -0.2404 
     17 C17         0.6277  -20.8946  -47.8876 C.3       23 UNK        -0.0398 
     18 CA          0.6074  -22.1437  -46.9734 C.3       11 UNK         0.1400 
     19 N           0.7385  -21.8059  -45.5545 N.am      11 UNK        -0.5000 
     20 C           0.9234  -22.7092  -44.5800 C.2       10 UNK         0.5000 
     21 O           1.0552  -23.9166  -44.7802 O.2       10 UNK        -0.5000 
     22 CA          0.8992  -22.1855  -43.1347 C.3       10 UNK         0.1400 
     23 CB          2.2417  -21.5377  -42.7654 C.3       10 UNK        -0.1800 
     24 N          -0.1950  -21.2412  -42.9057 N.am      10 UNK        -0.5000 
     25 C          -1.4950  -21.5542  -43.0087 C.2       9 UNK         0.5000 
     26 O          -1.9054  -22.6897  -43.2487 O.2       9 UNK        -0.5000 
     27 CA         -2.5071  -20.4042  -42.8611 C.3       9 UNK         0.1400 
     28 CB         -2.7694  -20.1002  -41.3790 C.3       9 UNK        -0.1800 
     29 N          -2.0936  -19.1812  -43.5516 N.am      9 UNK        -0.5000 
     30 C          -1.9127  -19.0740  -44.8762 C.2       8 UNK         0.5000 
     31 O          -2.0852  -19.9977  -45.6698 O.2       8 UNK        -0.5000 
     32 CA         -1.3931  -17.7243  -45.4004 C.3       8 UNK         0.1400 
     33 CB         -2.5134  -16.6749  -45.4412 C.3       8 UNK        -0.1800 
     34 N          -0.2635  -17.2249  -44.6174 N.am      8 UNK        -0.5000 
     35 C           0.9160  -17.8534  -44.5101 C.2       7 UNK         0.5000 
     36 O           1.2032  -18.8821  -45.1236 O.2       7 UNK        -0.5000 
     37 CA          1.9174  -17.2671  -43.5018 C.3       7 UNK         0.1400 
     38 CB          2.6992  -16.0926  -44.1129 C.3       7 UNK        -0.1800 
     39 N           1.2502  -16.8451  -42.2680 N.am      7 UNK        -0.5000 
     40 C           0.7362  -17.6953  -41.3656 C.2       6 UNK         0.5000 
     41 O           0.8021  -18.9186  -41.4705 O.2       6 UNK        -0.5000 
     42 CA         -0.0054  -17.0866  -40.1604 C.3       6 UNK         0.1400 
     43 CB          0.9838  -16.7497  -39.0349 C.3       6 UNK        -0.1800 
     44 N          -0.7674  -15.8882  -40.5054 N.am      6 UNK        -0.5000 
     45 C          -1.8204  -15.8591  -41.3351 C.2       5 UNK         0.5000 
     46 O          -2.3123  -16.8616  -41.8505 O.2       5 UNK        -0.5000 
     47 CA         -2.3719  -14.4653  -41.6972 C.3       5 UNK         0.1400 
     48 CB         -3.4835  -14.0533  -40.7212 C.3       5 UNK        -0.1800 
     49 N          -1.3310  -13.4309  -41.7175 N.am      5 UNK        -0.5000 
     50 C          -0.2732  -13.4496  -42.5385 C.2       4 UNK         0.5000 
     51 O          -0.0951  -14.3143  -43.3995 O.2       4 UNK        -0.5000 
     52 CA          0.8049  -12.3892  -42.2937 C.3       4 UNK         0.1400 
     53 CB          1.7012  -12.8149  -41.1127 C.3       4 UNK        -0.1800 
     54 N           1.6002  -12.2465  -43.5075 N.am      4 UNK        -0.5000 
     55 C           2.4711  -11.2636  -43.7610 C.2       3 UNK         0.5000 
     56 O           2.7160  -10.3457  -42.9767 O.2       3 UNK        -0.5000 
     57 CA          3.1878  -11.3001  -45.1242 C.3       3 UNK         0.1400 
     58 CB          4.5093  -12.0742  -45.0082 C.3       3 UNK        -0.1800 
     59 N           2.3815  -11.8725  -46.2067 N.am      3 UNK        -0.5000 
     60 C           1.2545  -11.3227  -46.6877 C.2       2 UNK         0.5000 
     61 O           0.7643  -10.2857  -46.2384 O.2       2 UNK        -0.5000 
     62 CA          0.5615  -12.0109  -47.8820 C.3       2 UNK         0.1400 
     63 CB          0.6232  -11.1175  -49.1316 C.3       2 UNK        -0.1800 
     64 N           1.1282  -13.3143  -48.2221 N.am      2 UNK        -0.5000 
     65 C           0.8863  -14.4575  -47.5677 C.2       1 UNK         0.5000 
     66 O           0.1497  -14.5356  -46.5875 O.2       1 UNK        -0.5000 
     67 C          -0.6371  -23.0152  -47.2367 C.2       11 UNK         0.5000 
     68 O          -0.5298  -24.0210  -47.9371 O.2       11 UNK        -0.5000 
     69 N          -1.7822  -22.6393  -46.6479 N.am      12 UNK        -0.5000 
     70 CA         -3.0438  -23.3758  -46.7325 C.3       12 UNK         0.1400 
     71 CB         -4.1522  -22.6157  -45.9880 C.3       12 UNK        -0.1800 
     72 C          -2.9262  -24.8121  -46.1977 C.2       12 UNK         0.5000 
     73 O          -3.3814  -25.7413  -46.8618 O.2       12 UNK        -0.5000 
     74 N          -2.2814  -24.9704  -45.0345 N.am      13 UNK        -0.5000 
     75 CA         -2.0073  -26.2639  -44.4116 C.3       13 UNK         0.1400 
     76 CB         -1.4641  -26.0386  -42.9922 C.3       13 UNK        -0.1800 
     77 C          -1.0401  -27.1375  -45.2328 C.2       13 UNK         0.5000 
     78 O          -1.2634  -28.3435  -45.3455 O.2       13 UNK        -0.5000 
     79 N           0.0140  -26.5205  -45.7828 N.am      14 UNK        -0.5000 
     80 CA          1.0550  -27.2001  -46.5505 C.3       14 UNK         0.1400 
     81 CB          2.3011  -26.3033  -46.6260 C.3       14 UNK        -0.1800 
     82 C           0.6014  -27.6114  -47.9620 C.2       14 UNK         0.5000 
     83 O           0.8075  -28.7614  -48.3530 O.2       14 UNK        -0.5000 
     84 N           0.0326  -26.6608  -48.7133 N.am      15 UNK        -0.5000 
     85 CA         -0.2357  -26.8021  -50.1453 C.3       15 UNK         0.1400 
     86 CB          0.0623  -25.4583  -50.8307 C.3       15 UNK        -0.1800 
     87 C          -1.6743  -27.2376  -50.4672 C.2       15 UNK         0.5000 
     88 O          -1.9257  -27.6256  -51.6088 O.2       15 UNK        -0.5000 
     89 N          -2.5944  -27.1309  -49.4941 N.am      16 UNK        -0.5000 
     90 CA         -4.0496  -27.2796  -49.6543 C.3       16 UNK         0.1400 
     91 CB         -4.4292  -28.7264  -50.0363 C.3       16 UNK        -0.1800 
     92 C          -4.6294  -26.2160  -50.6149 C.2       16 UNK         0.5000 
     93 O          -5.4940  -26.5232  -51.4381 O.2       16 UNK        -0.5000 
     94 N          -4.1072  -24.9878  -50.5046 N.am      17 UNK        -0.5000 
     95 CA         -4.4016  -23.8514  -51.3731 C.3       17 UNK         0.1400 
     96 CB         -3.2384  -23.6742  -52.3719 C.3       17 UNK        -0.1800 
     97 C          -4.6934  -22.6013  -50.5207 C.2       17 UNK         0.5000 
     98 O          -5.3305  -22.7212  -49.4735 O.2       17 UNK        -0.5000 
     99 N          -4.2493  -21.4274  -50.9961 N.am      18 UNK        -0.5000 
    100 CA        -4.4299  -20.0873  -50.4150 C.3       18 UNK         0.1400 
    101 CB        -3.8513  -20.0054  -48.9865 C.3       18 UNK        -0.1800 
    102 C         -5.8781  -19.5544  -50.4841 C.2       18 UNK         0.5000 
    103 O         -6.1848  -18.5446  -49.8489 O.2       18 UNK        -0.5000 
    104 N         -6.7397  -20.2149  -51.2704 N.am      19 UNK        -0.5000 
    105 CA        -8.1335  -19.8250  -51.5019 C.3       19 UNK         0.1400 
    106 CB        -8.9023  -21.0425  -52.0388 C.3       19 UNK        -0.1800 
    107 C         -8.2753  -18.6296  -52.4663 C.2       19 UNK         0.5000 
    108 O         -9.3117  -17.9642  -52.4618 O.2       19 UNK        -0.5000 
    109 N         -7.2379  -18.3815  -53.2713 N.am      20 UNK        -0.5000 
    110 CA        -7.1146  -17.2882  -54.2259 C.3       20 UNK         0.1400 
    111 CB        -7.8284  -17.6600  -55.5385 C.3       20 UNK        -0.1800 
    112 C         -5.6189  -17.0243  -54.4553 C.2       20 UNK         0.5000 
    113 O         -4.7851  -17.8420  -54.0555 O.2       20 UNK        -0.5000 
    114 N         -5.3057  -15.8918  -55.0939 N.am      21 UNK        -0.5000 
    115 CA        -3.9490  -15.5122  -55.4887 C.3       21 UNK         0.1400 
    116 CB        -3.9364  -14.0138  -55.8303 C.3       21 UNK        -0.1800 
    117 C         -3.4414  -16.3423  -56.6847 C.2       21 UNK         0.5000 
    118 O         -4.2429  -16.8179  -57.4932 O.2       21 UNK        -0.5000 
    119 N         -2.1156  -16.4683  -56.7880 N.am      22 UNK        -0.5000 
    120 CA        -1.4103  -17.2108  -57.8475 C.3       22 UNK         0.1400 
    121 C         -0.0928  -16.5256  -58.3179 C.2       22 UNK         0.5000 
    122 N          0.1733  -15.2753  -57.9564 N.am      22 UNK        -0.7600 
    123 O          0.6948  -17.1224  -59.0473 O.2       22 UNK        -0.5000 
    124 C124       -1.2403  -18.7174  -57.5019 C.3       23 UNK        -0.0398 
    125 S125       -0.3838  -19.0158  -55.9140 S.3       23 UNK        -0.2404 
    126 C126       -1.7862  -19.5260  -54.8760 C.3       23 UNK        -0.0205 
    127 H127        4.9623  -15.0268  -50.1781 H         1 UNK         0.0600 
    128 H128        6.0084  -15.2128  -48.7671 H         1 UNK         0.0600 
    129 H129        5.4047  -13.6138  -49.2147 H         1 UNK         0.0600 
    130 H130        2.8656  -15.7004  -49.7812 H         1 UNK         0.3000 
    131 H131        1.8759  -16.3027  -47.2049 H         1 UNK         0.0600 
    132 H132        1.1619  -17.5438  -49.1913 H         1 UNK         0.0800 
    133 H133       -0.2066  -16.8982  -48.3341 H         1 UNK         0.0800 
    134 H134       -2.1629  -16.0081  -51.3387 H         1 UNK         0.0800 
    135 H135       -2.0522  -16.7702  -49.7764 H         1 UNK         0.0800 
    136 H136       -1.9601  -17.2958  -53.3436 H         1 UNK         0.1150 
    137 H137       -0.8937  -21.4372  -53.1469 H         1 UNK         0.1150 
    138 H138       -0.7569  -19.0097  -49.6130 H         1 UNK         0.1150 
    139 H139       -1.1041  -21.8870  -49.8268 H         1 UNK         0.0800 
    140 H140       -0.1185  -22.4082  -51.1644 H         1 UNK         0.0800 
    141 H141       -0.3479  -20.4082  -47.9232 H         1 UNK         0.0800 
    142 H142        1.3124  -20.1503  -47.4797 H         1 UNK         0.0800 
    143 H143        1.4817  -22.7525  -47.2154 H         1 UNK         0.0600 
    144 H144        0.6662  -20.8236  -45.3081 H         1 UNK         0.3000 
    145 H145        0.7438  -23.0416  -42.4750 H         1 UNK         0.0600 
    146 H146        2.2660  -21.2566  -41.7125 H         1 UNK         0.0600 
    147 H147        3.0688  -22.2279  -42.9359 H         1 UNK         0.0600 
    148 H148        2.4339  -20.6414  -43.3556 H         1 UNK         0.0600 
    149 H149        0.0679  -20.2970  -42.6394 H         1 UNK         0.3000 
    150 H150       -3.4467  -20.7321  -43.3097 H         1 UNK         0.0600 
    151 H151       -3.1033  -20.9937  -40.8500 H         1 UNK         0.0600 
    152 H152       -3.5461  -19.3443  -41.2631 H         1 UNK         0.0600 
    153 H153       -1.8717  -19.7377  -40.8781 H         1 UNK         0.0600 
    154 H154       -1.9736  -18.3541  -42.9725 H         1 UNK         0.3000 
    155 H155       -1.0439  -17.8854  -46.4209 H         1 UNK         0.0600 
    156 H156       -3.3468  -17.0202  -46.0543 H         1 UNK         0.0600 
    157 H157       -2.1612  -15.7373  -45.8705 H         1 UNK         0.0600 
    158 H158       -2.9048  -16.4595  -44.4473 H         1 UNK         0.0600 
    159 H159       -0.3963  -16.3533  -44.1172 H         1 UNK         0.3000 
    160 H160        2.6350  -18.0502  -43.2480 H         1 UNK         0.0600 
    161 H161        2.0416  -15.3010  -44.4706 H         1 UNK         0.0600 
    162 H162        3.2916  -16.4259  -44.9658 H         1 UNK         0.0600 
    163 H163        3.3887  -15.6551  -43.3909 H         1 UNK         0.0600 
    164 H164        1.0859  -15.8549  -42.1597 H         1 UNK         0.3000 
    165 H165       -0.7062  -17.8357  -39.7868 H         1 UNK         0.0600 
    166 H166        0.4634  -16.3918  -38.1464 H         1 UNK         0.0600 
    167 H167        1.5559  -17.6312  -38.7419 H         1 UNK         0.0600 
    168 H168        1.6963  -15.9821  -39.3397 H         1 UNK         0.0600 
    169 H169       -0.4389  -15.0154  -40.1209 H         1 UNK         0.3000 
    170 H170       -2.8006  -14.5307  -42.6994 H         1 UNK         0.0600 
    171 H171       -4.2810  -14.7974  -40.7024 H         1 UNK         0.0600 
    172 H172       -3.1080  -13.9484  -39.7025 H         1 UNK         0.0600 
    173 H173       -3.9334  -13.1044  -41.0136 H         1 UNK         0.0600 
    174 H174       -1.4103  -12.6960  -41.0291 H         1 UNK         0.3000 
    175 H175        0.3177  -11.4377  -42.0715 H         1 UNK         0.0600 
    176 H176        2.2259  -13.7477  -41.3235 H         1 UNK         0.0600 
    177 H177        2.4507  -12.0575  -40.8840 H         1 UNK         0.0600 
    178 H178        1.1158  -12.9641  -40.2048 H         1 UNK         0.0600 
    179 H179        1.4151  -12.9510  -44.2118 H         1 UNK         0.3000 
    180 H180        3.4234  -10.2694  -45.3976 H         1 UNK         0.0600 
    181 H181        4.3403  -13.1170  -44.7361 H         1 UNK         0.0600 
    182 H182        5.1534  -11.6365  -44.2446 H         1 UNK         0.0600 
    183 H183        5.0617  -12.0578  -45.9479 H         1 UNK         0.0600 
    184 H184        2.7247  -12.7315  -46.6195 H         1 UNK         0.3000 
    185 H185       -0.4880  -12.1470  -47.6125 H         1 UNK         0.0600 
    186 H186        0.1655  -10.1455  -48.9433 H         1 UNK         0.0600 
    187 H187        1.6517  -10.9403  -49.4487 H         1 UNK         0.0600 
    188 H188        0.0869  -11.5696  -49.9664 H         1 UNK         0.0600 
    189 H189        1.7494  -13.3453  -49.0172 H         1 UNK         0.3000 
    190 H190       -1.8037  -21.7680  -46.1223 H         1 UNK         0.3000 
    191 H191       -3.3153  -23.4299  -47.7876 H         1 UNK         0.0600 
    192 H192       -5.1225  -23.0823  -46.1612 H         1 UNK         0.0600 
    193 H193       -4.2249  -21.5827  -46.3222 H         1 UNK         0.0600 
    194 H194       -3.9837  -22.6012  -44.9118 H         1 UNK         0.0600 
    195 H195       -1.9715  -24.1442  -44.5297 H         1 UNK         0.3000 
    196 H196       -2.9535  -26.8029  -44.3309 H         1 UNK         0.0600 
    197 H197       -1.2631  -26.9879  -42.4942 H         1 UNK         0.0600 
    198 H198       -2.1816  -25.4938  -42.3784 H         1 UNK         0.0600 
    199 H199       -0.5346  -25.4682  -43.0031 H         1 UNK         0.0600 
    200 H200        0.1514  -25.5302  -45.6066 H         1 UNK         0.3000 
    201 H201        1.3349  -28.1097  -46.0148 H         1 UNK         0.0600 
    202 H202        2.6938  -26.0922  -45.6312 H         1 UNK         0.0600 
    203 H203        2.0832  -25.3490  -47.1073 H         1 UNK         0.0600 
    204 H204        3.0976  -26.7850  -47.1944 H         1 UNK         0.0600 
    205 H205       -0.1220  -25.7343  -48.3172 H         1 UNK         0.3000 
    206 H206        0.4359  -27.5488  -50.5744 H         1 UNK         0.0600 
    207 H207        1.0753  -25.1173  -50.6158 H         1 UNK         0.0600 
    208 H208       -0.0313  -25.5404  -51.9143 H         1 UNK         0.0600 
    209 H209       -0.6294  -24.6829  -50.5024 H         1 UNK         0.0600 
    210 H210       -2.2931  -26.8023  -48.5851 H         1 UNK         0.3000 
    211 H211       -4.5001  -27.0842  -48.6820 H         1 UNK         0.0600 
    212 H212       -4.0991  -28.9865  -51.0421 H         1 UNK         0.0600 
    213 H213       -5.5105  -28.8643  -50.0050 H         1 UNK         0.0600 
    214 H214       -3.9912  -29.4441  -49.3426 H         1 UNK         0.0600 
    215 H215       -3.4475  -24.8159  -49.7601 H         1 UNK         0.3000 
    216 H216       -5.3126  -24.0450  -51.9428 H         1 UNK         0.0600 
    217 H217       -3.4617  -22.9144  -53.1216 H         1 UNK         0.0600 
    218 H218       -3.0451  -24.6015  -52.9120 H         1 UNK         0.0600 
    219 H219       -2.3142  -23.3912  -51.8682 H         1 UNK         0.0600 
    220 H220       -3.7365  -21.4421  -51.8665 H         1 UNK         0.3000 
    221 H221       -3.8445  -19.4176  -51.0449 H         1 UNK         0.0600 
    222 H222       -4.5173  -20.4747  -48.2644 H         1 UNK         0.0600 
    223 H223       -2.8799  -20.4918  -48.9111 H         1 UNK         0.0600 
    224 H224       -3.7205  -18.9679  -48.6774 H         1 UNK         0.0600 
    225 H225       -6.4113  -21.0363  -51.7546 H         1 UNK         0.3000 
    226 H226       -8.5779  -19.5341  -50.5477 H         1 UNK         0.0600 
    227 H227       -8.8593  -21.8766  -51.3381 H         1 UNK         0.0600 
    228 H228       -9.9553  -20.8028  -52.1926 H         1 UNK         0.0600 
    229 H229       -8.5006  -21.3836  -52.9938 H         1 UNK         0.0600 
    230 H230       -6.3938  -18.9320  -53.1764 H         1 UNK         0.3000 
    231 H231       -7.5608  -16.3856  -53.8031 H         1 UNK         0.0600 
    232 H232       -8.8897  -17.8466  -55.3738 H         1 UNK         0.0600 
    233 H233       -7.3970  -18.5554  -55.9879 H         1 UNK         0.0600 
    234 H234       -7.7524  -16.8559  -56.2711 H         1 UNK         0.0600 
    235 H235       -6.0493  -15.2929  -55.4215 H         1 UNK         0.3000 
    236 H236       -3.2830  -15.6796  -54.6397 H         1 UNK         0.0600 
    237 H237       -2.9327  -13.6791  -56.0950 H         1 UNK         0.0600 
    238 H238       -4.5903  -13.7878  -56.6737 H         1 UNK         0.0600 
    239 H239       -4.2632  -13.4128  -54.9814 H         1 UNK         0.0600 
    240 H240       -1.5201  -16.0684  -56.0773 H         1 UNK         0.3000 
    241 H241       -2.0322  -17.1698  -58.7436 H         1 UNK         0.0600 
    242 H242        1.0271  -14.8452  -58.2771 H         1 UNK         0.3800 
    243 H243       -0.4819  -14.7324  -57.4180 H         1 UNK         0.3800 
    244 H244       -2.2213  -19.1934  -57.4779 H         1 UNK         0.0800 
    245 H245       -0.6947  -19.2370  -58.2910 H         1 UNK         0.0800 
    246 H246       -2.6585  -18.9172  -55.1135 H         1 UNK         0.0800 
    247 H247       -2.0575  -20.5557  -55.1135 H         1 UNK         0.0800 
@<TRIPOS>BOND
     1    1    2 1    
     2    1  127 1    
     3    1  128 1    
     4    1  129 1    
     5    2    3 2    
     6    2    4 am   BACKBONE|DICT|INTERRES
     7    4    5 1    
     8    4  130 1    
     9    5    6 1    
    10    5   65 1    
    11    5  131 1    
    12    6    7 1    
    13    6  132 1    
    14    6  133 1    
    15    7    8 1    
    16    8    9 1    
    17    8  134 1    
    18    8  135 1    
    19    9   10 ar   
    20    9   14 ar   
    21   10   11 ar   
    22   10  136 1    
    23   11   12 ar   
    24   11  126 1    
    25   12   13 ar   
    26   12  137 1    
    27   13   14 ar   
    28   13   15 1    
    29   14  138 1    
    30   15   16 1    
    31   15  139 1    
    32   15  140 1    
    33   16   17 1    
    34   17   18 1    
    35   17  141 1    
    36   17  142 1    
    37   18   19 1    
    38   18   67 1    
    39   18  143 1    
    40   19   20 am   BACKBONE|DICT|INTERRES
    41   19  144 1    
    42   20   21 2    
    43   20   22 1    
    44   22   23 1    
    45   22   24 1    
    46   22  145 1    
    47   23  146 1    
    48   23  147 1    
    49   23  148 1    
    50   24   25 am   BACKBONE|DICT|INTERRES
    51   24  149 1    
    52   25   26 2    
    53   25   27 1    
    54   27   28 1    
    55   27   29 1    
    56   27  150 1    
    57   28  151 1    
    58   28  152 1    
    59   28  153 1    
    60   29   30 am   BACKBONE|DICT|INTERRES
    61   29  154 1    
    62   30   31 2    
    63   30   32 1    
    64   32   33 1    
    65   32   34 1    
    66   32  155 1    
    67   33  156 1    
    68   33  157 1    
    69   33  158 1    
    70   34   35 am   BACKBONE|DICT|INTERRES
    71   34  159 1    
    72   35   36 2    
    73   35   37 1    
    74   37   38 1    
    75   37   39 1    
    76   37  160 1    
    77   38  161 1    
    78   38  162 1    
    79   38  163 1    
    80   39   40 am   BACKBONE|DICT|INTERRES
    81   39  164 1    
    82   40   41 2    
    83   40   42 1    
    84   42   43 1    
    85   42   44 1    
    86   42  165 1    
    87   43  166 1    
    88   43  167 1    
    89   43  168 1    
    90   44   45 am   BACKBONE|DICT|INTERRES
    91   44  169 1    
    92   45   46 2    
    93   45   47 1    
    94   47   48 1    
    95   47   49 1    
    96   47  170 1    
    97   48  171 1    
    98   48  172 1    
    99   48  173 1    
   100   49   50 am   BACKBONE|DICT|INTERRES
   101   49  174 1    
   102   50   51 2    
   103   50   52 1    
   104   52   53 1    
   105   52   54 1    
   106   52  175 1    
   107   53  176 1    
   108   53  177 1    
   109   53  178 1    
   110   54   55 am   BACKBONE|DICT|INTERRES
   111   54  179 1    
   112   55   56 2    
   113   55   57 1    
   114   57   58 1    
   115   57   59 1    
   116   57  180 1    
   117   58  181 1    
   118   58  182 1    
   119   58  183 1    
   120   59   60 am   BACKBONE|DICT|INTERRES
   121   59  184 1    
   122   60   61 2    
   123   60   62 1    
   124   62   63 1    
   125   62   64 1    
   126   62  185 1    
   127   63  186 1    
   128   63  187 1    
   129   63  188 1    
   130   64   65 am   BACKBONE|DICT|INTERRES
   131   64  189 1    
   132   65   66 2    
   133   67   68 2    
   134   67   69 am   BACKBONE|DICT|INTERRES
   135   69   70 1    
   136   69  190 1    
   137   70   71 1    
   138   70   72 1    
   139   70  191 1    
   140   71  192 1    
   141   71  193 1    
   142   71  194 1    
   143   72   73 2    
   144   72   74 am   BACKBONE|DICT|INTERRES
   145   74   75 1    
   146   74  195 1    
   147   75   76 1    
   148   75   77 1    
   149   75  196 1    
   150   76  197 1    
   151   76  198 1    
   152   76  199 1    
   153   77   78 2    
   154   77   79 am   BACKBONE|DICT|INTERRES
   155   79   80 1    
   156   79  200 1    
   157   80   81 1    
   158   80   82 1    
   159   80  201 1    
   160   81  202 1    
   161   81  203 1    
   162   81  204 1    
   163   82   83 2    
   164   82   84 am   BACKBONE|DICT|INTERRES
   165   84   85 1    
   166   84  205 1    
   167   85   86 1    
   168   85   87 1    
   169   85  206 1    
   170   86  207 1    
   171   86  208 1    
   172   86  209 1    
   173   87   88 2    
   174   87   89 am   BACKBONE|DICT|INTERRES
   175   89   90 1    
   176   89  210 1    
   177   90   91 1    
   178   90   92 1    
   179   90  211 1    
   180   91  212 1    
   181   91  213 1    
   182   91  214 1    
   183   92   93 2    
   184   92   94 am   BACKBONE|DICT|INTERRES
   185   94   95 1    
   186   94  215 1    
   187   95   96 1    
   188   95   97 1    
   189   95  216 1    
   190   96  217 1    
   191   96  218 1    
   192   96  219 1    
   193   97   98 2    
   194   97   99 am   BACKBONE|DICT|INTERRES
   195   99  100 1    
   196   99  220 1    
   197  100  101 1    
   198  100  102 1    
   199  100  221 1    
   200  101  222 1    
   201  101  223 1    
   202  101  224 1    
   203  102  103 2    
   204  102  104 am   BACKBONE|DICT|INTERRES
   205  104  105 1    
   206  104  225 1    
   207  105  106 1    
   208  105  107 1    
   209  105  226 1    
   210  106  227 1    
   211  106  228 1    
   212  106  229 1    
   213  107  108 2    
   214  107  109 am   BACKBONE|DICT|INTERRES
   215  109  110 1    
   216  109  230 1    
   217  110  111 1    
   218  110  112 1    
   219  110  231 1    
   220  111  232 1    
   221  111  233 1    
   222  111  234 1    
   223  112  113 2    
   224  112  114 am   BACKBONE|DICT|INTERRES
   225  114  115 1    
   226  114  235 1    
   227  115  116 1    
   228  115  117 1    
   229  115  236 1    
   230  116  237 1    
   231  116  238 1    
   232  116  239 1    
   233  117  118 2    
   234  117  119 am   BACKBONE|DICT|INTERRES
   235  119  120 1    
   236  119  240 1    
   237  120  121 1    
   238  120  124 1    
   239  120  241 1    
   240  121  122 am   BACKBONE|DICT|INTERRES
   241  121  123 2    
   242  122  242 1    
   243  122  243 1    
   244  124  125 1    
   245  124  244 1    
   246  124  245 1    
   247  125  126 1    
   248  126  246 1    
   249  126  247 1    
@<TRIPOS>SUBSTRUCTURE
     1 UNK         1 GROUP             0       ****    0 ROOT    
