@<TRIPOS>MOLECULE
3R540
247   249    1
SMALL
USER_CHARGES


@<TRIPOS>ATOM
      1 CA         -1.1492  -13.1819  -51.3537 C.3       0 UNK        -0.1800 
      2 C           0.0330  -12.9858  -50.4150 C.2       0 UNK         0.5000 
      3 O           0.9045  -12.1615  -50.6899 O.2       0 UNK        -0.5000 
      4 N           0.0660  -13.7446  -49.3109 N.am      1 UNK        -0.5000 
      5 CA          1.1292  -13.7054  -48.2952 C.3       1 UNK         0.1400 
      6 C6          1.2129  -15.0496  -47.5144 C.3       23 UNK        -0.0398 
      7 S7          2.8634  -15.8274  -47.5410 S.3       23 UNK        -0.2404 
      8 C8          3.1296  -16.2240  -49.3009 C.3       23 UNK        -0.0205 
      9 C9          2.1489  -17.2524  -49.8467 C.ar      23 UNK        -0.0193 
     10 C10         1.0594  -16.8384  -50.6170 C.ar      23 UNK        -0.1150 
     11 C11         0.1832  -17.7724  -51.1729 C.ar      23 UNK        -0.0193 
     12 C12         0.4149  -19.1343  -50.9701 C.ar      23 UNK        -0.1150 
     13 C13         1.5081  -19.5674  -50.2118 C.ar      23 UNK        -0.0193 
     14 C14         2.3641  -18.6190  -49.6408 C.ar      23 UNK        -0.1150 
     15 C15         1.8070  -21.0551  -50.0682 C.3       23 UNK        -0.0205 
     16 S16         0.3631  -22.0260  -49.5343 S.3       23 UNK        -0.2404 
     17 C17         0.1996  -21.5263  -47.7872 C.3       23 UNK        -0.0398 
     18 CA         -0.1024  -22.7368  -46.8726 C.3       11 UNK         0.1400 
     19 N           0.2552  -22.4796  -45.4761 N.am      11 UNK        -0.5000 
     20 C           0.2737  -23.4091  -44.5103 C.2       10 UNK         0.5000 
     21 O           0.0027  -24.5939  -44.6985 O.2       10 UNK        -0.5000 
     22 CA          0.5855  -22.9264  -43.0839 C.3       10 UNK         0.1400 
     23 CB          2.0893  -22.6744  -42.9017 C.3       10 UNK        -0.1800 
     24 N          -0.1729  -21.7253  -42.7357 N.am      10 UNK        -0.5000 
     25 C          -1.5103  -21.6821  -42.6489 C.2       9 UNK         0.5000 
     26 O          -2.2338  -22.6710  -42.7749 O.2       9 UNK        -0.5000 
     27 CA         -2.1503  -20.2998  -42.4269 C.3       9 UNK         0.1400 
     28 CB         -2.1332  -19.9266  -40.9373 C.3       9 UNK        -0.1800 
     29 N          -1.5090  -19.2400  -43.2080 N.am      9 UNK        -0.5000 
     30 C          -1.4865  -19.1834  -44.5480 C.2       8 UNK         0.5000 
     31 O          -2.0283  -20.0127  -45.2767 O.2       8 UNK        -0.5000 
     32 CA         -0.6786  -18.0373  -45.1840 C.3       8 UNK         0.1400 
     33 CB         -1.4589  -16.7162  -45.1073 C.3       8 UNK        -0.1800 
     34 N           0.6408  -17.8824  -44.5691 N.am      8 UNK        -0.5000 
     35 C           1.5893  -18.8313  -44.5700 C.2       7 UNK         0.5000 
     36 O           1.4770  -19.9102  -45.1505 O.2       7 UNK        -0.5000 
     37 CA          2.8461  -18.5629  -43.7267 C.3       7 UNK         0.1400 
     38 CB          3.8685  -17.7246  -44.5047 C.3       7 UNK        -0.1800 
     39 N           2.5192  -17.9065  -42.4614 N.am      7 UNK        -0.5000 
     40 C           1.8927  -18.5113  -41.4419 C.2       6 UNK         0.5000 
     41 O           1.5621  -19.6966  -41.4498 O.2       6 UNK        -0.5000 
     42 CA          1.5390  -17.6328  -40.2281 C.3       6 UNK         0.1400 
     43 CB          2.7439  -17.4975  -39.2854 C.3       6 UNK        -0.1800 
     44 N           1.0743  -16.3012  -40.6187 N.am      6 UNK        -0.5000 
     45 C          -0.0697  -16.0639  -41.2757 C.2       5 UNK         0.5000 
     46 O          -0.8769  -16.9416  -41.5774 O.2       5 UNK        -0.5000 
     47 CA         -0.3346  -14.6112  -41.7097 C.3       5 UNK         0.1400 
     48 CB         -1.0795  -13.8432  -40.6086 C.3       5 UNK        -0.1800 
     49 N           0.8799  -13.8782  -42.0711 N.am      5 UNK        -0.5000 
     50 C           1.7128  -14.1980  -43.0697 C.2       4 UNK         0.5000 
     51 O           1.5667  -15.1945  -43.7795 O.2       4 UNK        -0.5000 
     52 CA          2.8864  -13.2257  -43.3060 C.3       4 UNK         0.1400 
     53 CB          3.8744  -13.7217  -44.3743 C.3       4 UNK        -0.1800 
     54 N           2.3901  -11.9038  -43.6880 N.am      4 UNK        -0.5000 
     55 C           1.9264  -10.9839  -42.8294 C.2       3 UNK         0.5000 
     56 O           1.9293  -11.1404  -41.6070 O.2       3 UNK        -0.5000 
     57 CA          1.3319   -9.6899  -43.4175 C.3       3 UNK         0.1400 
     58 CB          2.3680   -8.5564  -43.3765 C.3       3 UNK        -0.1800 
     59 N           0.8380   -9.8316  -44.7876 N.am      3 UNK        -0.5000 
     60 C          -0.1956  -10.5943  -45.1697 C.2       2 UNK         0.5000 
     61 O          -0.8671  -11.2779  -44.3956 O.2       2 UNK        -0.5000 
     62 CA         -0.5413  -10.6009  -46.6727 C.3       2 UNK         0.1400 
     63 CB          0.0675   -9.4196  -47.4619 C.3       2 UNK        -0.1800 
     64 N          -0.1953  -11.8656  -47.3269 N.am      2 UNK        -0.5000 
     65 C           1.0020  -12.4747  -47.3640 C.2       1 UNK         0.5000 
     66 O           1.9879  -12.0843  -46.7367 O.2       1 UNK        -0.5000 
     67 C          -1.5620  -23.2140  -47.0264 C.2       11 UNK         0.5000 
     68 O          -1.8186  -24.1145  -47.8258 O.2       11 UNK        -0.5000 
     69 N          -2.4910  -22.6363  -46.2510 N.am      12 UNK        -0.5000 
     70 CA         -3.9014  -23.0316  -46.1981 C.3       12 UNK         0.1400 
     71 CB         -4.6825  -22.0753  -45.2858 C.3       12 UNK        -0.1800 
     72 C          -4.1042  -24.4958  -45.7703 C.2       12 UNK         0.5000 
     73 O          -4.9738  -25.1708  -46.3215 O.2       12 UNK        -0.5000 
     74 N          -3.2776  -24.9665  -44.8289 N.am      13 UNK        -0.5000 
     75 CA         -3.2504  -26.3572  -44.3876 C.3       13 UNK         0.1400 
     76 CB         -2.6110  -26.4327  -42.9919 C.3       13 UNK        -0.1800 
     77 C          -2.5096  -27.2706  -45.3823 C.2       13 UNK         0.5000 
     78 O          -3.0224  -28.3367  -45.7245 O.2       13 UNK        -0.5000 
     79 N          -1.3070  -26.8558  -45.8016 N.am      14 UNK        -0.5000 
     80 CA         -0.3671  -27.6900  -46.5505 C.3       14 UNK         0.1400 
     81 CB          1.0542  -27.1365  -46.3627 C.3       14 UNK        -0.1800 
     82 C          -0.6796  -27.8253  -48.0501 C.2       14 UNK         0.5000 
     83 O          -0.4328  -28.8932  -48.6130 O.2       14 UNK        -0.5000 
     84 N          -1.1649  -26.7498  -48.6826 N.am      15 UNK        -0.5000 
     85 CA         -1.2641  -26.6350  -50.1405 C.3       15 UNK         0.1400 
     86 CB          0.0211  -25.9763  -50.6779 C.3       15 UNK        -0.1800 
     87 C          -2.5300  -25.8861  -50.5900 C.2       15 UNK         0.5000 
     88 O          -2.5545  -25.3513  -51.7002 O.2       15 UNK        -0.5000 
     89 N          -3.5535  -25.8366  -49.7229 N.am      16 UNK        -0.5000 
     90 CA         -4.8560  -25.1896  -49.9351 C.3       16 UNK         0.1400 
     91 CB         -5.6885  -25.9939  -50.9555 C.3       16 UNK        -0.1800 
     92 C          -4.7473  -23.6938  -50.3085 C.2       16 UNK         0.5000 
     93 O          -5.5316  -23.2025  -51.1213 O.2       16 UNK        -0.5000 
     94 N          -3.7404  -23.0127  -49.7401 N.am      17 UNK        -0.5000 
     95 CA         -3.3693  -21.6106  -49.9707 C.3       17 UNK         0.1400 
     96 CB         -4.4700  -20.6566  -49.4620 C.3       17 UNK        -0.1800 
     97 C          -2.9522  -21.3244  -51.4295 C.2       17 UNK         0.5000 
     98 O          -3.1182  -20.2008  -51.9023 O.2       17 UNK        -0.5000 
     99 N          -2.4315  -22.3558  -52.1141 N.am      18 UNK        -0.5000 
    100 CA        -2.0934  -22.3932  -53.5398 C.3       18 UNK         0.1400 
    101 CB        -0.9482  -21.4146  -53.8730 C.3       18 UNK        -0.1800 
    102 C         -3.3300  -22.2305  -54.4519 C.2       18 UNK         0.5000 
    103 O         -3.2082  -21.7216  -55.5663 O.2       18 UNK        -0.5000 
    104 N         -4.4890  -22.6978  -53.9629 N.am      19 UNK        -0.5000 
    105 CA        -5.8164  -22.6381  -54.5774 C.3       19 UNK         0.1400 
    106 CB        -5.8407  -23.3795  -55.9335 C.3       19 UNK        -0.1800 
    107 C         -6.3810  -21.2024  -54.6468 C.2       19 UNK         0.5000 
    108 O         -5.9020  -20.3065  -53.9459 O.2       19 UNK        -0.5000 
    109 N         -7.4407  -21.0253  -55.4484 N.am      20 UNK        -0.5000 
    110 CA        -8.2044  -19.7866  -55.6001 C.3       20 UNK         0.1400 
    111 CB        -9.3423  -20.0162  -56.6069 C.3       20 UNK        -0.1800 
    112 C         -7.3285  -18.5962  -56.0296 C.2       20 UNK         0.5000 
    113 O         -6.6453  -18.6774  -57.0536 O.2       20 UNK        -0.5000 
    114 N         -7.3559  -17.5291  -55.2186 N.am      21 UNK        -0.5000 
    115 CA        -6.6374  -16.2605  -55.3927 C.3       21 UNK         0.1400 
    116 CB        -7.2460  -15.4661  -56.5675 C.3       21 UNK        -0.1800 
    117 C         -5.1028  -16.4080  -55.5119 C.2       21 UNK         0.5000 
    118 O         -4.4591  -15.5580  -56.1297 O.2       21 UNK        -0.5000 
    119 N         -4.5434  -17.4798  -54.9289 N.am      22 UNK        -0.5000 
    120 CA        -3.1292  -17.8769  -55.0504 C.3       22 UNK         0.1400 
    121 C         -2.7406  -18.4091  -56.4695 C.2       22 UNK         0.5000 
    122 N         -3.6869  -18.7373  -57.3435 N.am      22 UNK        -0.7600 
    123 O         -1.5632  -18.5382  -56.7930 O.2       22 UNK        -0.5000 
    124 C124       -2.1640  -16.7746  -54.5150 C.3       23 UNK        -0.0398 
    125 S125       -0.6225  -17.4230  -53.7856 S.3       23 UNK        -0.2404 
    126 C126       -0.9981  -17.3124  -52.0107 C.3       23 UNK        -0.0205 
    127 H127       -1.6458  -12.2290  -51.5368 H         1 UNK         0.0600 
    128 H128       -1.8846  -13.8734  -50.9420 H         1 UNK         0.0600 
    129 H129       -0.8066  -13.5787  -52.3095 H         1 UNK         0.0600 
    130 H130       -0.6846  -14.3985  -49.1403 H         1 UNK         0.3000 
    131 H131        2.0702  -13.5538  -48.8265 H         1 UNK         0.0600 
    132 H132        0.9460  -14.9175  -46.4651 H         1 UNK         0.0800 
    133 H133        0.5012  -15.7828  -47.8962 H         1 UNK         0.0800 
    134 H134        3.0944  -15.3116  -49.8970 H         1 UNK         0.0800 
    135 H135        4.1445  -16.6077  -49.4140 H         1 UNK         0.0800 
    136 H136        0.9057  -15.7873  -50.8054 H         1 UNK         0.1150 
    137 H137       -0.2473  -19.8580  -51.4231 H         1 UNK         0.1150 
    138 H138        3.2188  -18.9415  -49.0628 H         1 UNK         0.1150 
    139 H139        2.1358  -21.4321  -51.0374 H         1 UNK         0.0800 
    140 H140        2.6333  -21.2272  -49.3768 H         1 UNK         0.0800 
    141 H141       -0.5602  -20.7481  -47.6944 H         1 UNK         0.0800 
    142 H142        1.1383  -21.0632  -47.4825 H         1 UNK         0.0800 
    143 H143        0.5348  -23.5640  -47.1938 H         1 UNK         0.0600 
    144 H144        0.5245  -21.5258  -45.2458 H         1 UNK         0.3000 
    145 H145        0.2908  -23.7193  -42.3933 H         1 UNK         0.0600 
    146 H146        2.3201  -22.3976  -41.8729 H         1 UNK         0.0600 
    147 H147        2.6652  -23.5709  -43.1344 H         1 UNK         0.0600 
    148 H148        2.4486  -21.8764  -43.5509 H         1 UNK         0.0600 
    149 H149        0.3615  -20.8813  -42.5571 H         1 UNK         0.3000 
    150 H150       -3.1918  -20.3630  -42.7481 H         1 UNK         0.0600 
    151 H151       -2.6169  -20.6968  -40.3352 H         1 UNK         0.0600 
    152 H152       -2.6663  -18.9925  -40.7596 H         1 UNK         0.0600 
    153 H153       -1.1158  -19.8067  -40.5639 H         1 UNK         0.0600 
    154 H154       -1.0798  -18.4857  -42.6785 H         1 UNK         0.3000 
    155 H155       -0.5234  -18.2797  -46.2376 H         1 UNK         0.0600 
    156 H156       -2.4083  -16.7972  -45.6378 H         1 UNK         0.0600 
    157 H157       -0.9053  -15.8953  -45.5582 H         1 UNK         0.0600 
    158 H158       -1.6850  -16.4380  -44.0788 H         1 UNK         0.0600 
    159 H159        0.8405  -16.9979  -44.1120 H         1 UNK         0.3000 
    160 H160        3.3081  -19.5262  -43.5009 H         1 UNK         0.0600 
    161 H161        3.4664  -16.7484  -44.7704 H         1 UNK         0.0600 
    162 H162        4.1532  -18.2216  -45.4329 H         1 UNK         0.0600 
    163 H163        4.7780  -17.5685  -43.9248 H         1 UNK         0.0600 
    164 H164        2.6974  -16.9148  -42.4060 H         1 UNK         0.3000 
    165 H165        0.7327  -18.1277  -39.6825 H         1 UNK         0.0600 
    166 H166        2.4802  -16.9401  -38.3864 H         1 UNK         0.0600 
    167 H167        3.1003  -18.4777  -38.9659 H         1 UNK         0.0600 
    168 H168        3.5783  -16.9853  -39.7660 H         1 UNK         0.0600 
    169 H169        1.6793  -15.5214  -40.4078 H         1 UNK         0.3000 
    170 H170       -0.9735  -14.6422  -42.5942 H         1 UNK         0.0600 
    171 H171       -2.0036  -14.3532  -40.3332 H         1 UNK         0.0600 
    172 H172       -0.4753  -13.7458  -39.7058 H         1 UNK         0.0600 
    173 H173       -1.3493  -12.8408  -40.9421 H         1 UNK         0.0600 
    174 H174        1.0650  -13.0188  -41.5655 H         1 UNK         0.3000 
    175 H175        3.4379  -13.1435  -42.3671 H         1 UNK         0.0600 
    176 H176        3.3840  -13.8872  -45.3328 H         1 UNK         0.0600 
    177 H177        4.6794  -13.0038  -44.5315 H         1 UNK         0.0600 
    178 H178        4.3352  -14.6617  -44.0715 H         1 UNK         0.0600 
    179 H179        2.2990  -11.7330  -44.6842 H         1 UNK         0.3000 
    180 H180        0.4875   -9.4046  -42.7866 H         1 UNK         0.0600 
    181 H181        3.2284   -8.7753  -44.0101 H         1 UNK         0.0600 
    182 H182        2.7382   -8.4014  -42.3621 H         1 UNK         0.0600 
    183 H183        1.9352   -7.6130  -43.7101 H         1 UNK         0.0600 
    184 H184        1.3445   -9.3280  -45.5011 H         1 UNK         0.3000 
    185 H185       -1.6267  -10.5076  -46.7326 H         1 UNK         0.0600 
    186 H186       -0.2045   -8.4628  -47.0142 H         1 UNK         0.0600 
    187 H187        1.1558   -9.4706  -47.5110 H         1 UNK         0.0600 
    188 H188       -0.3034   -9.4085  -48.4870 H         1 UNK         0.0600 
    189 H189       -0.9398  -12.2887  -47.8617 H         1 UNK         0.3000 
    190 H190       -2.2225  -21.8417  -45.6755 H         1 UNK         0.3000 
    191 H191       -4.3160  -22.9306  -47.1989 H         1 UNK         0.0600 
    192 H192       -4.5989  -21.0447  -45.6309 H         1 UNK         0.0600 
    193 H193       -5.7433  -22.3282  -45.2743 H         1 UNK         0.0600 
    194 H194       -4.3268  -22.1147  -44.2572 H         1 UNK         0.0600 
    195 H195       -2.5983  -24.3383  -44.4179 H         1 UNK         0.3000 
    196 H196       -4.2775  -26.7187  -44.3020 H         1 UNK         0.0600 
    197 H197       -2.5886  -27.4604  -42.6274 H         1 UNK         0.0600 
    198 H198       -3.1754  -25.8427  -42.2694 H         1 UNK         0.0600 
    199 H199       -1.5854  -26.0619  -42.9937 H         1 UNK         0.0600 
    200 H200       -0.9416  -25.9726  -45.4509 H         1 UNK         0.3000 
    201 H201       -0.3882  -28.6942  -46.1214 H         1 UNK         0.0600 
    202 H202        1.3301  -27.1069  -45.3085 H         1 UNK         0.0600 
    203 H203        1.1472  -26.1255  -46.7615 H         1 UNK         0.0600 
    204 H204        1.7891  -27.7600  -46.8736 H         1 UNK         0.0600 
    205 H205       -1.3533  -25.8968  -48.1601 H         1 UNK         0.3000 
    206 H206       -1.3475  -27.6280  -50.5863 H         1 UNK         0.0600 
    207 H207        0.9058  -26.5467  -50.3950 H         1 UNK         0.0600 
    208 H208        0.0135  -25.9157  -51.7668 H         1 UNK         0.0600 
    209 H209        0.1386  -24.9639  -50.2912 H         1 UNK         0.0600 
    210 H210       -3.4260  -26.2818  -48.8249 H         1 UNK         0.3000 
    211 H211       -5.3808  -25.2260  -48.9803 H         1 UNK         0.0600 
    212 H212       -5.2513  -25.9555  -51.9539 H         1 UNK         0.0600 
    213 H213       -6.7045  -25.6040  -51.0278 H         1 UNK         0.0600 
    214 H214       -5.7654  -27.0410  -50.6631 H         1 UNK         0.0600 
    215 H215       -3.1173  -23.5287  -49.1242 H         1 UNK         0.3000 
    216 H216       -2.4846  -21.4257  -49.3635 H         1 UNK         0.0600 
    217 H217       -5.3772  -20.7280  -50.0626 H         1 UNK         0.0600 
    218 H218       -4.1352  -19.6195  -49.5010 H         1 UNK         0.0600 
    219 H219       -4.7331  -20.8689  -48.4263 H         1 UNK         0.0600 
    220 H220       -2.3723  -23.2536  -51.6464 H         1 UNK         0.3000 
    221 H221       -1.7204  -23.4009  -53.7271 H         1 UNK         0.0600 
    222 H222       -1.2598  -20.3759  -53.7707 H         1 UNK         0.0600 
    223 H223       -0.0899  -21.5748  -53.2205 H         1 UNK         0.0600 
    224 H224       -0.6047  -21.5486  -54.8992 H         1 UNK         0.0600 
    225 H225       -4.4917  -23.0197  -53.0023 H         1 UNK         0.3000 
    226 H226       -6.4711  -23.1827  -53.8957 H         1 UNK         0.0600 
    227 H227       -5.3473  -24.3488  -55.8605 H         1 UNK         0.0600 
    228 H228       -6.8617  -23.5696  -56.2652 H         1 UNK         0.0600 
    229 H229       -5.3417  -22.8094  -56.7179 H         1 UNK         0.0600 
    230 H230       -7.7554  -21.8076  -56.0027 H         1 UNK         0.3000 
    231 H231       -8.6528  -19.5629  -54.6300 H         1 UNK         0.0600 
    232 H232       -8.9596  -20.2932  -57.5901 H         1 UNK         0.0600 
    233 H233       -9.9416  -19.1132  -56.7309 H         1 UNK         0.0600 
    234 H234      -10.0138  -20.8071  -56.2722 H         1 UNK         0.0600 
    235 H235       -7.9230  -17.5855  -54.3838 H         1 UNK         0.3000 
    236 H236       -6.8106  -15.6853  -54.4821 H         1 UNK         0.0600 
    237 H237       -8.3247  -15.3582  -56.4541 H         1 UNK         0.0600 
    238 H238       -6.8268  -14.4608  -56.6232 H         1 UNK         0.0600 
    239 H239       -7.0566  -15.9535  -57.5245 H         1 UNK         0.0600 
    240 H240       -5.1441  -18.1533  -54.4689 H         1 UNK         0.3000 
    241 H241       -3.0404  -18.7436  -54.3942 H         1 UNK         0.0600 
    242 H242       -3.4168  -19.0903  -58.2471 H         1 UNK         0.3800 
    243 H243       -4.6725  -18.6583  -57.1135 H         1 UNK         0.3800 
    244 H244       -1.9023  -16.0728  -55.3085 H         1 UNK         0.0800 
    245 H245       -2.6647  -16.1736  -53.7549 H         1 UNK         0.0800 
    246 H246       -1.2613  -16.2847  -51.7577 H         1 UNK         0.0800 
    247 H247       -1.8738  -17.9202  -51.7831 H         1 UNK         0.0800 
@<TRIPOS>BOND
     1    1    2 1    
     2    1  127 1    
     3    1  128 1    
     4    1  129 1    
     5    2    3 2    
     6    2    4 am   BACKBONE|DICT|INTERRES
     7    4    5 1    
     8    4  130 1    
     9    5    6 1    
    10    5   65 1    
    11    5  131 1    
    12    6    7 1    
    13    6  132 1    
    14    6  133 1    
    15    7    8 1    
    16    8    9 1    
    17    8  134 1    
    18    8  135 1    
    19    9   10 ar   
    20    9   14 ar   
    21   10   11 ar   
    22   10  136 1    
    23   11   12 ar   
    24   11  126 1    
    25   12   13 ar   
    26   12  137 1    
    27   13   14 ar   
    28   13   15 1    
    29   14  138 1    
    30   15   16 1    
    31   15  139 1    
    32   15  140 1    
    33   16   17 1    
    34   17   18 1    
    35   17  141 1    
    36   17  142 1    
    37   18   19 1    
    38   18   67 1    
    39   18  143 1    
    40   19   20 am   BACKBONE|DICT|INTERRES
    41   19  144 1    
    42   20   21 2    
    43   20   22 1    
    44   22   23 1    
    45   22   24 1    
    46   22  145 1    
    47   23  146 1    
    48   23  147 1    
    49   23  148 1    
    50   24   25 am   BACKBONE|DICT|INTERRES
    51   24  149 1    
    52   25   26 2    
    53   25   27 1    
    54   27   28 1    
    55   27   29 1    
    56   27  150 1    
    57   28  151 1    
    58   28  152 1    
    59   28  153 1    
    60   29   30 am   BACKBONE|DICT|INTERRES
    61   29  154 1    
    62   30   31 2    
    63   30   32 1    
    64   32   33 1    
    65   32   34 1    
    66   32  155 1    
    67   33  156 1    
    68   33  157 1    
    69   33  158 1    
    70   34   35 am   BACKBONE|DICT|INTERRES
    71   34  159 1    
    72   35   36 2    
    73   35   37 1    
    74   37   38 1    
    75   37   39 1    
    76   37  160 1    
    77   38  161 1    
    78   38  162 1    
    79   38  163 1    
    80   39   40 am   BACKBONE|DICT|INTERRES
    81   39  164 1    
    82   40   41 2    
    83   40   42 1    
    84   42   43 1    
    85   42   44 1    
    86   42  165 1    
    87   43  166 1    
    88   43  167 1    
    89   43  168 1    
    90   44   45 am   BACKBONE|DICT|INTERRES
    91   44  169 1    
    92   45   46 2    
    93   45   47 1    
    94   47   48 1    
    95   47   49 1    
    96   47  170 1    
    97   48  171 1    
    98   48  172 1    
    99   48  173 1    
   100   49   50 am   BACKBONE|DICT|INTERRES
   101   49  174 1    
   102   50   51 2    
   103   50   52 1    
   104   52   53 1    
   105   52   54 1    
   106   52  175 1    
   107   53  176 1    
   108   53  177 1    
   109   53  178 1    
   110   54   55 am   BACKBONE|DICT|INTERRES
   111   54  179 1    
   112   55   56 2    
   113   55   57 1    
   114   57   58 1    
   115   57   59 1    
   116   57  180 1    
   117   58  181 1    
   118   58  182 1    
   119   58  183 1    
   120   59   60 am   BACKBONE|DICT|INTERRES
   121   59  184 1    
   122   60   61 2    
   123   60   62 1    
   124   62   63 1    
   125   62   64 1    
   126   62  185 1    
   127   63  186 1    
   128   63  187 1    
   129   63  188 1    
   130   64   65 am   BACKBONE|DICT|INTERRES
   131   64  189 1    
   132   65   66 2    
   133   67   68 2    
   134   67   69 am   BACKBONE|DICT|INTERRES
   135   69   70 1    
   136   69  190 1    
   137   70   71 1    
   138   70   72 1    
   139   70  191 1    
   140   71  192 1    
   141   71  193 1    
   142   71  194 1    
   143   72   73 2    
   144   72   74 am   BACKBONE|DICT|INTERRES
   145   74   75 1    
   146   74  195 1    
   147   75   76 1    
   148   75   77 1    
   149   75  196 1    
   150   76  197 1    
   151   76  198 1    
   152   76  199 1    
   153   77   78 2    
   154   77   79 am   BACKBONE|DICT|INTERRES
   155   79   80 1    
   156   79  200 1    
   157   80   81 1    
   158   80   82 1    
   159   80  201 1    
   160   81  202 1    
   161   81  203 1    
   162   81  204 1    
   163   82   83 2    
   164   82   84 am   BACKBONE|DICT|INTERRES
   165   84   85 1    
   166   84  205 1    
   167   85   86 1    
   168   85   87 1    
   169   85  206 1    
   170   86  207 1    
   171   86  208 1    
   172   86  209 1    
   173   87   88 2    
   174   87   89 am   BACKBONE|DICT|INTERRES
   175   89   90 1    
   176   89  210 1    
   177   90   91 1    
   178   90   92 1    
   179   90  211 1    
   180   91  212 1    
   181   91  213 1    
   182   91  214 1    
   183   92   93 2    
   184   92   94 am   BACKBONE|DICT|INTERRES
   185   94   95 1    
   186   94  215 1    
   187   95   96 1    
   188   95   97 1    
   189   95  216 1    
   190   96  217 1    
   191   96  218 1    
   192   96  219 1    
   193   97   98 2    
   194   97   99 am   BACKBONE|DICT|INTERRES
   195   99  100 1    
   196   99  220 1    
   197  100  101 1    
   198  100  102 1    
   199  100  221 1    
   200  101  222 1    
   201  101  223 1    
   202  101  224 1    
   203  102  103 2    
   204  102  104 am   BACKBONE|DICT|INTERRES
   205  104  105 1    
   206  104  225 1    
   207  105  106 1    
   208  105  107 1    
   209  105  226 1    
   210  106  227 1    
   211  106  228 1    
   212  106  229 1    
   213  107  108 2    
   214  107  109 am   BACKBONE|DICT|INTERRES
   215  109  110 1    
   216  109  230 1    
   217  110  111 1    
   218  110  112 1    
   219  110  231 1    
   220  111  232 1    
   221  111  233 1    
   222  111  234 1    
   223  112  113 2    
   224  112  114 am   BACKBONE|DICT|INTERRES
   225  114  115 1    
   226  114  235 1    
   227  115  116 1    
   228  115  117 1    
   229  115  236 1    
   230  116  237 1    
   231  116  238 1    
   232  116  239 1    
   233  117  118 2    
   234  117  119 am   BACKBONE|DICT|INTERRES
   235  119  120 1    
   236  119  240 1    
   237  120  121 1    
   238  120  124 1    
   239  120  241 1    
   240  121  122 am   BACKBONE|DICT|INTERRES
   241  121  123 2    
   242  122  242 1    
   243  122  243 1    
   244  124  125 1    
   245  124  244 1    
   246  124  245 1    
   247  125  126 1    
   248  126  246 1    
   249  126  247 1    
@<TRIPOS>SUBSTRUCTURE
     1 UNK         1 GROUP             0       ****    0 ROOT    
