@<TRIPOS>MOLECULE
3R540
247   249    1
SMALL
USER_CHARGES


@<TRIPOS>ATOM
      1 CA          7.8118  -13.7906  -50.5526 C.3       0 UNK        -0.1800 
      2 C           6.6127  -14.0885  -49.6630 C.2       0 UNK         0.5000 
      3 O           6.4054  -15.2397  -49.2793 O.2       0 UNK        -0.5000 
      4 N           5.8264  -13.0592  -49.3345 N.am      1 UNK        -0.5000 
      5 CA          4.6517  -13.1470  -48.4715 C.3       1 UNK         0.1400 
      6 C6          3.4311  -13.7970  -49.1869 C.3       23 UNK        -0.0398 
      7 S7          1.8512  -13.6670  -48.2813 S.3       23 UNK        -0.2404 
      8 C8          1.7528  -15.2835  -47.4506 C.3       23 UNK        -0.0205 
      9 C9          1.2107  -16.3770  -48.3598 C.ar      23 UNK        -0.0193 
     10 C10        -0.0554  -16.2463  -48.9397 C.ar      23 UNK        -0.1150 
     11 C11        -0.5657  -17.2472  -49.7700 C.ar      23 UNK        -0.0193 
     12 C12         0.1934  -18.3970  -50.0048 C.ar      23 UNK        -0.1150 
     13 C13         1.4548  -18.5475  -49.4198 C.ar      23 UNK        -0.0193 
     14 C14         1.9599  -17.5324  -48.6014 C.ar      23 UNK        -0.1150 
     15 C15         2.2769  -19.8017  -49.6822 C.3       23 UNK        -0.0205 
     16 S16         2.1632  -20.9992  -48.3146 S.3       23 UNK        -0.2404 
     17 C17         0.3854  -21.3977  -48.3482 C.3       23 UNK        -0.0398 
     18 CA          0.0283  -22.6308  -47.4889 C.3       11 UNK         0.1400 
     19 N           0.2630  -22.4062  -46.0570 N.am      11 UNK        -0.5000 
     20 C           0.1538  -23.3394  -45.1007 C.2       10 UNK         0.5000 
     21 O          -0.1706  -24.5058  -45.3213 O.2       10 UNK        -0.5000 
     22 CA          0.3816  -22.8847  -43.6494 C.3       10 UNK         0.1400 
     23 CB          1.8709  -22.6390  -43.3639 C.3       10 UNK        -0.1800 
     24 N          -0.4013  -21.6917  -43.3298 N.am      10 UNK        -0.5000 
     25 C          -1.7384  -21.6799  -43.2304 C.2       9 UNK         0.5000 
     26 O          -2.4357  -22.6910  -43.3172 O.2       9 UNK        -0.5000 
     27 CA         -2.4186  -20.3128  -43.0247 C.3       9 UNK         0.1400 
     28 CB         -2.4906  -19.9658  -41.5304 C.3       9 UNK        -0.1800 
     29 N          -1.7622  -19.2225  -43.7476 N.am      9 UNK        -0.5000 
     30 C          -1.6662  -19.1378  -45.0828 C.2       8 UNK         0.5000 
     31 O          -2.1538  -19.9590  -45.8579 O.2       8 UNK        -0.5000 
     32 CA         -0.8283  -17.9744  -45.6441 C.3       8 UNK         0.1400 
     33 CB         -1.6313  -16.6650  -45.6246 C.3       8 UNK        -0.1800 
     34 N           0.4351  -17.8004  -44.9246 N.am      8 UNK        -0.5000 
     35 C           1.3805  -18.7466  -44.8239 C.2       7 UNK         0.5000 
     36 O           1.3020  -19.8510  -45.3564 O.2       7 UNK        -0.5000 
     37 CA          2.5796  -18.4405  -43.9161 C.3       7 UNK         0.1400 
     38 CB          3.6214  -17.5830  -44.6487 C.3       7 UNK        -0.1800 
     39 N           2.1517  -17.7824  -42.6820 N.am      7 UNK        -0.5000 
     40 C           1.5155  -18.4105  -41.6823 C.2       6 UNK         0.5000 
     41 O           1.2776  -19.6184  -41.6790 O.2       6 UNK        -0.5000 
     42 CA          1.0369  -17.5423  -40.5028 C.3       6 UNK         0.1400 
     43 CB          2.1590  -17.3718  -39.4681 C.3       6 UNK        -0.1800 
     44 N           0.5609  -16.2227  -40.9211 N.am      6 UNK        -0.5000 
     45 C          -0.5421  -16.0127  -41.6531 C.2       5 UNK         0.5000 
     46 O          -1.2990  -16.9117  -42.0179 O.2       5 UNK        -0.5000 
     47 CA         -0.8192  -14.5612  -42.0948 C.3       5 UNK         0.1400 
     48 CB         -1.6534  -13.8264  -41.0353 C.3       5 UNK        -0.1800 
     49 N           0.3859  -13.7775  -42.3925 N.am      5 UNK        -0.5000 
     50 C           1.3236  -14.1231  -43.2853 C.2       4 UNK         0.5000 
     51 O           1.3030  -15.1816  -43.9165 O.2       4 UNK        -0.5000 
     52 CA          2.4672  -13.1102  -43.5014 C.3       4 UNK         0.1400 
     53 CB          3.6001  -13.6799  -44.3744 C.3       4 UNK        -0.1800 
     54 N           2.0535  -11.8069  -44.0398 N.am      4 UNK        -0.5000 
     55 C           1.1473  -11.5356  -44.9941 C.2       3 UNK         0.5000 
     56 O           0.3718  -12.3516  -45.4894 O.2       3 UNK        -0.5000 
     57 CA          1.1558  -10.1002  -45.5336 C.3       3 UNK         0.1400 
     58 CB          1.2697   -9.0266  -44.4339 C.3       3 UNK        -0.1800 
     59 N           2.2727   -9.9957  -46.4640 N.am      3 UNK        -0.5000 
     60 C           2.3081   -9.2610  -47.5782 C.2       2 UNK         0.5000 
     61 O           1.4068   -8.4923  -47.9157 O.2       2 UNK        -0.5000 
     62 CA          3.5453   -9.4225  -48.4892 C.3       2 UNK         0.1400 
     63 CB          4.7348   -8.5924  -47.9688 C.3       2 UNK        -0.1800 
     64 N           3.9317  -10.8184  -48.7579 N.am      2 UNK        -0.5000 
     65 C           4.4018  -11.7394  -47.9019 C.2       1 UNK         0.5000 
     66 O           4.6459  -11.5137  -46.7164 O.2       1 UNK        -0.5000 
     67 C          -1.4156  -23.0823  -47.7881 C.2       11 UNK         0.5000 
     68 O          -1.6175  -23.9071  -48.6807 O.2       11 UNK        -0.5000 
     69 N          -2.3941  -22.5719  -47.0278 N.am      12 UNK        -0.5000 
     70 CA         -3.8009  -22.9685  -47.1002 C.3       12 UNK         0.1400 
     71 CB         -4.6372  -22.0858  -46.1636 C.3       12 UNK        -0.1800 
     72 C          -4.0451  -24.4588  -46.7982 C.2       12 UNK         0.5000 
     73 O          -4.9897  -25.0282  -47.3437 O.2       12 UNK        -0.5000 
     74 N          -3.1871  -25.0611  -45.9655 N.am      13 UNK        -0.5000 
     75 CA         -3.2077  -26.4851  -45.6478 C.3       13 UNK         0.1400 
     76 CB         -2.8306  -26.6771  -44.1697 C.3       13 UNK        -0.1800 
     77 C          -2.2557  -27.2749  -46.5617 C.2       13 UNK         0.5000 
     78 O          -2.6630  -28.2867  -47.1326 O.2       13 UNK        -0.5000 
     79 N          -1.0022  -26.8136  -46.6686 N.am      14 UNK        -0.5000 
     80 CA          0.0957  -27.5358  -47.3125 C.3       14 UNK         0.1400 
     81 CB          1.4320  -26.9327  -46.8518 C.3       14 UNK        -0.1800 
     82 C           0.0220  -27.5529  -48.8480 C.2       14 UNK         0.5000 
     83 O           0.3452  -28.5758  -49.4533 O.2       14 UNK        -0.5000 
     84 N          -0.3800  -26.4260  -49.4473 N.am      15 UNK        -0.5000 
     85 CA         -0.4327  -26.2267  -50.8982 C.3       15 UNK         0.1400 
     86 CB          0.3834  -24.9685  -51.2459 C.3       15 UNK        -0.1800 
     87 C          -1.8761  -26.0977  -51.4176 C.2       15 UNK         0.5000 
     88 O          -2.0640  -25.9606  -52.6269 O.2       15 UNK        -0.5000 
     89 N          -2.8607  -26.1165  -50.5044 N.am      16 UNK        -0.5000 
     90 CA         -4.2884  -25.8630  -50.7326 C.3       16 UNK         0.1400 
     91 CB         -4.9189  -26.9654  -51.6085 C.3       16 UNK        -0.1800 
     92 C          -4.5573  -24.4408  -51.2707 C.2       16 UNK         0.5000 
     93 O          -5.4942  -24.2374  -52.0455 O.2       16 UNK        -0.5000 
     94 N          -3.7284  -23.4707  -50.8517 N.am      17 UNK        -0.5000 
     95 CA         -3.7148  -22.1029  -51.3786 C.3       17 UNK         0.1400 
     96 CB         -2.5284  -21.3305  -50.7887 C.3       17 UNK        -0.1800 
     97 C          -5.0237  -21.3207  -51.1706 C.2       17 UNK         0.5000 
     98 O          -5.3157  -20.4293  -51.9649 O.2       17 UNK        -0.5000 
     99 N          -5.8036  -21.6812  -50.1425 N.am      18 UNK        -0.5000 
    100 CA        -7.1230  -21.1104  -49.8694 C.3       18 UNK         0.1400 
    101 CB        -7.5731  -21.5102  -48.4574 C.3       18 UNK        -0.1800 
    102 C         -8.1778  -21.5182  -50.9144 C.2       18 UNK         0.5000 
    103 O         -9.0268  -20.6984  -51.2635 O.2       18 UNK        -0.5000 
    104 N         -8.0855  -22.7544  -51.4271 N.am      19 UNK        -0.5000 
    105 CA        -8.9443  -23.2656  -52.4991 C.3       19 UNK         0.1400 
    106 CB        -8.8746  -24.8003  -52.5286 C.3       19 UNK        -0.1800 
    107 C         -8.5623  -22.6718  -53.8670 C.2       19 UNK         0.5000 
    108 O         -9.4376  -22.4470  -54.7030 O.2       19 UNK        -0.5000 
    109 N         -7.2652  -22.3895  -54.0490 N.am      20 UNK        -0.5000 
    110 CA        -6.7081  -21.6948  -55.2110 C.3       20 UNK         0.1400 
    111 CB        -5.2138  -22.0403  -55.3136 C.3       20 UNK        -0.1800 
    112 C         -6.9006  -20.1633  -55.1589 C.2       20 UNK         0.5000 
    113 O         -6.5480  -19.4854  -56.1252 O.2       20 UNK        -0.5000 
    114 N         -7.4017  -19.6382  -54.0287 N.am      21 UNK        -0.5000 
    115 CA        -7.5876  -18.2179  -53.7017 C.3       21 UNK         0.1400 
    116 CB        -8.7272  -17.6169  -54.5493 C.3       21 UNK        -0.1800 
    117 C         -6.2776  -17.4012  -53.7871 C.2       21 UNK         0.5000 
    118 O         -6.2943  -16.2361  -54.1880 O.2       21 UNK        -0.5000 
    119 N         -5.1605  -18.0493  -53.4320 N.am      22 UNK        -0.5000 
    120 CA        -3.7783  -17.5705  -53.5807 C.3       22 UNK         0.1400 
    121 C         -3.3049  -17.3918  -55.0611 C.2       22 UNK         0.5000 
    122 N         -4.0030  -17.9264  -56.0574 N.am      22 UNK        -0.7600 
    123 O         -2.2711  -16.7834  -55.3221 O.2       22 UNK        -0.5000 
    124 C124       -3.4817  -16.3446  -52.6689 C.3       23 UNK        -0.0398 
    125 S125       -1.7593  -16.3070  -52.0635 S.3       23 UNK        -0.2404 
    126 C126       -1.9276  -17.0788  -50.4251 C.3       23 UNK        -0.0205 
    127 H127        7.7471  -14.3680  -51.4748 H         1 UNK         0.0600 
    128 H128        8.7350  -14.0641  -50.0418 H         1 UNK         0.0600 
    129 H129        7.8693  -12.7343  -50.8165 H         1 UNK         0.0600 
    130 H130        6.0643  -12.1271  -49.6470 H         1 UNK         0.3000 
    131 H131        4.9046  -13.7794  -47.6171 H         1 UNK         0.0600 
    132 H132        3.6369  -14.8484  -49.3921 H         1 UNK         0.0800 
    133 H133        3.2815  -13.3350  -50.1636 H         1 UNK         0.0800 
    134 H134        2.7358  -15.5493  -47.0611 H         1 UNK         0.0800 
    135 H135        1.0977  -15.1864  -46.5856 H         1 UNK         0.0800 
    136 H136       -0.6379  -15.3549  -48.7534 H         1 UNK         0.1150 
    137 H137       -0.1965  -19.1721  -50.6491 H         1 UNK         0.1150 
    138 H138        2.9340  -17.6494  -48.1476 H         1 UNK         0.1150 
    139 H139        1.9623  -20.2804  -50.6108 H         1 UNK         0.0800 
    140 H140        3.3233  -19.5268  -49.8226 H         1 UNK         0.0800 
    141 H141        0.1145  -21.5677  -49.3907 H         1 UNK         0.0800 
    142 H142       -0.1787  -20.5249  -48.0137 H         1 UNK         0.0800 
    143 H143        0.6785  -23.4532  -47.7945 H         1 UNK         0.0600 
    144 H144        0.5612  -21.4675  -45.7946 H         1 UNK         0.3000 
    145 H145        0.0483  -23.6916  -42.9932 H         1 UNK         0.0600 
    146 H146        2.0302  -22.3556  -42.3233 H         1 UNK         0.0600 
    147 H147        2.4545  -23.5416  -43.5487 H         1 UNK         0.0600 
    148 H148        2.2846  -21.8502  -43.9909 H         1 UNK         0.0600 
    149 H149        0.1083  -20.8242  -43.2190 H         1 UNK         0.3000 
    150 H150       -3.4392  -20.3930  -43.4041 H         1 UNK         0.0600 
    151 H151       -2.9888  -20.7566  -40.9681 H         1 UNK         0.0600 
    152 H152       -3.0530  -19.0465  -41.3662 H         1 UNK         0.0600 
    153 H153       -1.4973  -19.8314  -41.1009 H         1 UNK         0.0600 
    154 H154       -1.3745  -18.4730  -43.1815 H         1 UNK         0.3000 
    155 H155       -0.5843  -18.2111  -46.6818 H         1 UNK         0.0600 
    156 H156       -1.9319  -16.3902  -44.6141 H         1 UNK         0.0600 
    157 H157       -2.5390  -16.7598  -46.2217 H         1 UNK         0.0600 
    158 H158       -1.0581  -15.8364  -46.0378 H         1 UNK         0.0600 
    159 H159        0.5953  -16.9044  -44.4733 H         1 UNK         0.3000 
    160 H160        3.0541  -19.3885  -43.6534 H         1 UNK         0.0600 
    161 H161        3.2010  -16.6381  -44.9878 H         1 UNK         0.0600 
    162 H162        3.9987  -18.1036  -45.5299 H         1 UNK         0.0600 
    163 H163        4.4755  -17.3629  -44.0084 H         1 UNK         0.0600 
    164 H164        2.2256  -16.7748  -42.6591 H         1 UNK         0.3000 
    165 H165        0.2070  -18.0650  -40.0225 H         1 UNK         0.0600 
    166 H166        1.8081  -16.8258  -38.5922 H         1 UNK         0.0600 
    167 H167        2.5205  -18.3411  -39.1220 H         1 UNK         0.0600 
    168 H168        3.0116  -16.8321  -39.8821 H         1 UNK         0.0600 
    169 H169        1.1279  -15.4278  -40.6659 H         1 UNK         0.3000 
    170 H170       -1.4059  -14.6089  -43.0141 H         1 UNK         0.0600 
    171 H171       -2.5687  -14.3753  -40.8091 H         1 UNK         0.0600 
    172 H172       -1.1029  -13.7064  -40.1014 H         1 UNK         0.0600 
    173 H173       -1.9482  -12.8358  -41.3821 H         1 UNK         0.0600 
    174 H174        0.4689  -12.8849  -41.9279 H         1 UNK         0.3000 
    175 H175        2.8888  -12.9162  -42.5141 H         1 UNK         0.0600 
    176 H176        3.2670  -13.8579  -45.3962 H         1 UNK         0.0600 
    177 H177        4.4463  -12.9943  -44.4154 H         1 UNK         0.0600 
    178 H178        3.9731  -14.6219  -43.9724 H         1 UNK         0.0600 
    179 H179        2.5998  -11.0262  -43.7051 H         1 UNK         0.3000 
    180 H180        0.2155   -9.9501  -46.0688 H         1 UNK         0.0600 
    181 H181        2.2398   -9.0462  -43.9364 H         1 UNK         0.0600 
    182 H182        0.5004   -9.1629  -43.6727 H         1 UNK         0.0600 
    183 H183        1.1371   -8.0288  -44.8523 H         1 UNK         0.0600 
    184 H184        3.0570  -10.6226  -46.2969 H         1 UNK         0.3000 
    185 H185        3.2675   -9.0088  -49.4601 H         1 UNK         0.0600 
    186 H186        4.4647   -7.5389  -47.8875 H         1 UNK         0.0600 
    187 H187        5.0635   -8.9180  -46.9817 H         1 UNK         0.0600 
    188 H188        5.5871   -8.6579  -48.6450 H         1 UNK         0.0600 
    189 H189        3.7414  -11.1216  -49.7028 H         1 UNK         0.3000 
    190 H190       -2.1683  -21.8276  -46.3732 H         1 UNK         0.3000 
    191 H191       -4.1381  -22.7882  -48.1204 H         1 UNK         0.0600 
    192 H192       -4.6052  -21.0412  -46.4731 H         1 UNK         0.0600 
    193 H193       -5.6830  -22.3945  -46.1611 H         1 UNK         0.0600 
    194 H194       -4.2826  -22.1423  -45.1354 H         1 UNK         0.0600 
    195 H195       -2.4252  -24.5200  -45.5764 H         1 UNK         0.3000 
    196 H196       -4.2149  -26.8843  -45.7862 H         1 UNK         0.0600 
    197 H197       -2.8332  -27.7338  -43.8997 H         1 UNK         0.0600 
    198 H198       -3.5418  -26.1721  -43.5158 H         1 UNK         0.0600 
    199 H199       -1.8384  -26.2826  -43.9470 H         1 UNK         0.0600 
    200 H200       -0.7436  -25.9681  -46.1622 H         1 UNK         0.3000 
    201 H201        0.0623  -28.5726  -46.9705 H         1 UNK         0.0600 
    202 H202        1.5333  -26.9812  -45.7674 H         1 UNK         0.0600 
    203 H203        1.5261  -25.8875  -47.1491 H         1 UNK         0.0600 
    204 H204        2.2756  -27.4742  -47.2819 H         1 UNK         0.0600 
    205 H205       -0.6597  -25.6303  -48.8833 H         1 UNK         0.3000 
    206 H206        0.0166  -27.0729  -51.4216 H         1 UNK         0.0600 
    207 H207        1.4098  -25.0538  -50.8886 H         1 UNK         0.0600 
    208 H208        0.4287  -24.8166  -52.3249 H         1 UNK         0.0600 
    209 H209       -0.0490  -24.0686  -50.8084 H         1 UNK         0.0600 
    210 H210       -2.5867  -26.2326  -49.5394 H         1 UNK         0.3000 
    211 H211       -4.7691  -25.9151  -49.7569 H         1 UNK         0.0600 
    212 H212       -4.5527  -26.9301  -52.6347 H         1 UNK         0.0600 
    213 H213       -6.0037  -26.8590  -51.6475 H         1 UNK         0.0600 
    214 H214       -4.7054  -27.9567  -51.2088 H         1 UNK         0.0600 
    215 H215       -2.9816  -23.7192  -50.2114 H         1 UNK         0.3000 
    216 H216       -3.5550  -22.1813  -52.4551 H         1 UNK         0.0600 
    217 H217       -2.4382  -20.3482  -51.2531 H         1 UNK         0.0600 
    218 H218       -1.5924  -21.8582  -50.9687 H         1 UNK         0.0600 
    219 H219       -2.6378  -21.1769  -49.7150 H         1 UNK         0.0600 
    220 H220       -5.5030  -22.4432  -49.5556 H         1 UNK         0.3000 
    221 H221       -7.0371  -20.0218  -49.9004 H         1 UNK         0.0600 
    222 H222       -7.5670  -22.5922  -48.3193 H         1 UNK         0.0600 
    223 H223       -6.9239  -21.0664  -47.7039 H         1 UNK         0.0600 
    224 H224       -8.5852  -21.1578  -48.2535 H         1 UNK         0.0600 
    225 H225       -7.3160  -23.3487  -51.1475 H         1 UNK         0.3000 
    226 H226       -9.9761  -22.9783  -52.2850 H         1 UNK         0.0600 
    227 H227       -9.1589  -25.2273  -51.5668 H         1 UNK         0.0600 
    228 H228       -9.5561  -25.2048  -53.2780 H         1 UNK         0.0600 
    229 H229       -7.8739  -25.1578  -52.7723 H         1 UNK         0.0600 
    230 H230       -6.6136  -22.6541  -53.3213 H         1 UNK         0.3000 
    231 H231       -7.2066  -22.0591  -56.1114 H         1 UNK         0.0600 
    232 H232       -5.0551  -23.1188  -55.3306 H         1 UNK         0.0600 
    233 H233       -4.6495  -21.6296  -54.4768 H         1 UNK         0.0600 
    234 H234       -4.7806  -21.6340  -56.2284 H         1 UNK         0.0600 
    235 H235       -7.6207  -20.2815  -53.2813 H         1 UNK         0.3000 
    236 H236       -7.8978  -18.1844  -52.6564 H         1 UNK         0.0600 
    237 H237       -8.9636  -16.6026  -54.2259 H         1 UNK         0.0600 
    238 H238       -8.4638  -17.5709  -55.6064 H         1 UNK         0.0600 
    239 H239       -9.6393  -18.2065  -54.4561 H         1 UNK         0.0600 
    240 H240       -5.2570  -18.9917  -53.0572 H         1 UNK         0.3000 
    241 H241       -3.1822  -18.4045  -53.2087 H         1 UNK         0.0600 
    242 H242       -4.8727  -18.4224  -55.8945 H         1 UNK         0.3800 
    243 H243       -3.6746  -17.8066  -57.0023 H         1 UNK         0.3800 
    244 H244       -4.1413  -16.3482  -51.8000 H         1 UNK         0.0800 
    245 H245       -3.6965  -15.4119  -53.1929 H         1 UNK         0.0800 
    246 H246       -2.4197  -18.0470  -50.5228 H         1 UNK         0.0800 
    247 H247       -2.5741  -16.4643  -49.7965 H         1 UNK         0.0800 
@<TRIPOS>BOND
     1    1    2 1    
     2    1  127 1    
     3    1  128 1    
     4    1  129 1    
     5    2    3 2    
     6    2    4 am   BACKBONE|DICT|INTERRES
     7    4    5 1    
     8    4  130 1    
     9    5    6 1    
    10    5   65 1    
    11    5  131 1    
    12    6    7 1    
    13    6  132 1    
    14    6  133 1    
    15    7    8 1    
    16    8    9 1    
    17    8  134 1    
    18    8  135 1    
    19    9   10 ar   
    20    9   14 ar   
    21   10   11 ar   
    22   10  136 1    
    23   11   12 ar   
    24   11  126 1    
    25   12   13 ar   
    26   12  137 1    
    27   13   14 ar   
    28   13   15 1    
    29   14  138 1    
    30   15   16 1    
    31   15  139 1    
    32   15  140 1    
    33   16   17 1    
    34   17   18 1    
    35   17  141 1    
    36   17  142 1    
    37   18   19 1    
    38   18   67 1    
    39   18  143 1    
    40   19   20 am   BACKBONE|DICT|INTERRES
    41   19  144 1    
    42   20   21 2    
    43   20   22 1    
    44   22   23 1    
    45   22   24 1    
    46   22  145 1    
    47   23  146 1    
    48   23  147 1    
    49   23  148 1    
    50   24   25 am   BACKBONE|DICT|INTERRES
    51   24  149 1    
    52   25   26 2    
    53   25   27 1    
    54   27   28 1    
    55   27   29 1    
    56   27  150 1    
    57   28  151 1    
    58   28  152 1    
    59   28  153 1    
    60   29   30 am   BACKBONE|DICT|INTERRES
    61   29  154 1    
    62   30   31 2    
    63   30   32 1    
    64   32   33 1    
    65   32   34 1    
    66   32  155 1    
    67   33  156 1    
    68   33  157 1    
    69   33  158 1    
    70   34   35 am   BACKBONE|DICT|INTERRES
    71   34  159 1    
    72   35   36 2    
    73   35   37 1    
    74   37   38 1    
    75   37   39 1    
    76   37  160 1    
    77   38  161 1    
    78   38  162 1    
    79   38  163 1    
    80   39   40 am   BACKBONE|DICT|INTERRES
    81   39  164 1    
    82   40   41 2    
    83   40   42 1    
    84   42   43 1    
    85   42   44 1    
    86   42  165 1    
    87   43  166 1    
    88   43  167 1    
    89   43  168 1    
    90   44   45 am   BACKBONE|DICT|INTERRES
    91   44  169 1    
    92   45   46 2    
    93   45   47 1    
    94   47   48 1    
    95   47   49 1    
    96   47  170 1    
    97   48  171 1    
    98   48  172 1    
    99   48  173 1    
   100   49   50 am   BACKBONE|DICT|INTERRES
   101   49  174 1    
   102   50   51 2    
   103   50   52 1    
   104   52   53 1    
   105   52   54 1    
   106   52  175 1    
   107   53  176 1    
   108   53  177 1    
   109   53  178 1    
   110   54   55 am   BACKBONE|DICT|INTERRES
   111   54  179 1    
   112   55   56 2    
   113   55   57 1    
   114   57   58 1    
   115   57   59 1    
   116   57  180 1    
   117   58  181 1    
   118   58  182 1    
   119   58  183 1    
   120   59   60 am   BACKBONE|DICT|INTERRES
   121   59  184 1    
   122   60   61 2    
   123   60   62 1    
   124   62   63 1    
   125   62   64 1    
   126   62  185 1    
   127   63  186 1    
   128   63  187 1    
   129   63  188 1    
   130   64   65 am   BACKBONE|DICT|INTERRES
   131   64  189 1    
   132   65   66 2    
   133   67   68 2    
   134   67   69 am   BACKBONE|DICT|INTERRES
   135   69   70 1    
   136   69  190 1    
   137   70   71 1    
   138   70   72 1    
   139   70  191 1    
   140   71  192 1    
   141   71  193 1    
   142   71  194 1    
   143   72   73 2    
   144   72   74 am   BACKBONE|DICT|INTERRES
   145   74   75 1    
   146   74  195 1    
   147   75   76 1    
   148   75   77 1    
   149   75  196 1    
   150   76  197 1    
   151   76  198 1    
   152   76  199 1    
   153   77   78 2    
   154   77   79 am   BACKBONE|DICT|INTERRES
   155   79   80 1    
   156   79  200 1    
   157   80   81 1    
   158   80   82 1    
   159   80  201 1    
   160   81  202 1    
   161   81  203 1    
   162   81  204 1    
   163   82   83 2    
   164   82   84 am   BACKBONE|DICT|INTERRES
   165   84   85 1    
   166   84  205 1    
   167   85   86 1    
   168   85   87 1    
   169   85  206 1    
   170   86  207 1    
   171   86  208 1    
   172   86  209 1    
   173   87   88 2    
   174   87   89 am   BACKBONE|DICT|INTERRES
   175   89   90 1    
   176   89  210 1    
   177   90   91 1    
   178   90   92 1    
   179   90  211 1    
   180   91  212 1    
   181   91  213 1    
   182   91  214 1    
   183   92   93 2    
   184   92   94 am   BACKBONE|DICT|INTERRES
   185   94   95 1    
   186   94  215 1    
   187   95   96 1    
   188   95   97 1    
   189   95  216 1    
   190   96  217 1    
   191   96  218 1    
   192   96  219 1    
   193   97   98 2    
   194   97   99 am   BACKBONE|DICT|INTERRES
   195   99  100 1    
   196   99  220 1    
   197  100  101 1    
   198  100  102 1    
   199  100  221 1    
   200  101  222 1    
   201  101  223 1    
   202  101  224 1    
   203  102  103 2    
   204  102  104 am   BACKBONE|DICT|INTERRES
   205  104  105 1    
   206  104  225 1    
   207  105  106 1    
   208  105  107 1    
   209  105  226 1    
   210  106  227 1    
   211  106  228 1    
   212  106  229 1    
   213  107  108 2    
   214  107  109 am   BACKBONE|DICT|INTERRES
   215  109  110 1    
   216  109  230 1    
   217  110  111 1    
   218  110  112 1    
   219  110  231 1    
   220  111  232 1    
   221  111  233 1    
   222  111  234 1    
   223  112  113 2    
   224  112  114 am   BACKBONE|DICT|INTERRES
   225  114  115 1    
   226  114  235 1    
   227  115  116 1    
   228  115  117 1    
   229  115  236 1    
   230  116  237 1    
   231  116  238 1    
   232  116  239 1    
   233  117  118 2    
   234  117  119 am   BACKBONE|DICT|INTERRES
   235  119  120 1    
   236  119  240 1    
   237  120  121 1    
   238  120  124 1    
   239  120  241 1    
   240  121  122 am   BACKBONE|DICT|INTERRES
   241  121  123 2    
   242  122  242 1    
   243  122  243 1    
   244  124  125 1    
   245  124  244 1    
   246  124  245 1    
   247  125  126 1    
   248  126  246 1    
   249  126  247 1    
@<TRIPOS>SUBSTRUCTURE
     1 UNK         1 GROUP             0       ****    0 ROOT    
