@<TRIPOS>MOLECULE
3R540
247   249    1
SMALL
USER_CHARGES


@<TRIPOS>ATOM
      1 CA         -0.0003  -14.6049  -54.3550 C.3       0 UNK        -0.1800 
      2 C          -0.0264  -14.9431  -52.8717 C.2       0 UNK         0.5000 
      3 O          -0.3051  -16.0856  -52.5126 O.2       0 UNK        -0.5000 
      4 N           0.2790  -13.9632  -52.0102 N.am      1 UNK        -0.5000 
      5 CA          0.1955  -14.0311  -50.5425 C.3       1 UNK         0.1400 
      6 C6          0.1183  -12.6219  -49.8875 C.3       23 UNK        -0.0398 
      7 S7         -1.0986  -11.4849  -50.6357 S.3       23 UNK        -0.2404 
      8 C8         -2.6095  -11.8696  -49.6906 C.3       23 UNK        -0.0205 
      9 C9         -3.2045  -13.2141  -50.0845 C.ar      23 UNK        -0.0193 
     10 C10        -3.5519  -13.4578  -51.4179 C.ar      23 UNK        -0.1150 
     11 C11        -4.0729  -14.6940  -51.8034 C.ar      23 UNK        -0.0193 
     12 C12        -4.2622  -15.6830  -50.8349 C.ar      23 UNK        -0.1150 
     13 C13        -3.9530  -15.4463  -49.4943 C.ar      23 UNK        -0.0193 
     14 C14        -3.4137  -14.2105  -49.1235 C.ar      23 UNK        -0.1150 
     15 C15        -4.2182  -16.5320  -48.4623 C.3       23 UNK        -0.0205 
     16 S16        -2.8253  -17.6930  -48.3776 S.3       23 UNK        -0.2404 
     17 C17        -3.6369  -19.2692  -47.9373 C.3       23 UNK        -0.0398 
     18 CA         -2.8254  -20.0373  -46.8684 C.3       11 UNK         0.1400 
     19 N          -2.7872  -19.3154  -45.5924 N.am      11 UNK        -0.5000 
     20 C          -1.9944  -19.6113  -44.5554 C.2       10 UNK         0.5000 
     21 O          -1.2361  -20.5816  -44.5488 O.2       10 UNK        -0.5000 
     22 CA         -2.0750  -18.6961  -43.3146 C.3       10 UNK         0.1400 
     23 CB         -3.1002  -17.5439  -43.4378 C.3       10 UNK        -0.1800 
     24 N          -2.3247  -19.4552  -42.0889 N.am      10 UNK        -0.5000 
     25 C          -3.3665  -20.2639  -41.8379 C.2       9 UNK         0.5000 
     26 O          -4.2478  -20.5105  -42.6625 O.2       9 UNK        -0.5000 
     27 CA         -3.4510  -20.9076  -40.4369 C.3       9 UNK         0.1400 
     28 CB         -3.2918  -22.4327  -40.5200 C.3       9 UNK        -0.1800 
     29 N          -2.4580  -20.3832  -39.4968 N.am      9 UNK        -0.5000 
     30 C          -2.5537  -19.2105  -38.8554 C.2       8 UNK         0.5000 
     31 O          -3.5300  -18.4646  -38.9361 O.2       8 UNK        -0.5000 
     32 CA         -1.3449  -18.7899  -37.9963 C.3       8 UNK         0.1400 
     33 CB         -1.5787  -19.1594  -36.5234 C.3       8 UNK        -0.1800 
     34 N          -0.0711  -19.3693  -38.4377 N.am      8 UNK        -0.5000 
     35 C           0.5406  -19.0842  -39.5953 C.2       7 UNK         0.5000 
     36 O           0.0620  -18.3447  -40.4575 O.2       7 UNK        -0.5000 
     37 CA          1.8972  -19.7731  -39.8424 C.3       7 UNK         0.1400 
     38 CB          1.7681  -20.7966  -40.9781 C.3       7 UNK        -0.1800 
     39 N           2.9703  -18.8263  -40.1592 N.am      7 UNK        -0.5000 
     40 C           3.3858  -17.8421  -39.3464 C.2       6 UNK         0.5000 
     41 O           2.8955  -17.6329  -38.2353 O.2       6 UNK        -0.5000 
     42 CA          4.5639  -16.9586  -39.8062 C.3       6 UNK         0.1400 
     43 CB          5.7400  -17.0669  -38.8203 C.3       6 UNK        -0.1800 
     44 N           5.0630  -17.2756  -41.1439 N.am      6 UNK        -0.5000 
     45 C           4.5886  -16.7708  -42.2888 C.2       5 UNK         0.5000 
     46 O           3.6188  -16.0146  -42.3528 O.2       5 UNK        -0.5000 
     47 CA          5.3377  -17.1512  -43.5845 C.3       5 UNK         0.1400 
     48 CB          6.7704  -17.6831  -43.3509 C.3       5 UNK        -0.1800 
     49 N           4.5775  -18.0874  -44.4144 N.am      5 UNK        -0.5000 
     50 C           4.1166  -19.2974  -44.0646 C.2       4 UNK         0.5000 
     51 O           4.2774  -19.7964  -42.9487 O.2       4 UNK        -0.5000 
     52 CA          3.3602  -20.0694  -45.1700 C.3       4 UNK         0.1400 
     53 CB          2.5668  -21.2813  -44.6453 C.3       4 UNK        -0.1800 
     54 N           2.4947  -19.2246  -46.0026 N.am      4 UNK        -0.5000 
     55 C           1.5142  -18.4072  -45.5928 C.2       3 UNK         0.5000 
     56 O           1.2455  -18.2093  -44.4084 O.2       3 UNK        -0.5000 
     57 CA          0.6977  -17.6873  -46.6898 C.3       3 UNK         0.1400 
     58 CB         -0.1303  -16.5158  -46.1308 C.3       3 UNK        -0.1800 
     59 N           1.4913  -17.1708  -47.8051 N.am      3 UNK        -0.5000 
     60 C           2.0531  -17.8640  -48.8008 C.2       2 UNK         0.5000 
     61 O           2.1272  -19.0928  -48.8087 O.2       2 UNK        -0.5000 
     62 CA          2.5968  -17.0355  -49.9862 C.3       2 UNK         0.1400 
     63 CB          3.0325  -17.9120  -51.1741 C.3       2 UNK        -0.1800 
     64 N           1.6143  -16.0584  -50.4651 N.am      2 UNK        -0.5000 
     65 C           1.3159  -14.8853  -49.8950 C.2       1 UNK         0.5000 
     66 O           1.8847  -14.4877  -48.8758 O.2       1 UNK        -0.5000 
     67 C          -3.2865  -21.5095  -46.7508 C.2       11 UNK         0.5000 
     68 O          -3.0025  -22.2930  -47.6588 O.2       11 UNK        -0.5000 
     69 N          -3.9311  -21.8905  -45.6367 N.am      12 UNK        -0.5000 
     70 CA         -4.2590  -23.2856  -45.3328 C.3       12 UNK         0.1400 
     71 CB         -5.3276  -23.3473  -44.2334 C.3       12 UNK        -0.1800 
     72 C          -3.0162  -24.1111  -44.9436 C.2       12 UNK         0.5000 
     73 O          -2.9513  -25.2916  -45.2867 O.2       12 UNK        -0.5000 
     74 N          -2.0239  -23.4780  -44.2954 N.am      13 UNK        -0.5000 
     75 CA         -0.7168  -24.0849  -44.0108 C.3       13 UNK         0.1400 
     76 CB         -0.0077  -23.3251  -42.8796 C.3       13 UNK        -0.1800 
     77 C           0.1730  -24.1734  -45.2654 C.2       13 UNK         0.5000 
     78 O           1.0532  -25.0312  -45.3264 O.2       13 UNK        -0.5000 
     79 N          -0.1160  -23.3329  -46.2689 N.am      14 UNK        -0.5000 
     80 CA          0.4458  -23.3957  -47.6203 C.3       14 UNK         0.1400 
     81 CB          0.4250  -21.9864  -48.2369 C.3       14 UNK        -0.1800 
     82 C          -0.2898  -24.4169  -48.5198 C.2       14 UNK         0.5000 
     83 O          -0.1060  -24.3916  -49.7371 O.2       14 UNK        -0.5000 
     84 N          -1.1323  -25.2758  -47.9216 N.am      15 UNK        -0.5000 
     85 CA         -1.8961  -26.3673  -48.5368 C.3       15 UNK         0.1400 
     86 CB         -0.9423  -27.4725  -49.0361 C.3       15 UNK        -0.1800 
     87 C          -2.8829  -25.8972  -49.6252 C.2       15 UNK         0.5000 
     88 O          -3.1730  -26.6504  -50.5557 O.2       15 UNK        -0.5000 
     89 N          -3.3605  -24.6497  -49.4977 N.am      16 UNK        -0.5000 
     90 CA         -4.2323  -23.9285  -50.4282 C.3       16 UNK         0.1400 
     91 CB         -5.5943  -24.6343  -50.5899 C.3       16 UNK        -0.1800 
     92 C          -3.5767  -23.5936  -51.7858 C.2       16 UNK         0.5000 
     93 O          -4.2702  -23.1016  -52.6761 O.2       16 UNK        -0.5000 
     94 N          -2.2551  -23.7846  -51.9254 N.am      17 UNK        -0.5000 
     95 CA         -1.5007  -23.3932  -53.1205 C.3       17 UNK         0.1400 
     96 CB         -0.0909  -23.9991  -53.0693 C.3       17 UNK        -0.1800 
     97 C          -1.4351  -21.8632  -53.2697 C.2       17 UNK         0.5000 
     98 O          -1.5709  -21.3442  -54.3764 O.2       17 UNK        -0.5000 
     99 N          -1.2958  -21.1689  -52.1333 N.am      18 UNK        -0.5000 
    100 CA        -1.3590  -19.7124  -52.0403 C.3       18 UNK         0.1400 
    101 CB        -0.7681  -19.2848  -50.6941 C.3       18 UNK        -0.1800 
    102 C         -2.7890  -19.1681  -52.2309 C.2       18 UNK         0.5000 
    103 O         -2.9492  -18.0662  -52.7458 O.2       18 UNK        -0.5000 
    104 N         -3.8100  -19.9611  -51.8704 N.am      19 UNK        -0.5000 
    105 CA        -5.2154  -19.6432  -52.1400 C.3       19 UNK         0.1400 
    106 CB        -6.1338  -20.5294  -51.2855 C.3       19 UNK        -0.1800 
    107 C         -5.5489  -19.7589  -53.6394 C.2       19 UNK         0.5000 
    108 O         -6.2538  -18.9040  -54.1741 O.2       19 UNK        -0.5000 
    109 N         -4.9943  -20.7810  -54.3073 N.am      20 UNK        -0.5000 
    110 CA        -5.0697  -20.9594  -55.7594 C.3       20 UNK         0.1400 
    111 CB        -4.5335  -22.3493  -56.1329 C.3       20 UNK        -0.1800 
    112 C         -4.3267  -19.8537  -56.5369 C.2       20 UNK         0.5000 
    113 O         -4.7778  -19.4593  -57.6139 O.2       20 UNK        -0.5000 
    114 N         -3.2354  -19.3314  -55.9563 N.am      21 UNK        -0.5000 
    115 CA        -2.4290  -18.2297  -56.4920 C.3       21 UNK         0.1400 
    116 CB        -1.1240  -18.1003  -55.6901 C.3       21 UNK        -0.1800 
    117 C         -3.1624  -16.8730  -56.5757 C.2       21 UNK         0.5000 
    118 O         -2.6389  -15.9573  -57.2122 O.2       21 UNK        -0.5000 
    119 N         -4.3618  -16.7619  -55.9837 N.am      22 UNK        -0.5000 
    120 CA        -5.2963  -15.6500  -56.2259 C.3       22 UNK         0.1400 
    121 C         -5.8497  -15.6117  -57.6853 C.2       22 UNK         0.5000 
    122 N         -5.8110  -16.7001  -58.4484 N.am      22 UNK        -0.7600 
    123 O         -6.3236  -14.5709  -58.1326 O.2       22 UNK        -0.5000 
    124 C124       -6.4902  -15.6466  -55.2330 C.3       23 UNK        -0.0398 
    125 S125       -6.1701  -15.4441  -53.4414 S.3       23 UNK        -0.2404 
    126 C126       -4.4202  -14.9667  -53.2611 C.3       23 UNK        -0.0205 
    127 H127        0.7407  -15.2188  -54.8667 H         1 UNK         0.0600 
    128 H128        0.2440  -13.5567  -54.5285 H         1 UNK         0.0600 
    129 H129       -0.9753  -14.8058  -54.7999 H         1 UNK         0.0600 
    130 H130        0.5201  -13.0534  -52.3761 H         1 UNK         0.3000 
    131 H131       -0.7350  -14.5488  -50.3034 H         1 UNK         0.0600 
    132 H132        1.0894  -12.1277  -49.9519 H         1 UNK         0.0800 
    133 H133       -0.1011  -12.7097  -48.8219 H         1 UNK         0.0800 
    134 H134       -3.3502  -11.0924  -49.8830 H         1 UNK         0.0800 
    135 H135       -2.3929  -11.8296  -48.6221 H         1 UNK         0.0800 
    136 H136       -3.3963  -12.6860  -52.1586 H         1 UNK         0.1150 
    137 H137       -4.6605  -16.6416  -51.1283 H         1 UNK         0.1150 
    138 H138       -3.1592  -14.0270  -48.0891 H         1 UNK         0.1150 
    139 H139       -5.1329  -17.0632  -48.7298 H         1 UNK         0.0800 
    140 H140       -4.3884  -16.0956  -47.4771 H         1 UNK         0.0800 
    141 H141       -3.7256  -19.8529  -48.8552 H         1 UNK         0.0800 
    142 H142       -4.6546  -19.0895  -47.5873 H         1 UNK         0.0800 
    143 H143       -1.7939  -20.0903  -47.2205 H         1 UNK         0.0600 
    144 H144       -3.3963  -18.5139  -45.5176 H         1 UNK         0.3000 
    145 H145       -1.0876  -18.2497  -43.1971 H         1 UNK         0.0600 
    146 H146       -3.0754  -16.9114  -42.5502 H         1 UNK         0.0600 
    147 H147       -2.8850  -16.8988  -44.2896 H         1 UNK         0.0600 
    148 H148       -4.1214  -17.9107  -43.5478 H         1 UNK         0.0600 
    149 H149       -1.6351  -19.3172  -41.3602 H         1 UNK         0.3000 
    150 H150       -4.4482  -20.6954  -40.0456 H         1 UNK         0.0600 
    151 H151       -4.0640  -22.8761  -41.1480 H         1 UNK         0.0600 
    152 H152       -3.3769  -22.8930  -39.5354 H         1 UNK         0.0600 
    153 H153       -2.3270  -22.7112  -40.9384 H         1 UNK         0.0600 
    154 H154       -1.6229  -20.9338  -39.3629 H         1 UNK         0.3000 
    155 H155       -1.2590  -17.7034  -38.0657 H         1 UNK         0.0600 
    156 H156       -1.6486  -20.2391  -36.3853 H         1 UNK         0.0600 
    157 H157       -2.5059  -18.7204  -36.1525 H         1 UNK         0.0600 
    158 H158       -0.7711  -18.7904  -35.8908 H         1 UNK         0.0600 
    159 H159        0.3885  -19.9849  -37.7820 H         1 UNK         0.3000 
    160 H160        2.1928  -20.3079  -38.9376 H         1 UNK         0.0600 
    161 H161        1.4749  -20.3125  -41.9099 H         1 UNK         0.0600 
    162 H162        1.0125  -21.5467  -40.7434 H         1 UNK         0.0600 
    163 H163        2.7071  -21.3224  -41.1521 H         1 UNK         0.0600 
    164 H164        3.4178  -18.9346  -41.0617 H         1 UNK         0.3000 
    165 H165        4.2109  -15.9253  -39.7940 H         1 UNK         0.0600 
    166 H166        6.5585  -16.4069  -39.1084 H         1 UNK         0.0600 
    167 H167        5.4375  -16.7814  -37.8119 H         1 UNK         0.0600 
    168 H168        6.1300  -18.0842  -38.7703 H         1 UNK         0.0600 
    169 H169        5.8371  -17.9223  -41.1928 H         1 UNK         0.3000 
    170 H170        5.4251  -16.2297  -44.1621 H         1 UNK         0.0600 
    171 H171        7.3596  -16.9804  -42.7601 H         1 UNK         0.0600 
    172 H172        6.7797  -18.6434  -42.8345 H         1 UNK         0.0600 
    173 H173        7.2919  -17.8177  -44.2985 H         1 UNK         0.0600 
    174 H174        4.3465  -17.7571  -45.3403 H         1 UNK         0.3000 
    175 H175        4.1357  -20.4565  -45.8321 H         1 UNK         0.0600 
    176 H176        1.6885  -20.9708  -44.0823 H         1 UNK         0.0600 
    177 H177        2.2252  -21.9021  -45.4720 H         1 UNK         0.0600 
    178 H178        3.1733  -21.9158  -43.9983 H         1 UNK         0.0600 
    179 H179        2.6081  -19.3225  -47.0087 H         1 UNK         0.3000 
    180 H180        0.0021  -18.4258  -47.0919 H         1 UNK         0.0600 
    181 H181       -0.7308  -16.0455  -46.9096 H         1 UNK         0.0600 
    182 H182        0.5088  -15.7480  -45.6929 H         1 UNK         0.0600 
    183 H183       -0.8166  -16.8515  -45.3562 H         1 UNK         0.0600 
    184 H184        1.5374  -16.1600  -47.8824 H         1 UNK         0.3000 
    185 H185        3.4780  -16.5011  -49.6259 H         1 UNK         0.0600 
    186 H186        3.4621  -17.3063  -51.9722 H         1 UNK         0.0600 
    187 H187        3.7916  -18.6350  -50.8731 H         1 UNK         0.0600 
    188 H188        2.1935  -18.4683  -51.5932 H         1 UNK         0.0600 
    189 H189        1.0510  -16.3294  -51.2680 H         1 UNK         0.3000 
    190 H190       -4.1171  -21.2089  -44.9112 H         1 UNK         0.3000 
    191 H191       -4.6851  -23.7384  -46.2310 H         1 UNK         0.0600 
    192 H192       -5.6358  -24.3770  -44.0484 H         1 UNK         0.0600 
    193 H193       -6.2186  -22.7864  -44.5159 H         1 UNK         0.0600 
    194 H194       -4.9617  -22.9432  -43.2915 H         1 UNK         0.0600 
    195 H195       -2.1073  -22.4856  -44.1084 H         1 UNK         0.3000 
    196 H196       -0.8765  -25.1090  -43.6662 H         1 UNK         0.0600 
    197 H197       -0.0040  -22.2497  -43.0464 H         1 UNK         0.0600 
    198 H198       -0.4872  -23.5159  -41.9218 H         1 UNK         0.0600 
    199 H199        1.0310  -23.6431  -42.7790 H         1 UNK         0.0600 
    200 H200       -0.8475  -22.6535  -46.1180 H         1 UNK         0.3000 
    201 H201        1.4876  -23.7151  -47.5530 H         1 UNK         0.0600 
    202 H202       -0.5842  -21.6746  -48.4997 H         1 UNK         0.0600 
    203 H203        1.0200  -21.9516  -49.1503 H         1 UNK         0.0600 
    204 H204        0.8403  -21.2449  -47.5545 H         1 UNK         0.0600 
    205 H205       -1.2581  -25.1849  -46.9229 H         1 UNK         0.3000 
    206 H206       -2.5085  -26.7942  -47.7414 H         1 UNK         0.0600 
    207 H207       -0.2630  -27.7930  -48.2462 H         1 UNK         0.0600 
    208 H208       -1.4970  -28.3535  -49.3609 H         1 UNK         0.0600 
    209 H209       -0.3400  -27.1354  -49.8804 H         1 UNK         0.0600 
    210 H210       -3.0428  -24.0967  -48.7080 H         1 UNK         0.3000 
    211 H211       -4.4261  -22.9656  -49.9541 H         1 UNK         0.0600 
    212 H212       -6.2969  -24.0103  -51.1430 H         1 UNK         0.0600 
    213 H213       -6.0459  -24.8461  -49.6208 H         1 UNK         0.0600 
    214 H214       -5.5049  -25.5752  -51.1329 H         1 UNK         0.0600 
    215 H215       -1.7227  -24.1750  -51.1559 H         1 UNK         0.3000 
    216 H216       -2.0136  -23.7962  -53.9965 H         1 UNK         0.0600 
    217 H217        0.4916  -23.6006  -52.2380 H         1 UNK         0.0600 
    218 H218        0.4582  -23.7820  -53.9864 H         1 UNK         0.0600 
    219 H219       -0.1305  -25.0832  -52.9612 H         1 UNK         0.0600 
    220 H220       -1.1740  -21.6797  -51.2716 H         1 UNK         0.3000 
    221 H221       -0.7353  -19.2876  -52.8296 H         1 UNK         0.0600 
    222 H222        0.2658  -19.6144  -50.6068 H         1 UNK         0.0600 
    223 H223       -1.3212  -19.7105  -49.8582 H         1 UNK         0.0600 
    224 H224       -0.7771  -18.1991  -50.5881 H         1 UNK         0.0600 
    225 H225       -3.6072  -20.8762  -51.5026 H         1 UNK         0.3000 
    226 H226       -5.3955  -18.6089  -51.8452 H         1 UNK         0.0600 
    227 H227       -6.0691  -21.5787  -51.5678 H         1 UNK         0.0600 
    228 H228       -5.8915  -20.4477  -50.2259 H         1 UNK         0.0600 
    229 H229       -7.1753  -20.2283  -51.4038 H         1 UNK         0.0600 
    230 H230       -4.4910  -21.4916  -53.7853 H         1 UNK         0.3000 
    231 H231       -6.1220  -20.9142  -56.0474 H         1 UNK         0.0600 
    232 H232       -3.4817  -22.4614  -55.8705 H         1 UNK         0.0600 
    233 H233       -4.6247  -22.5268  -57.2051 H         1 UNK         0.0600 
    234 H234       -5.0900  -23.1362  -55.6234 H         1 UNK         0.0600 
    235 H235       -2.9079  -19.7501  -55.0947 H         1 UNK         0.3000 
    236 H236       -2.1604  -18.5024  -57.5145 H         1 UNK         0.0600 
    237 H237       -0.6020  -19.0542  -55.6173 H         1 UNK         0.0600 
    238 H238       -0.4435  -17.3955  -56.1691 H         1 UNK         0.0600 
    239 H239       -1.3036  -17.7328  -54.6811 H         1 UNK         0.0600 
    240 H240       -4.7227  -17.5436  -55.4534 H         1 UNK         0.3000 
    241 H241       -4.7435  -14.7192  -56.0922 H         1 UNK         0.0600 
    242 H242       -6.1712  -16.6557  -59.3885 H         1 UNK         0.3800 
    243 H243       -5.4336  -17.5748  -58.1003 H         1 UNK         0.3800 
    244 H244       -7.0648  -16.5666  -55.3528 H         1 UNK         0.0800 
    245 H245       -7.1800  -14.8419  -55.4948 H         1 UNK         0.0800 
    246 H246       -4.2198  -14.0870  -53.8735 H         1 UNK         0.0800 
    247 H247       -3.7705  -15.7621  -53.6223 H         1 UNK         0.0800 
@<TRIPOS>BOND
     1    1    2 1    
     2    1  127 1    
     3    1  128 1    
     4    1  129 1    
     5    2    3 2    
     6    2    4 am   BACKBONE|DICT|INTERRES
     7    4    5 1    
     8    4  130 1    
     9    5    6 1    
    10    5   65 1    
    11    5  131 1    
    12    6    7 1    
    13    6  132 1    
    14    6  133 1    
    15    7    8 1    
    16    8    9 1    
    17    8  134 1    
    18    8  135 1    
    19    9   10 ar   
    20    9   14 ar   
    21   10   11 ar   
    22   10  136 1    
    23   11   12 ar   
    24   11  126 1    
    25   12   13 ar   
    26   12  137 1    
    27   13   14 ar   
    28   13   15 1    
    29   14  138 1    
    30   15   16 1    
    31   15  139 1    
    32   15  140 1    
    33   16   17 1    
    34   17   18 1    
    35   17  141 1    
    36   17  142 1    
    37   18   19 1    
    38   18   67 1    
    39   18  143 1    
    40   19   20 am   BACKBONE|DICT|INTERRES
    41   19  144 1    
    42   20   21 2    
    43   20   22 1    
    44   22   23 1    
    45   22   24 1    
    46   22  145 1    
    47   23  146 1    
    48   23  147 1    
    49   23  148 1    
    50   24   25 am   BACKBONE|DICT|INTERRES
    51   24  149 1    
    52   25   26 2    
    53   25   27 1    
    54   27   28 1    
    55   27   29 1    
    56   27  150 1    
    57   28  151 1    
    58   28  152 1    
    59   28  153 1    
    60   29   30 am   BACKBONE|DICT|INTERRES
    61   29  154 1    
    62   30   31 2    
    63   30   32 1    
    64   32   33 1    
    65   32   34 1    
    66   32  155 1    
    67   33  156 1    
    68   33  157 1    
    69   33  158 1    
    70   34   35 am   BACKBONE|DICT|INTERRES
    71   34  159 1    
    72   35   36 2    
    73   35   37 1    
    74   37   38 1    
    75   37   39 1    
    76   37  160 1    
    77   38  161 1    
    78   38  162 1    
    79   38  163 1    
    80   39   40 am   BACKBONE|DICT|INTERRES
    81   39  164 1    
    82   40   41 2    
    83   40   42 1    
    84   42   43 1    
    85   42   44 1    
    86   42  165 1    
    87   43  166 1    
    88   43  167 1    
    89   43  168 1    
    90   44   45 am   BACKBONE|DICT|INTERRES
    91   44  169 1    
    92   45   46 2    
    93   45   47 1    
    94   47   48 1    
    95   47   49 1    
    96   47  170 1    
    97   48  171 1    
    98   48  172 1    
    99   48  173 1    
   100   49   50 am   BACKBONE|DICT|INTERRES
   101   49  174 1    
   102   50   51 2    
   103   50   52 1    
   104   52   53 1    
   105   52   54 1    
   106   52  175 1    
   107   53  176 1    
   108   53  177 1    
   109   53  178 1    
   110   54   55 am   BACKBONE|DICT|INTERRES
   111   54  179 1    
   112   55   56 2    
   113   55   57 1    
   114   57   58 1    
   115   57   59 1    
   116   57  180 1    
   117   58  181 1    
   118   58  182 1    
   119   58  183 1    
   120   59   60 am   BACKBONE|DICT|INTERRES
   121   59  184 1    
   122   60   61 2    
   123   60   62 1    
   124   62   63 1    
   125   62   64 1    
   126   62  185 1    
   127   63  186 1    
   128   63  187 1    
   129   63  188 1    
   130   64   65 am   BACKBONE|DICT|INTERRES
   131   64  189 1    
   132   65   66 2    
   133   67   68 2    
   134   67   69 am   BACKBONE|DICT|INTERRES
   135   69   70 1    
   136   69  190 1    
   137   70   71 1    
   138   70   72 1    
   139   70  191 1    
   140   71  192 1    
   141   71  193 1    
   142   71  194 1    
   143   72   73 2    
   144   72   74 am   BACKBONE|DICT|INTERRES
   145   74   75 1    
   146   74  195 1    
   147   75   76 1    
   148   75   77 1    
   149   75  196 1    
   150   76  197 1    
   151   76  198 1    
   152   76  199 1    
   153   77   78 2    
   154   77   79 am   BACKBONE|DICT|INTERRES
   155   79   80 1    
   156   79  200 1    
   157   80   81 1    
   158   80   82 1    
   159   80  201 1    
   160   81  202 1    
   161   81  203 1    
   162   81  204 1    
   163   82   83 2    
   164   82   84 am   BACKBONE|DICT|INTERRES
   165   84   85 1    
   166   84  205 1    
   167   85   86 1    
   168   85   87 1    
   169   85  206 1    
   170   86  207 1    
   171   86  208 1    
   172   86  209 1    
   173   87   88 2    
   174   87   89 am   BACKBONE|DICT|INTERRES
   175   89   90 1    
   176   89  210 1    
   177   90   91 1    
   178   90   92 1    
   179   90  211 1    
   180   91  212 1    
   181   91  213 1    
   182   91  214 1    
   183   92   93 2    
   184   92   94 am   BACKBONE|DICT|INTERRES
   185   94   95 1    
   186   94  215 1    
   187   95   96 1    
   188   95   97 1    
   189   95  216 1    
   190   96  217 1    
   191   96  218 1    
   192   96  219 1    
   193   97   98 2    
   194   97   99 am   BACKBONE|DICT|INTERRES
   195   99  100 1    
   196   99  220 1    
   197  100  101 1    
   198  100  102 1    
   199  100  221 1    
   200  101  222 1    
   201  101  223 1    
   202  101  224 1    
   203  102  103 2    
   204  102  104 am   BACKBONE|DICT|INTERRES
   205  104  105 1    
   206  104  225 1    
   207  105  106 1    
   208  105  107 1    
   209  105  226 1    
   210  106  227 1    
   211  106  228 1    
   212  106  229 1    
   213  107  108 2    
   214  107  109 am   BACKBONE|DICT|INTERRES
   215  109  110 1    
   216  109  230 1    
   217  110  111 1    
   218  110  112 1    
   219  110  231 1    
   220  111  232 1    
   221  111  233 1    
   222  111  234 1    
   223  112  113 2    
   224  112  114 am   BACKBONE|DICT|INTERRES
   225  114  115 1    
   226  114  235 1    
   227  115  116 1    
   228  115  117 1    
   229  115  236 1    
   230  116  237 1    
   231  116  238 1    
   232  116  239 1    
   233  117  118 2    
   234  117  119 am   BACKBONE|DICT|INTERRES
   235  119  120 1    
   236  119  240 1    
   237  120  121 1    
   238  120  124 1    
   239  120  241 1    
   240  121  122 am   BACKBONE|DICT|INTERRES
   241  121  123 2    
   242  122  242 1    
   243  122  243 1    
   244  124  125 1    
   245  124  244 1    
   246  124  245 1    
   247  125  126 1    
   248  126  246 1    
   249  126  247 1    
@<TRIPOS>SUBSTRUCTURE
     1 UNK         1 GROUP             0       ****    0 ROOT    
