@<TRIPOS>MOLECULE
3R540
247   249    1
SMALL
USER_CHARGES


@<TRIPOS>ATOM
      1 CA          5.0818  -11.9872  -52.2765 C.3       0 UNK        -0.1800 
      2 C           3.9255  -11.1498  -51.7336 C.2       0 UNK         0.5000 
      3 O           3.6869  -10.0560  -52.2425 O.2       0 UNK        -0.5000 
      4 N           3.1865  -11.5998  -50.7140 N.am      1 UNK        -0.5000 
      5 CA          3.3110  -12.8599  -49.9803 C.3       1 UNK         0.1400 
      6 C6          2.8996  -14.1157  -50.7995 C.3       23 UNK        -0.0398 
      7 S7          1.2749  -13.9863  -51.6251 S.3       23 UNK        -0.2404 
      8 C8          0.2583  -15.0975  -50.6098 C.3       23 UNK        -0.0205 
      9 C9          0.5314  -16.5638  -50.9023 C.ar      23 UNK        -0.0193 
     10 C10         0.0677  -17.1303  -52.0915 C.ar      23 UNK        -0.1150 
     11 C11         0.2323  -18.4953  -52.3411 C.ar      23 UNK        -0.0193 
     12 C12         0.8845  -19.2929  -51.3964 C.ar      23 UNK        -0.1150 
     13 C13         1.3817  -18.7328  -50.2154 C.ar      23 UNK        -0.0193 
     14 C14         1.2008  -17.3665  -49.9734 C.ar      23 UNK        -0.1150 
     15 C15         2.1449  -19.5956  -49.2189 C.3       23 UNK        -0.0205 
     16 S16         1.3142  -19.7131  -47.6038 S.3       23 UNK        -0.2404 
     17 C17        -0.0583  -20.8629  -47.9521 C.3       23 UNK        -0.0398 
     18 CA          0.1830  -22.2968  -47.4152 C.3       11 UNK         0.1400 
     19 N           0.5499  -22.3247  -45.9941 N.am      11 UNK        -0.5000 
     20 C           0.9468  -23.4197  -45.3289 C.2       10 UNK         0.5000 
     21 O           1.1275  -24.5136  -45.8615 O.2       10 UNK        -0.5000 
     22 CA          1.0993  -23.2897  -43.8037 C.3       10 UNK         0.1400 
     23 CB          2.5003  -22.7880  -43.4226 C.3       10 UNK        -0.1800 
     24 N           0.0726  -22.4133  -43.2370 N.am      10 UNK        -0.5000 
     25 C          -1.2197  -22.7550  -43.1248 C.2       9 UNK         0.5000 
     26 O          -1.6541  -23.8657  -43.4259 O.2       9 UNK        -0.5000 
     27 CA         -2.2011  -21.6713  -42.6426 C.3       9 UNK         0.1400 
     28 CB         -2.3229  -21.6957  -41.1123 C.3       9 UNK        -0.1800 
     29 N          -1.8189  -20.3312  -43.0875 N.am      9 UNK        -0.5000 
     30 C          -1.8823  -19.9161  -44.3625 C.2       8 UNK         0.5000 
     31 O          -2.3205  -20.6097  -45.2814 O.2       8 UNK        -0.5000 
     32 CA         -1.3163  -18.5166  -44.6806 C.3       8 UNK         0.1400 
     33 CB         -2.4299  -17.4635  -44.6150 C.3       8 UNK        -0.1800 
     34 N          -0.2187  -18.1059  -43.8038 N.am      8 UNK        -0.5000 
     35 C           0.9250  -18.7867  -43.6339 C.2       7 UNK         0.5000 
     36 O           1.1957  -19.8170  -44.2484 O.2       7 UNK        -0.5000 
     37 CA          1.8977  -18.2884  -42.5468 C.3       7 UNK         0.1400 
     38 CB          2.9829  -17.4028  -43.1754 C.3       7 UNK        -0.1800 
     39 N           1.2518  -17.5466  -41.4614 N.am      7 UNK        -0.5000 
     40 C           0.2371  -17.9742  -40.6939 C.2       6 UNK         0.5000 
     41 O          -0.2344  -19.1095  -40.7580 O.2       6 UNK        -0.5000 
     42 CA         -0.3960  -16.9430  -39.7353 C.3       6 UNK         0.1400 
     43 CB          0.0680  -17.1954  -38.2931 C.3       6 UNK        -0.1800 
     44 N          -0.1105  -15.5478  -40.0932 N.am      6 UNK        -0.5000 
     45 C          -0.4851  -14.9500  -41.2332 C.2       5 UNK         0.5000 
     46 O          -1.1618  -15.5038  -42.1033 O.2       5 UNK        -0.5000 
     47 CA          0.0678  -13.5326  -41.4530 C.3       5 UNK         0.1400 
     48 CB          1.5818  -13.5914  -41.7163 C.3       5 UNK        -0.1800 
     49 N          -0.5678  -12.8928  -42.6009 N.am      5 UNK        -0.5000 
     50 C          -1.6052  -12.0497  -42.5329 C.2       4 UNK         0.5000 
     51 O          -2.1442  -11.7175  -41.4759 O.2       4 UNK        -0.5000 
     52 CA         -2.1143  -11.4447  -43.8570 C.3       4 UNK         0.1400 
     53 CB         -1.7277   -9.9599  -43.9508 C.3       4 UNK        -0.1800 
     54 N          -1.6006  -12.1328  -45.0429 N.am      4 UNK        -0.5000 
     55 C          -2.1114  -13.2634  -45.5471 C.2       3 UNK         0.5000 
     56 O          -3.0949  -13.8366  -45.0794 O.2       3 UNK        -0.5000 
     57 CA         -1.4101  -13.8469  -46.7888 C.3       3 UNK         0.1400 
     58 CB         -2.1225  -13.3699  -48.0642 C.3       3 UNK        -0.1800 
     59 N           0.0171  -13.5153  -46.8760 N.am      3 UNK        -0.5000 
     60 C           0.9618  -13.9651  -46.0397 C.2       2 UNK         0.5000 
     61 O           0.7156  -14.7134  -45.0930 O.2       2 UNK        -0.5000 
     62 CA          2.4097  -13.4768  -46.2818 C.3       2 UNK         0.1400 
     63 CB          3.4380  -14.2227  -45.4121 C.3       2 UNK        -0.1800 
     64 N           2.8578  -13.5576  -47.6758 N.am      2 UNK        -0.5000 
     65 C           2.5252  -12.7163  -48.6621 C.2       1 UNK         0.5000 
     66 O           1.6580  -11.8442  -48.5487 O.2       1 UNK        -0.5000 
     67 C          -1.0431  -23.1981  -47.6845 C.2       11 UNK         0.5000 
     68 O          -1.0323  -23.9876  -48.6296 O.2       11 UNK        -0.5000 
     69 N          -2.0613  -23.1046  -46.8151 N.am      12 UNK        -0.5000 
     70 CA         -3.2579  -23.9469  -46.8461 C.3       12 UNK         0.1400 
     71 CB         -4.3027  -23.4032  -45.8620 C.3       12 UNK        -0.1800 
     72 C          -2.9563  -25.4328  -46.5802 C.2       12 UNK         0.5000 
     73 O          -3.4929  -26.2866  -47.2854 O.2       12 UNK        -0.5000 
     74 N          -2.0660  -25.7214  -45.6195 N.am      13 UNK        -0.5000 
     75 CA         -1.5733  -27.0711  -45.3201 C.3       13 UNK         0.1400 
     76 CB         -0.7257  -27.0412  -44.0399 C.3       13 UNK        -0.1800 
     77 C          -0.7798  -27.6995  -46.4840 C.2       13 UNK         0.5000 
     78 O          -0.8516  -28.9121  -46.6840 O.2       13 UNK        -0.5000 
     79 N          -0.0821  -26.8587  -47.2597 N.am      14 UNK        -0.5000 
     80 CA          0.5990  -27.2155  -48.5066 C.3       14 UNK         0.1400 
     81 CB          1.7051  -26.1825  -48.7808 C.3       14 UNK        -0.1800 
     82 C          -0.3544  -27.3471  -49.7173 C.2       14 UNK         0.5000 
     83 O           0.1180  -27.6358  -50.8175 O.2       14 UNK        -0.5000 
     84 N          -1.6638  -27.1434  -49.5024 N.am      15 UNK        -0.5000 
     85 CA         -2.7612  -27.2301  -50.4703 C.3       15 UNK         0.1400 
     86 CB         -2.8855  -28.6557  -51.0494 C.3       15 UNK        -0.1800 
     87 C          -2.7151  -26.1320  -51.5521 C.2       15 UNK         0.5000 
     88 O          -3.1421  -26.3668  -52.6838 O.2       15 UNK        -0.5000 
     89 N          -2.2237  -24.9442  -51.1812 N.am      16 UNK        -0.5000 
     90 CA         -2.1579  -23.7615  -52.0325 C.3       16 UNK         0.1400 
     91 CB         -0.7975  -23.7158  -52.7546 C.3       16 UNK        -0.1800 
     92 C          -2.4244  -22.5284  -51.1600 C.2       16 UNK         0.5000 
     93 O          -1.5362  -21.6923  -51.0015 O.2       16 UNK        -0.5000 
     94 N          -3.6213  -22.4855  -50.5493 N.am      17 UNK        -0.5000 
     95 CA         -4.0646  -21.4662  -49.5904 C.3       17 UNK         0.1400 
     96 CB         -5.5321  -21.7129  -49.2101 C.3       17 UNK        -0.1800 
     97 C          -3.8699  -20.0324  -50.1091 C.2       17 UNK         0.5000 
     98 O          -4.2936  -19.7360  -51.2295 O.2       17 UNK        -0.5000 
     99 N          -3.2089  -19.2082  -49.2854 N.am      18 UNK        -0.5000 
    100 CA        -2.6161  -17.9178  -49.6313 C.3       18 UNK         0.1400 
    101 CB        -1.9806  -17.3038  -48.3759 C.3       18 UNK        -0.1800 
    102 C         -3.5865  -16.9346  -50.3069 C.2       18 UNK         0.5000 
    103 O         -4.4180  -16.3289  -49.6292 O.2       18 UNK        -0.5000 
    104 N         -3.4626  -16.8308  -51.6372 N.am      19 UNK        -0.5000 
    105 CA        -4.2807  -16.0349  -52.5575 C.3       19 UNK         0.1400 
    106 CB        -4.0989  -14.5276  -52.2816 C.3       19 UNK        -0.1800 
    107 C         -5.7657  -16.4634  -52.6046 C.2       19 UNK         0.5000 
    108 O         -6.6116  -15.6725  -53.0265 O.2       19 UNK        -0.5000 
    109 N         -6.0573  -17.7009  -52.1821 N.am      20 UNK        -0.5000 
    110 CA        -7.4026  -18.2632  -52.0782 C.3       20 UNK         0.1400 
    111 CB        -7.7245  -18.5140  -50.5963 C.3       20 UNK        -0.1800 
    112 C         -7.5523  -19.5606  -52.8884 C.2       20 UNK         0.5000 
    113 O         -8.6317  -19.7978  -53.4325 O.2       20 UNK        -0.5000 
    114 N         -6.4903  -20.3750  -52.9661 N.am      21 UNK        -0.5000 
    115 CA        -6.4942  -21.6675  -53.6572 C.3       21 UNK         0.1400 
    116 CB        -6.9176  -22.7848  -52.6840 C.3       21 UNK        -0.1800 
    117 C         -5.1453  -21.9551  -54.3386 C.2       21 UNK         0.5000 
    118 O         -4.7698  -23.1187  -54.4819 O.2       21 UNK        -0.5000 
    119 N         -4.4370  -20.8977  -54.7529 N.am      22 UNK        -0.5000 
    120 CA        -3.1336  -20.9779  -55.4385 C.3       22 UNK         0.1400 
    121 C         -3.1851  -21.5440  -56.8897 C.2       22 UNK         0.5000 
    122 N         -4.3450  -21.6480  -57.5272 N.am      22 UNK        -0.7600 
    123 O         -2.1497  -21.8983  -57.4465 O.2       22 UNK        -0.5000 
    124 C124       -2.3963  -19.6164  -55.4238 C.3       23 UNK        -0.0398 
    125 S125       -2.1001  -18.9986  -53.7352 S.3       23 UNK        -0.2404 
    126 C126       -0.2873  -19.0973  -53.6366 C.3       23 UNK        -0.0205 
    127 H127        5.6192  -12.5148  -51.4901 H         1 UNK         0.0600 
    128 H128        5.8022  -11.3467  -52.7856 H         1 UNK         0.0600 
    129 H129        4.7135  -12.7135  -53.0007 H         1 UNK         0.0600 
    130 H130        2.4353  -11.0238  -50.3531 H         1 UNK         0.3000 
    131 H131        4.3560  -12.9702  -49.6863 H         1 UNK         0.0600 
    132 H132        2.9295  -15.0092  -50.1751 H         1 UNK         0.0800 
    133 H133        3.6382  -14.3025  -51.5781 H         1 UNK         0.0800 
    134 H134        0.4109  -14.8750  -49.5530 H         1 UNK         0.0800 
    135 H135       -0.7915  -14.8912  -50.8220 H         1 UNK         0.0800 
    136 H136       -0.4427  -16.5105  -52.8157 H         1 UNK         0.1150 
    137 H137        1.0117  -20.3498  -51.5853 H         1 UNK         0.1150 
    138 H138        1.5688  -16.9358  -49.0528 H         1 UNK         0.1150 
    139 H139        2.3105  -20.5998  -49.6123 H         1 UNK         0.0800 
    140 H140        3.1338  -19.1606  -49.0692 H         1 UNK         0.0800 
    141 H141       -0.2281  -20.8842  -49.0273 H         1 UNK         0.0800 
    142 H142       -0.9604  -20.4354  -47.5161 H         1 UNK         0.0800 
    143 H143        1.0221  -22.7201  -47.9715 H         1 UNK         0.0600 
    144 H144        0.4948  -21.4463  -45.4914 H         1 UNK         0.3000 
    145 H145        0.9751  -24.2829  -43.3678 H         1 UNK         0.0600 
    146 H146        2.5989  -22.6708  -42.3434 H         1 UNK         0.0600 
    147 H147        3.2627  -23.4989  -43.7434 H         1 UNK         0.0600 
    148 H148        2.7364  -21.8319  -43.8884 H         1 UNK         0.0600 
    149 H149        0.3471  -21.4588  -43.0464 H         1 UNK         0.3000 
    150 H150       -3.1832  -21.8987  -43.0618 H         1 UNK         0.0600 
    151 H151       -2.6944  -22.6619  -40.7684 H         1 UNK         0.0600 
    152 H152       -3.0179  -20.9344  -40.7578 H         1 UNK         0.0600 
    153 H153       -1.3612  -21.5255  -40.6276 H         1 UNK         0.0600 
    154 H154       -1.4039  -19.7245  -42.3887 H         1 UNK         0.3000 
    155 H155       -0.9251  -18.5449  -45.6981 H         1 UNK         0.0600 
    156 H156       -2.8306  -17.3662  -43.6052 H         1 UNK         0.0600 
    157 H157       -2.0616  -16.4845  -44.9202 H         1 UNK         0.0600 
    158 H158       -3.2590  -17.7231  -45.2741 H         1 UNK         0.0600 
    159 H159       -0.3693  -17.2633  -43.2613 H         1 UNK         0.3000 
    160 H160        2.3756  -19.1663  -42.1078 H         1 UNK         0.0600 
    161 H161        3.7306  -17.1065  -42.4396 H         1 UNK         0.0600 
    162 H162        2.5548  -16.4971  -43.6060 H         1 UNK         0.0600 
    163 H163        3.5047  -17.9308  -43.9750 H         1 UNK         0.0600 
    164 H164        1.5634  -16.5969  -41.3286 H         1 UNK         0.3000 
    165 H165       -1.4779  -17.0841  -39.7783 H         1 UNK         0.0600 
    166 H166       -0.4360  -16.5285  -37.5933 H         1 UNK         0.0600 
    167 H167       -0.1559  -18.2173  -37.9836 H         1 UNK         0.0600 
    168 H168        1.1433  -17.0479  -38.1846 H         1 UNK         0.0600 
    169 H169        0.4485  -15.0272  -39.4324 H         1 UNK         0.3000 
    170 H170       -0.1072  -12.9455  -40.5490 H         1 UNK         0.0600 
    171 H171        1.9810  -12.6063  -41.9591 H         1 UNK         0.0600 
    172 H172        1.8146  -14.2613  -42.5435 H         1 UNK         0.0600 
    173 H173        2.1240  -13.9509  -40.8411 H         1 UNK         0.0600 
    174 H174       -0.2563  -13.2057  -43.5102 H         1 UNK         0.3000 
    175 H175       -3.2044  -11.5114  -43.8498 H         1 UNK         0.0600 
    176 H176       -2.1296   -9.5038  -44.8558 H         1 UNK         0.0600 
    177 H177       -0.6453   -9.8252  -43.9580 H         1 UNK         0.0600 
    178 H178       -2.1226   -9.3977  -43.1034 H         1 UNK         0.0600 
    179 H179       -0.7997  -11.7208  -45.4985 H         1 UNK         0.3000 
    180 H180       -1.4976  -14.9322  -46.7272 H         1 UNK         0.0600 
    181 H181       -2.0524  -12.2880  -48.1832 H         1 UNK         0.0600 
    182 H182       -3.1815  -13.6313  -48.0411 H         1 UNK         0.0600 
    183 H183       -1.7015  -13.8305  -48.9544 H         1 UNK         0.0600 
    184 H184        0.3059  -12.8741  -47.6092 H         1 UNK         0.3000 
    185 H185        2.4322  -12.4271  -45.9815 H         1 UNK         0.0600 
    186 H186        3.4472  -15.2915  -45.6293 H         1 UNK         0.0600 
    187 H187        4.4455  -13.8390  -45.5740 H         1 UNK         0.0600 
    188 H188        3.2218  -14.1013  -44.3516 H         1 UNK         0.0600 
    189 H189        3.5548  -14.2646  -47.8600 H         1 UNK         0.3000 
    190 H190       -2.0204  -22.3996  -46.0854 H         1 UNK         0.3000 
    191 H191       -3.6795  -23.8836  -47.8505 H         1 UNK         0.0600 
    192 H192       -4.5541  -22.3663  -46.0861 H         1 UNK         0.0600 
    193 H193       -5.2259  -23.9812  -45.9161 H         1 UNK         0.0600 
    194 H194       -3.9489  -23.4470  -44.8324 H         1 UNK         0.0600 
    195 H195       -1.7217  -24.9708  -45.0281 H         1 UNK         0.3000 
    196 H196       -2.4423  -27.7058  -45.1349 H         1 UNK         0.0600 
    197 H197       -0.3963  -28.0445  -43.7674 H         1 UNK         0.0600 
    198 H198       -1.2942  -26.6460  -43.1979 H         1 UNK         0.0600 
    199 H199        0.1657  -26.4268  -44.1623 H         1 UNK         0.0600 
    200 H200       -0.0248  -25.8848  -46.9831 H         1 UNK         0.3000 
    201 H201        1.0770  -28.1877  -48.3715 H         1 UNK         0.0600 
    202 H202        2.3961  -26.1125  -47.9405 H         1 UNK         0.0600 
    203 H203        1.2953  -25.1887  -48.9592 H         1 UNK         0.0600 
    204 H204        2.2908  -26.4569  -49.6589 H         1 UNK         0.0600 
    205 H205       -1.9523  -26.8880  -48.5654 H         1 UNK         0.3000 
    206 H206       -3.6716  -27.0384  -49.9014 H         1 UNK         0.0600 
    207 H207       -2.9206  -29.4018  -50.2555 H         1 UNK         0.0600 
    208 H208       -3.8010  -28.7616  -51.6324 H         1 UNK         0.0600 
    209 H209       -2.0516  -28.9027  -51.7068 H         1 UNK         0.0600 
    210 H210       -1.8757  -24.8161  -50.2338 H         1 UNK         0.3000 
    211 H211       -2.9465  -23.7957  -52.7842 H         1 UNK         0.0600 
    212 H212        0.0314  -23.7023  -52.0456 H         1 UNK         0.0600 
    213 H213       -0.7154  -22.8244  -53.3776 H         1 UNK         0.0600 
    214 H214       -0.6679  -24.5812  -53.4045 H         1 UNK         0.0600 
    215 H215       -4.2735  -23.2306  -50.7399 H         1 UNK         0.3000 
    216 H216       -3.4577  -21.5910  -48.6937 H         1 UNK         0.0600 
    217 H217       -5.8470  -21.0293  -48.4207 H         1 UNK         0.0600 
    218 H218       -5.6856  -22.7262  -48.8393 H         1 UNK         0.0600 
    219 H219       -6.2013  -21.5588  -50.0563 H         1 UNK         0.0600 
    220 H220       -2.9801  -19.5475  -48.3641 H         1 UNK         0.3000 
    221 H221       -1.8106  -18.1374  -50.3311 H         1 UNK         0.0600 
    222 H222       -2.7183  -17.1325  -47.5920 H         1 UNK         0.0600 
    223 H223       -1.1962  -17.9445  -47.9763 H         1 UNK         0.0600 
    224 H224       -1.5189  -16.3457  -48.6098 H         1 UNK         0.0600 
    225 H225       -2.7942  -17.4415  -52.0918 H         1 UNK         0.3000 
    226 H226       -3.8846  -16.2340  -53.5542 H         1 UNK         0.0600 
    227 H227       -3.0436  -14.2547  -52.2643 H         1 UNK         0.0600 
    228 H228       -4.5745  -13.9265  -53.0573 H         1 UNK         0.0600 
    229 H229       -4.5371  -14.2341  -51.3273 H         1 UNK         0.0600 
    230 H230       -5.2973  -18.2907  -51.8529 H         1 UNK         0.3000 
    231 H231       -8.1417  -17.5602  -52.4675 H         1 UNK         0.0600 
    232 H232       -7.0088  -19.1967  -50.1383 H         1 UNK         0.0600 
    233 H233       -8.7183  -18.9476  -50.4775 H         1 UNK         0.0600 
    234 H234       -7.7045  -17.5833  -50.0291 H         1 UNK         0.0600 
    235 H235       -5.6369  -20.1385  -52.4643 H         1 UNK         0.3000 
    236 H236       -7.2235  -21.6383  -54.4692 H         1 UNK         0.0600 
    237 H237       -7.8553  -22.5445  -52.1828 H         1 UNK         0.0600 
    238 H238       -7.0675  -23.7268  -53.2128 H         1 UNK         0.0600 
    239 H239       -6.1607  -22.9587  -51.9207 H         1 UNK         0.0600 
    240 H240       -4.8080  -19.9720  -54.6004 H         1 UNK         0.3000 
    241 H241       -2.5208  -21.6823  -54.8723 H         1 UNK         0.0600 
    242 H242       -5.2032  -21.3612  -57.0850 H         1 UNK         0.3800 
    243 H243       -4.3643  -22.0195  -58.4642 H         1 UNK         0.3800 
    244 H244       -1.4413  -19.6904  -55.9471 H         1 UNK         0.0800 
    245 H245       -2.9762  -18.8659  -55.9635 H         1 UNK         0.0800 
    246 H246        0.1562  -18.5615  -54.4771 H         1 UNK         0.0800 
    247 H247        0.0176  -20.1409  -53.7298 H         1 UNK         0.0800 
@<TRIPOS>BOND
     1    1    2 1    
     2    1  127 1    
     3    1  128 1    
     4    1  129 1    
     5    2    3 2    
     6    2    4 am   BACKBONE|DICT|INTERRES
     7    4    5 1    
     8    4  130 1    
     9    5    6 1    
    10    5   65 1    
    11    5  131 1    
    12    6    7 1    
    13    6  132 1    
    14    6  133 1    
    15    7    8 1    
    16    8    9 1    
    17    8  134 1    
    18    8  135 1    
    19    9   10 ar   
    20    9   14 ar   
    21   10   11 ar   
    22   10  136 1    
    23   11   12 ar   
    24   11  126 1    
    25   12   13 ar   
    26   12  137 1    
    27   13   14 ar   
    28   13   15 1    
    29   14  138 1    
    30   15   16 1    
    31   15  139 1    
    32   15  140 1    
    33   16   17 1    
    34   17   18 1    
    35   17  141 1    
    36   17  142 1    
    37   18   19 1    
    38   18   67 1    
    39   18  143 1    
    40   19   20 am   BACKBONE|DICT|INTERRES
    41   19  144 1    
    42   20   21 2    
    43   20   22 1    
    44   22   23 1    
    45   22   24 1    
    46   22  145 1    
    47   23  146 1    
    48   23  147 1    
    49   23  148 1    
    50   24   25 am   BACKBONE|DICT|INTERRES
    51   24  149 1    
    52   25   26 2    
    53   25   27 1    
    54   27   28 1    
    55   27   29 1    
    56   27  150 1    
    57   28  151 1    
    58   28  152 1    
    59   28  153 1    
    60   29   30 am   BACKBONE|DICT|INTERRES
    61   29  154 1    
    62   30   31 2    
    63   30   32 1    
    64   32   33 1    
    65   32   34 1    
    66   32  155 1    
    67   33  156 1    
    68   33  157 1    
    69   33  158 1    
    70   34   35 am   BACKBONE|DICT|INTERRES
    71   34  159 1    
    72   35   36 2    
    73   35   37 1    
    74   37   38 1    
    75   37   39 1    
    76   37  160 1    
    77   38  161 1    
    78   38  162 1    
    79   38  163 1    
    80   39   40 am   BACKBONE|DICT|INTERRES
    81   39  164 1    
    82   40   41 2    
    83   40   42 1    
    84   42   43 1    
    85   42   44 1    
    86   42  165 1    
    87   43  166 1    
    88   43  167 1    
    89   43  168 1    
    90   44   45 am   BACKBONE|DICT|INTERRES
    91   44  169 1    
    92   45   46 2    
    93   45   47 1    
    94   47   48 1    
    95   47   49 1    
    96   47  170 1    
    97   48  171 1    
    98   48  172 1    
    99   48  173 1    
   100   49   50 am   BACKBONE|DICT|INTERRES
   101   49  174 1    
   102   50   51 2    
   103   50   52 1    
   104   52   53 1    
   105   52   54 1    
   106   52  175 1    
   107   53  176 1    
   108   53  177 1    
   109   53  178 1    
   110   54   55 am   BACKBONE|DICT|INTERRES
   111   54  179 1    
   112   55   56 2    
   113   55   57 1    
   114   57   58 1    
   115   57   59 1    
   116   57  180 1    
   117   58  181 1    
   118   58  182 1    
   119   58  183 1    
   120   59   60 am   BACKBONE|DICT|INTERRES
   121   59  184 1    
   122   60   61 2    
   123   60   62 1    
   124   62   63 1    
   125   62   64 1    
   126   62  185 1    
   127   63  186 1    
   128   63  187 1    
   129   63  188 1    
   130   64   65 am   BACKBONE|DICT|INTERRES
   131   64  189 1    
   132   65   66 2    
   133   67   68 2    
   134   67   69 am   BACKBONE|DICT|INTERRES
   135   69   70 1    
   136   69  190 1    
   137   70   71 1    
   138   70   72 1    
   139   70  191 1    
   140   71  192 1    
   141   71  193 1    
   142   71  194 1    
   143   72   73 2    
   144   72   74 am   BACKBONE|DICT|INTERRES
   145   74   75 1    
   146   74  195 1    
   147   75   76 1    
   148   75   77 1    
   149   75  196 1    
   150   76  197 1    
   151   76  198 1    
   152   76  199 1    
   153   77   78 2    
   154   77   79 am   BACKBONE|DICT|INTERRES
   155   79   80 1    
   156   79  200 1    
   157   80   81 1    
   158   80   82 1    
   159   80  201 1    
   160   81  202 1    
   161   81  203 1    
   162   81  204 1    
   163   82   83 2    
   164   82   84 am   BACKBONE|DICT|INTERRES
   165   84   85 1    
   166   84  205 1    
   167   85   86 1    
   168   85   87 1    
   169   85  206 1    
   170   86  207 1    
   171   86  208 1    
   172   86  209 1    
   173   87   88 2    
   174   87   89 am   BACKBONE|DICT|INTERRES
   175   89   90 1    
   176   89  210 1    
   177   90   91 1    
   178   90   92 1    
   179   90  211 1    
   180   91  212 1    
   181   91  213 1    
   182   91  214 1    
   183   92   93 2    
   184   92   94 am   BACKBONE|DICT|INTERRES
   185   94   95 1    
   186   94  215 1    
   187   95   96 1    
   188   95   97 1    
   189   95  216 1    
   190   96  217 1    
   191   96  218 1    
   192   96  219 1    
   193   97   98 2    
   194   97   99 am   BACKBONE|DICT|INTERRES
   195   99  100 1    
   196   99  220 1    
   197  100  101 1    
   198  100  102 1    
   199  100  221 1    
   200  101  222 1    
   201  101  223 1    
   202  101  224 1    
   203  102  103 2    
   204  102  104 am   BACKBONE|DICT|INTERRES
   205  104  105 1    
   206  104  225 1    
   207  105  106 1    
   208  105  107 1    
   209  105  226 1    
   210  106  227 1    
   211  106  228 1    
   212  106  229 1    
   213  107  108 2    
   214  107  109 am   BACKBONE|DICT|INTERRES
   215  109  110 1    
   216  109  230 1    
   217  110  111 1    
   218  110  112 1    
   219  110  231 1    
   220  111  232 1    
   221  111  233 1    
   222  111  234 1    
   223  112  113 2    
   224  112  114 am   BACKBONE|DICT|INTERRES
   225  114  115 1    
   226  114  235 1    
   227  115  116 1    
   228  115  117 1    
   229  115  236 1    
   230  116  237 1    
   231  116  238 1    
   232  116  239 1    
   233  117  118 2    
   234  117  119 am   BACKBONE|DICT|INTERRES
   235  119  120 1    
   236  119  240 1    
   237  120  121 1    
   238  120  124 1    
   239  120  241 1    
   240  121  122 am   BACKBONE|DICT|INTERRES
   241  121  123 2    
   242  122  242 1    
   243  122  243 1    
   244  124  125 1    
   245  124  244 1    
   246  124  245 1    
   247  125  126 1    
   248  126  246 1    
   249  126  247 1    
@<TRIPOS>SUBSTRUCTURE
     1 UNK         1 GROUP             0       ****    0 ROOT    
