@<TRIPOS>MOLECULE
3R540
247   249    1
SMALL
USER_CHARGES


@<TRIPOS>ATOM
      1 CA         -1.9417  -16.7137  -50.1603 C.3       0 UNK        -0.1800 
      2 C          -1.6788  -15.4216  -50.9183 C.2       0 UNK         0.5000 
      3 O          -2.5906  -14.9036  -51.5633 O.2       0 UNK        -0.5000 
      4 N          -0.4412  -14.9149  -50.8624 N.am      1 UNK        -0.5000 
      5 CA         -0.0209  -13.6737  -51.5240 C.3       1 UNK         0.1400 
      6 C6          1.4805  -13.7013  -51.9126 C.3       23 UNK        -0.0398 
      7 S7          2.7517  -13.4367  -50.6072 S.3       23 UNK        -0.2404 
      8 C8          2.4243  -14.6546  -49.2763 C.3       23 UNK        -0.0205 
      9 C9          2.3195  -16.1217  -49.6967 C.ar      23 UNK        -0.0193 
     10 C10         2.8095  -16.5951  -50.9185 C.ar      23 UNK        -0.1150 
     11 C11         2.5623  -17.9070  -51.3281 C.ar      23 UNK        -0.0193 
     12 C12         1.8947  -18.7834  -50.4683 C.ar      23 UNK        -0.1150 
     13 C13         1.4634  -18.3476  -49.2124 C.ar      23 UNK        -0.0193 
     14 C14         1.6769  -17.0175  -48.8372 C.ar      23 UNK        -0.1150 
     15 C15         0.7072  -19.2863  -48.2848 C.3       23 UNK        -0.0205 
     16 S16         1.8090  -20.1245  -47.1046 S.3       23 UNK        -0.2404 
     17 C17         2.2610  -21.6346  -48.0348 C.3       23 UNK        -0.0398 
     18 CA          1.4930  -22.9095  -47.5974 C.3       11 UNK         0.1400 
     19 N           1.6157  -23.1732  -46.1604 N.am      11 UNK        -0.5000 
     20 C           1.2581  -24.3188  -45.5651 C.2       10 UNK         0.5000 
     21 O           0.7966  -25.2873  -46.1665 O.2       10 UNK        -0.5000 
     22 CA          1.4019  -24.3809  -44.0359 C.3       10 UNK         0.1400 
     23 CB          2.8477  -24.7157  -43.6411 C.3       10 UNK        -0.1800 
     24 N           0.9876  -23.1544  -43.3546 N.am      10 UNK        -0.5000 
     25 C          -0.2315  -22.6050  -43.3968 C.2       9 UNK         0.5000 
     26 O          -1.1417  -23.0273  -44.1091 O.2       9 UNK        -0.5000 
     27 CA         -0.4873  -21.3815  -42.4976 C.3       9 UNK         0.1400 
     28 CB         -0.7354  -21.8065  -41.0390 C.3       9 UNK        -0.1800 
     29 N           0.5272  -20.3247  -42.5755 N.am      9 UNK        -0.5000 
     30 C           1.8201  -20.3467  -42.2182 C.2       8 UNK         0.5000 
     31 O           2.4076  -21.3417  -41.7916 O.2       8 UNK        -0.5000 
     32 CA          2.5796  -19.0146  -42.3428 C.3       8 UNK         0.1400 
     33 CB          2.9170  -18.7133  -43.8110 C.3       8 UNK        -0.1800 
     34 N           1.8265  -17.8952  -41.7788 N.am      8 UNK        -0.5000 
     35 C           1.5413  -17.7373  -40.4781 C.2       7 UNK         0.5000 
     36 O           1.9406  -18.4906  -39.5895 O.2       7 UNK        -0.5000 
     37 CA          0.6419  -16.5438  -40.1120 C.3       7 UNK         0.1400 
     38 CB          1.4515  -15.2389  -40.0474 C.3       7 UNK        -0.1800 
     39 N          -0.4609  -16.3917  -41.0603 N.am      7 UNK        -0.5000 
     40 C          -1.5554  -17.1656  -41.0781 C.2       6 UNK         0.5000 
     41 O          -1.7853  -18.0461  -40.2491 O.2       6 UNK        -0.5000 
     42 CA         -2.5594  -16.9228  -42.2198 C.3       6 UNK         0.1400 
     43 CB         -3.6311  -15.9088  -41.7923 C.3       6 UNK        -0.1800 
     44 N          -1.9106  -16.4548  -43.4451 N.am      6 UNK        -0.5000 
     45 C          -1.1914  -17.2427  -44.2578 C.2       5 UNK         0.5000 
     46 O          -1.0201  -18.4455  -44.0671 O.2       5 UNK        -0.5000 
     47 CA         -0.5171  -16.5741  -45.4686 C.3       5 UNK         0.1400 
     48 CB         -1.4925  -16.5398  -46.6518 C.3       5 UNK        -0.1800 
     49 N          -0.0484  -15.2139  -45.2025 N.am      5 UNK        -0.5000 
     50 C           0.8268  -14.8711  -44.2448 C.2       4 UNK         0.5000 
     51 O           1.4068  -15.6922  -43.5363 O.2       4 UNK        -0.5000 
     52 CA          1.0566  -13.3671  -43.9859 C.3       4 UNK         0.1400 
     53 CB          2.3610  -12.9088  -44.6544 C.3       4 UNK        -0.1800 
     54 N          -0.0361  -12.5060  -44.4440 N.am      4 UNK        -0.5000 
     55 C          -1.3244  -12.5939  -44.0797 C.2       3 UNK         0.5000 
     56 O          -1.7356  -13.3631  -43.2102 O.2       3 UNK        -0.5000 
     57 CA         -2.3314  -11.7341  -44.8743 C.3       3 UNK         0.1400 
     58 CB         -2.7196  -10.4850  -44.0695 C.3       3 UNK        -0.1800 
     59 N          -1.8630  -11.3209  -46.2060 N.am      3 UNK        -0.5000 
     60 C          -1.4769  -12.1472  -47.1891 C.2       2 UNK         0.5000 
     61 O          -1.4687  -13.3774  -47.0837 O.2       2 UNK        -0.5000 
     62 CA         -0.9485  -11.4909  -48.4729 C.3       2 UNK         0.1400 
     63 CB          0.3399  -10.6904  -48.1873 C.3       2 UNK        -0.1800 
     64 N          -0.6720  -12.5492  -49.4364 N.am      2 UNK        -0.5000 
     65 C          -0.4015  -12.4008  -50.7371 C.2       1 UNK         0.5000 
     66 O          -0.4323  -11.3160  -51.3205 O.2       1 UNK        -0.5000 
     67 C           0.0198  -22.8893  -48.0572 C.2       11 UNK         0.5000 
     68 O          -0.3091  -23.4821  -49.0847 O.2       11 UNK        -0.5000 
     69 N          -0.8416  -22.2380  -47.2636 N.am      12 UNK        -0.5000 
     70 CA         -2.2786  -22.1354  -47.5038 C.3       12 UNK         0.1400 
     71 CB         -2.8723  -21.0568  -46.5847 C.3       12 UNK        -0.1800 
     72 C          -2.9907  -23.4848  -47.3147 C.2       12 UNK         0.5000 
     73 O          -3.8622  -23.8297  -48.1124 O.2       12 UNK        -0.5000 
     74 N          -2.5769  -24.2416  -46.2887 N.am      13 UNK        -0.5000 
     75 CA         -3.0522  -25.5936  -46.0008 C.3       13 UNK         0.1400 
     76 CB         -2.5243  -26.0427  -44.6301 C.3       13 UNK        -0.1800 
     77 C          -2.6649  -26.6043  -47.0952 C.2       13 UNK         0.5000 
     78 O          -3.5049  -27.4128  -47.4902 O.2       13 UNK        -0.5000 
     79 N          -1.4187  -26.5236  -47.5851 N.am      14 UNK        -0.5000 
     80 CA         -0.8982  -27.3528  -48.6745 C.3       14 UNK         0.1400 
     81 CB          0.6212  -27.1596  -48.7931 C.3       14 UNK        -0.1800 
     82 C          -1.5868  -27.0675  -50.0207 C.2       14 UNK         0.5000 
     83 O          -1.8940  -28.0064  -50.7564 O.2       14 UNK        -0.5000 
     84 N          -1.8364  -25.7827  -50.3078 N.am      15 UNK        -0.5000 
     85 CA         -2.5712  -25.3305  -51.4903 C.3       15 UNK         0.1400 
     86 CB         -2.3414  -23.8248  -51.6680 C.3       15 UNK        -0.1800 
     87 C          -4.0823  -25.6175  -51.4143 C.2       15 UNK         0.5000 
     88 O          -4.7290  -25.7189  -52.4573 O.2       15 UNK        -0.5000 
     89 N          -4.6086  -25.7099  -50.1844 N.am      16 UNK        -0.5000 
     90 CA         -6.0237  -25.7827  -49.8150 C.3       16 UNK         0.1400 
     91 CB         -6.6649  -27.0946  -50.3129 C.3       16 UNK        -0.1800 
     92 C          -6.7899  -24.5148  -50.2485 C.2       16 UNK         0.5000 
     93 O          -7.9166  -24.6059  -50.7406 O.2       16 UNK        -0.5000 
     94 N          -6.1509  -23.3516  -50.0713 N.am      17 UNK        -0.5000 
     95 CA         -6.6576  -22.0446  -50.4702 C.3       17 UNK         0.1400 
     96 CB         -6.3312  -21.7879  -51.9518 C.3       17 UNK        -0.1800 
     97 C          -6.0237  -20.9753  -49.5741 C.2       17 UNK         0.5000 
     98 O          -4.8027  -20.9626  -49.4170 O.2       17 UNK        -0.5000 
     99 N          -6.8588  -20.0934  -49.0118 N.am      18 UNK        -0.5000 
    100 CA        -6.4393  -19.0061  -48.1219 C.3       18 UNK         0.1400 
    101 CB        -7.6420  -18.5762  -47.2673 C.3       18 UNK        -0.1800 
    102 C         -5.8496  -17.7921  -48.8670 C.2       18 UNK         0.5000 
    103 O         -5.1707  -16.9763  -48.2433 O.2       18 UNK        -0.5000 
    104 N         -6.1236  -17.6865  -50.1716 N.am      19 UNK        -0.5000 
    105 CA        -5.6254  -16.6510  -51.0680 C.3       19 UNK         0.1400 
    106 CB        -6.6984  -15.5658  -51.2485 C.3       19 UNK        -0.1800 
    107 C         -5.2715  -17.3070  -52.4087 C.2       19 UNK         0.5000 
    108 O         -5.9157  -18.2880  -52.7877 O.2       19 UNK        -0.5000 
    109 N         -4.2604  -16.7545  -53.0943 N.am      20 UNK        -0.5000 
    110 CA        -3.7096  -17.2179  -54.3773 C.3       20 UNK         0.1400 
    111 CB        -4.7388  -17.0437  -55.5134 C.3       20 UNK        -0.1800 
    112 C         -3.1230  -18.6472  -54.3086 C.2       20 UNK         0.5000 
    113 O         -3.1922  -19.4023  -55.2802 O.2       20 UNK        -0.5000 
    114 N         -2.5398  -18.9833  -53.1495 N.am      21 UNK        -0.5000 
    115 CA        -1.9799  -20.2936  -52.8070 C.3       21 UNK         0.1400 
    116 CB        -1.6085  -20.2838  -51.3147 C.3       21 UNK        -0.1800 
    117 C         -0.7653  -20.7179  -53.6580 C.2       21 UNK         0.5000 
    118 O         -0.4459  -21.9053  -53.7047 O.2       21 UNK        -0.5000 
    119 N         -0.1041  -19.7505  -54.3040 N.am      22 UNK        -0.5000 
    120 CA         1.0980  -19.9528  -55.1295 C.3       22 UNK         0.1400 
    121 C          0.8485  -20.6835  -56.4826 C.2       22 UNK         0.5000 
    122 N         -0.3902  -20.8426  -56.9347 N.am      22 UNK        -0.7600 
    123 O          1.7977  -21.1123  -57.1330 O.2       22 UNK        -0.5000 
    124 C124        1.8929  -18.6360  -55.3623 C.3       23 UNK        -0.0398 
    125 S125        1.9034  -17.4814  -53.9477 S.3       23 UNK        -0.2404 
    126 C126        2.9510  -18.3421  -52.7314 C.3       23 UNK        -0.0205 
    127 H127       -1.0231  -17.1626  -49.7888 H         1 UNK         0.0600 
    128 H128       -2.4349  -17.4398  -50.8020 H         1 UNK         0.0600 
    129 H129       -2.5992  -16.5188  -49.3138 H         1 UNK         0.0600 
    130 H130        0.2838  -15.4109  -50.3627 H         1 UNK         0.3000 
    131 H131       -0.5714  -13.6107  -52.4656 H         1 UNK         0.0600 
    132 H132        1.6528  -12.9194  -52.6540 H         1 UNK         0.0800 
    133 H133        1.6972  -14.6250  -52.4477 H         1 UNK         0.0800 
    134 H134        1.5148  -14.3541  -48.7546 H         1 UNK         0.0800 
    135 H135        3.2279  -14.5724  -48.5435 H         1 UNK         0.0800 
    136 H136        3.3351  -15.9349  -51.5921 H         1 UNK         0.1150 
    137 H137        1.6925  -19.7965  -50.7855 H         1 UNK         0.1150 
    138 H138        1.3205  -16.6711  -47.8781 H         1 UNK         0.1150 
    139 H139        0.1408  -20.0172  -48.8619 H         1 UNK         0.0800 
    140 H140       -0.0334  -18.7245  -47.7194 H         1 UNK         0.0800 
    141 H141        3.3289  -21.7962  -47.8839 H         1 UNK         0.0800 
    142 H142        2.1474  -21.4653  -49.1064 H         1 UNK         0.0800 
    143 H143        1.9608  -23.7518  -48.1123 H         1 UNK         0.0600 
    144 H144        1.9651  -22.4160  -45.5914 H         1 UNK         0.3000 
    145 H145        0.7571  -25.1862  -43.6787 H         1 UNK         0.0600 
    146 H146        2.9378  -24.8616  -42.5645 H         1 UNK         0.0600 
    147 H147        3.1822  -25.6356  -44.1225 H         1 UNK         0.0600 
    148 H148        3.5381  -23.9221  -43.9298 H         1 UNK         0.0600 
    149 H149        1.6714  -22.7071  -42.7479 H         1 UNK         0.3000 
    150 H150       -1.4088  -20.9228  -42.8597 H         1 UNK         0.0600 
    151 H151       -1.5545  -22.5241  -40.9769 H         1 UNK         0.0600 
    152 H152       -1.0062  -20.9491  -40.4223 H         1 UNK         0.0600 
    153 H153        0.1429  -22.2748  -40.5940 H         1 UNK         0.0600 
    154 H154        0.1689  -19.4625  -42.9776 H         1 UNK         0.3000 
    155 H155        3.5161  -19.1080  -41.7891 H         1 UNK         0.0600 
    156 H156        3.4776  -19.5330  -44.2620 H         1 UNK         0.0600 
    157 H157        3.5268  -17.8139  -43.8981 H         1 UNK         0.0600 
    158 H158        2.0171  -18.5621  -44.4080 H         1 UNK         0.0600 
    159 H159        1.5183  -17.1806  -42.4338 H         1 UNK         0.3000 
    160 H160        0.2249  -16.7286  -39.1195 H         1 UNK         0.0600 
    161 H161        1.9160  -14.9982  -41.0036 H         1 UNK         0.0600 
    162 H162        2.2494  -15.3147  -39.3077 H         1 UNK         0.0600 
    163 H163        0.8208  -14.3976  -39.7597 H         1 UNK         0.0600 
    164 H164       -0.3398  -15.7115  -41.7963 H         1 UNK         0.3000 
    165 H165       -3.0570  -17.8715  -42.4327 H         1 UNK         0.0600 
    166 H166       -4.3647  -15.7521  -42.5833 H         1 UNK         0.0600 
    167 H167       -4.1711  -16.2611  -40.9126 H         1 UNK         0.0600 
    168 H168       -3.1947  -14.9412  -41.5424 H         1 UNK         0.0600 
    169 H169       -1.9672  -15.4616  -43.6386 H         1 UNK         0.3000 
    170 H170        0.3488  -17.1798  -45.7414 H         1 UNK         0.0600 
    171 H171       -1.8575  -17.5369  -46.8996 H         1 UNK         0.0600 
    172 H172       -2.3656  -15.9226  -46.4356 H         1 UNK         0.0600 
    173 H173       -1.0105  -16.1301  -47.5376 H         1 UNK         0.0600 
    174 H174       -0.4895  -14.4792  -45.7473 H         1 UNK         0.3000 
    175 H175        1.1529  -13.2333  -42.9067 H         1 UNK         0.0600 
    176 H176        2.3087  -12.9974  -45.7405 H         1 UNK         0.0600 
    177 H177        2.5863  -11.8702  -44.4117 H         1 UNK         0.0600 
    178 H178        3.2060  -13.5104  -44.3163 H         1 UNK         0.0600 
    179 H179        0.1961  -11.8412  -45.1662 H         1 UNK         0.3000 
    180 H180       -3.2269  -12.3422  -45.0170 H         1 UNK         0.0600 
    181 H181       -1.8671   -9.8208  -43.9221 H         1 UNK         0.0600 
    182 H182       -3.0985  -10.7570  -43.0833 H         1 UNK         0.0600 
    183 H183       -3.5047   -9.9194  -44.5718 H         1 UNK         0.0600 
    184 H184       -1.8293  -10.3251  -46.3712 H         1 UNK         0.3000 
    185 H185       -1.7226  -10.8326  -48.8716 H         1 UNK         0.0600 
    186 H186        1.1289  -11.3310  -47.7908 H         1 UNK         0.0600 
    187 H187        0.7239  -10.2145  -49.0895 H         1 UNK         0.0600 
    188 H188        0.1652   -9.8946  -47.4628 H         1 UNK         0.0600 
    189 H189       -0.7111  -13.4781  -49.0361 H         1 UNK         0.3000 
    190 H190       -0.4921  -21.8183  -46.4147 H         1 UNK         0.3000 
    191 H191       -2.4272  -21.8230  -48.5393 H         1 UNK         0.0600 
    192 H192       -3.9489  -20.9713  -46.7330 H         1 UNK         0.0600 
    193 H193       -2.4366  -20.0795  -46.7927 H         1 UNK         0.0600 
    194 H194       -2.7039  -21.2817  -45.5312 H         1 UNK         0.0600 
    195 H195       -1.8953  -23.8528  -45.6421 H         1 UNK         0.3000 
    196 H196       -4.1425  -25.5593  -45.9501 H         1 UNK         0.0600 
    197 H197       -2.8873  -27.0400  -44.3789 H         1 UNK         0.0600 
    198 H198       -2.8542  -25.3673  -43.8405 H         1 UNK         0.0600 
    199 H199       -1.4348  -26.0738  -44.6087 H         1 UNK         0.0600 
    200 H200       -0.7644  -25.8705  -47.1633 H         1 UNK         0.3000 
    201 H201       -1.0875  -28.3977  -48.4201 H         1 UNK         0.0600 
    202 H202        1.1283  -27.4590  -47.8758 H         1 UNK         0.0600 
    203 H203        0.8801  -26.1195  -48.9946 H         1 UNK         0.0600 
    204 H204        1.0313  -27.7645  -49.6027 H         1 UNK         0.0600 
    205 H205       -1.4917  -25.0610  -49.6828 H         1 UNK         0.3000 
    206 H206       -2.1728  -25.8463  -52.3664 H         1 UNK         0.0600 
    207 H207       -1.2786  -23.6008  -51.7567 H         1 UNK         0.0600 
    208 H208       -2.8290  -23.4602  -52.5726 H         1 UNK         0.0600 
    209 H209       -2.7362  -23.2538  -50.8262 H         1 UNK         0.0600 
    210 H210       -3.9816  -25.5461  -49.4064 H         1 UNK         0.3000 
    211 H211       -6.0502  -25.7971  -48.7245 H         1 UNK         0.0600 
    212 H212       -6.7355  -27.1278  -51.4003 H         1 UNK         0.0600 
    213 H213       -7.6747  -27.2083  -49.9173 H         1 UNK         0.0600 
    214 H214       -6.0893  -27.9609  -49.9868 H         1 UNK         0.0600 
    215 H215       -5.2520  -23.3462  -49.5962 H         1 UNK         0.3000 
    216 H216       -7.7410  -22.0211  -50.3347 H         1 UNK         0.0600 
    217 H217       -6.7212  -20.8227  -52.2751 H         1 UNK         0.0600 
    218 H218       -6.7754  -22.5482  -52.5943 H         1 UNK         0.0600 
    219 H219       -5.2551  -21.7859  -52.1318 H         1 UNK         0.0600 
    220 H220       -7.8501  -20.1691  -49.1897 H         1 UNK         0.3000 
    221 H221       -5.6649  -19.3815  -47.4501 H         1 UNK         0.0600 
    222 H222       -8.4568  -18.1926  -47.8826 H         1 UNK         0.0600 
    223 H223       -8.0269  -19.4100  -46.6798 H         1 UNK         0.0600 
    224 H224       -7.3620  -17.7890  -46.5659 H         1 UNK         0.0600 
    225 H225       -6.6321  -18.4306  -50.6301 H         1 UNK         0.3000 
    226 H226       -4.7277  -16.1962  -50.6493 H         1 UNK         0.0600 
    227 H227       -7.6161  -15.9741  -51.6739 H         1 UNK         0.0600 
    228 H228       -6.9491  -15.0988  -50.2959 H         1 UNK         0.0600 
    229 H229       -6.3471  -14.7774  -51.9152 H         1 UNK         0.0600 
    230 H230       -3.7852  -15.9548  -52.6816 H         1 UNK         0.3000 
    231 H231       -2.8673  -16.5605  -54.5977 H         1 UNK         0.0600 
    232 H232       -5.5858  -17.7211  -55.4018 H         1 UNK         0.0600 
    233 H233       -4.2865  -17.2453  -56.4851 H         1 UNK         0.0600 
    234 H234       -5.1253  -16.0249  -55.5423 H         1 UNK         0.0600 
    235 H235       -2.5360  -18.2943  -52.4149 H         1 UNK         0.3000 
    236 H236       -2.7620  -21.0385  -52.9639 H         1 UNK         0.0600 
    237 H237       -2.4870  -20.1241  -50.6893 H         1 UNK         0.0600 
    238 H238       -1.1619  -21.2298  -51.0069 H         1 UNK         0.0600 
    239 H239       -0.8880  -19.4975  -51.0910 H         1 UNK         0.0600 
    240 H240       -0.4165  -18.7970  -54.2021 H         1 UNK         0.3000 
    241 H241        1.7488  -20.6193  -54.5610 H         1 UNK         0.0600 
    242 H242       -0.5436  -21.3185  -57.8098 H         1 UNK         0.3800 
    243 H243       -1.1776  -20.4936  -56.4073 H         1 UNK         0.3800 
    244 H244        2.9236  -18.8604  -55.6419 H         1 UNK         0.0800 
    245 H245        1.4683  -18.0847  -56.2033 H         1 UNK         0.0800 
    246 H246        2.8436  -19.4221  -52.8353 H         1 UNK         0.0800 
    247 H247        4.0000  -18.1099  -52.9196 H         1 UNK         0.0800 
@<TRIPOS>BOND
     1    1    2 1    
     2    1  127 1    
     3    1  128 1    
     4    1  129 1    
     5    2    3 2    
     6    2    4 am   BACKBONE|DICT|INTERRES
     7    4    5 1    
     8    4  130 1    
     9    5    6 1    
    10    5   65 1    
    11    5  131 1    
    12    6    7 1    
    13    6  132 1    
    14    6  133 1    
    15    7    8 1    
    16    8    9 1    
    17    8  134 1    
    18    8  135 1    
    19    9   10 ar   
    20    9   14 ar   
    21   10   11 ar   
    22   10  136 1    
    23   11   12 ar   
    24   11  126 1    
    25   12   13 ar   
    26   12  137 1    
    27   13   14 ar   
    28   13   15 1    
    29   14  138 1    
    30   15   16 1    
    31   15  139 1    
    32   15  140 1    
    33   16   17 1    
    34   17   18 1    
    35   17  141 1    
    36   17  142 1    
    37   18   19 1    
    38   18   67 1    
    39   18  143 1    
    40   19   20 am   BACKBONE|DICT|INTERRES
    41   19  144 1    
    42   20   21 2    
    43   20   22 1    
    44   22   23 1    
    45   22   24 1    
    46   22  145 1    
    47   23  146 1    
    48   23  147 1    
    49   23  148 1    
    50   24   25 am   BACKBONE|DICT|INTERRES
    51   24  149 1    
    52   25   26 2    
    53   25   27 1    
    54   27   28 1    
    55   27   29 1    
    56   27  150 1    
    57   28  151 1    
    58   28  152 1    
    59   28  153 1    
    60   29   30 am   BACKBONE|DICT|INTERRES
    61   29  154 1    
    62   30   31 2    
    63   30   32 1    
    64   32   33 1    
    65   32   34 1    
    66   32  155 1    
    67   33  156 1    
    68   33  157 1    
    69   33  158 1    
    70   34   35 am   BACKBONE|DICT|INTERRES
    71   34  159 1    
    72   35   36 2    
    73   35   37 1    
    74   37   38 1    
    75   37   39 1    
    76   37  160 1    
    77   38  161 1    
    78   38  162 1    
    79   38  163 1    
    80   39   40 am   BACKBONE|DICT|INTERRES
    81   39  164 1    
    82   40   41 2    
    83   40   42 1    
    84   42   43 1    
    85   42   44 1    
    86   42  165 1    
    87   43  166 1    
    88   43  167 1    
    89   43  168 1    
    90   44   45 am   BACKBONE|DICT|INTERRES
    91   44  169 1    
    92   45   46 2    
    93   45   47 1    
    94   47   48 1    
    95   47   49 1    
    96   47  170 1    
    97   48  171 1    
    98   48  172 1    
    99   48  173 1    
   100   49   50 am   BACKBONE|DICT|INTERRES
   101   49  174 1    
   102   50   51 2    
   103   50   52 1    
   104   52   53 1    
   105   52   54 1    
   106   52  175 1    
   107   53  176 1    
   108   53  177 1    
   109   53  178 1    
   110   54   55 am   BACKBONE|DICT|INTERRES
   111   54  179 1    
   112   55   56 2    
   113   55   57 1    
   114   57   58 1    
   115   57   59 1    
   116   57  180 1    
   117   58  181 1    
   118   58  182 1    
   119   58  183 1    
   120   59   60 am   BACKBONE|DICT|INTERRES
   121   59  184 1    
   122   60   61 2    
   123   60   62 1    
   124   62   63 1    
   125   62   64 1    
   126   62  185 1    
   127   63  186 1    
   128   63  187 1    
   129   63  188 1    
   130   64   65 am   BACKBONE|DICT|INTERRES
   131   64  189 1    
   132   65   66 2    
   133   67   68 2    
   134   67   69 am   BACKBONE|DICT|INTERRES
   135   69   70 1    
   136   69  190 1    
   137   70   71 1    
   138   70   72 1    
   139   70  191 1    
   140   71  192 1    
   141   71  193 1    
   142   71  194 1    
   143   72   73 2    
   144   72   74 am   BACKBONE|DICT|INTERRES
   145   74   75 1    
   146   74  195 1    
   147   75   76 1    
   148   75   77 1    
   149   75  196 1    
   150   76  197 1    
   151   76  198 1    
   152   76  199 1    
   153   77   78 2    
   154   77   79 am   BACKBONE|DICT|INTERRES
   155   79   80 1    
   156   79  200 1    
   157   80   81 1    
   158   80   82 1    
   159   80  201 1    
   160   81  202 1    
   161   81  203 1    
   162   81  204 1    
   163   82   83 2    
   164   82   84 am   BACKBONE|DICT|INTERRES
   165   84   85 1    
   166   84  205 1    
   167   85   86 1    
   168   85   87 1    
   169   85  206 1    
   170   86  207 1    
   171   86  208 1    
   172   86  209 1    
   173   87   88 2    
   174   87   89 am   BACKBONE|DICT|INTERRES
   175   89   90 1    
   176   89  210 1    
   177   90   91 1    
   178   90   92 1    
   179   90  211 1    
   180   91  212 1    
   181   91  213 1    
   182   91  214 1    
   183   92   93 2    
   184   92   94 am   BACKBONE|DICT|INTERRES
   185   94   95 1    
   186   94  215 1    
   187   95   96 1    
   188   95   97 1    
   189   95  216 1    
   190   96  217 1    
   191   96  218 1    
   192   96  219 1    
   193   97   98 2    
   194   97   99 am   BACKBONE|DICT|INTERRES
   195   99  100 1    
   196   99  220 1    
   197  100  101 1    
   198  100  102 1    
   199  100  221 1    
   200  101  222 1    
   201  101  223 1    
   202  101  224 1    
   203  102  103 2    
   204  102  104 am   BACKBONE|DICT|INTERRES
   205  104  105 1    
   206  104  225 1    
   207  105  106 1    
   208  105  107 1    
   209  105  226 1    
   210  106  227 1    
   211  106  228 1    
   212  106  229 1    
   213  107  108 2    
   214  107  109 am   BACKBONE|DICT|INTERRES
   215  109  110 1    
   216  109  230 1    
   217  110  111 1    
   218  110  112 1    
   219  110  231 1    
   220  111  232 1    
   221  111  233 1    
   222  111  234 1    
   223  112  113 2    
   224  112  114 am   BACKBONE|DICT|INTERRES
   225  114  115 1    
   226  114  235 1    
   227  115  116 1    
   228  115  117 1    
   229  115  236 1    
   230  116  237 1    
   231  116  238 1    
   232  116  239 1    
   233  117  118 2    
   234  117  119 am   BACKBONE|DICT|INTERRES
   235  119  120 1    
   236  119  240 1    
   237  120  121 1    
   238  120  124 1    
   239  120  241 1    
   240  121  122 am   BACKBONE|DICT|INTERRES
   241  121  123 2    
   242  122  242 1    
   243  122  243 1    
   244  124  125 1    
   245  124  244 1    
   246  124  245 1    
   247  125  126 1    
   248  126  246 1    
   249  126  247 1    
@<TRIPOS>SUBSTRUCTURE
     1 UNK         1 GROUP             0       ****    0 ROOT    
