@<TRIPOS>MOLECULE
3R540
247   249    1
SMALL
USER_CHARGES


@<TRIPOS>ATOM
      1 CA         -0.4669  -13.4454  -44.0611 C.3       0 UNK        -0.1800 
      2 C           0.6096  -13.1584  -45.0986 C.2       0 UNK         0.5000 
      3 O           1.2445  -12.1058  -45.0464 O.2       0 UNK        -0.5000 
      4 N           0.7907  -14.0779  -46.0540 N.am      1 UNK        -0.5000 
      5 CA          1.7240  -13.9611  -47.1777 C.3       1 UNK         0.1400 
      6 C6          1.5001  -15.0586  -48.2509 C.3       23 UNK        -0.0398 
      7 S7         -0.2149  -15.1249  -48.8781 S.3       23 UNK        -0.2404 
      8 C8         -0.6269  -16.8830  -48.6359 C.3       23 UNK        -0.0205 
      9 C9         -1.9281  -17.2494  -49.3321 C.ar      23 UNK        -0.0193 
     10 C10        -1.9522  -17.3987  -50.7211 C.ar      23 UNK        -0.1150 
     11 C11        -3.1396  -17.7205  -51.3821 C.ar      23 UNK        -0.0193 
     12 C12        -4.3029  -17.9268  -50.6346 C.ar      23 UNK        -0.1150 
     13 C13        -4.2937  -17.8122  -49.2396 C.ar      23 UNK        -0.0193 
     14 C14        -3.1022  -17.4455  -48.5972 C.ar      23 UNK        -0.1150 
     15 C15        -5.6006  -18.0659  -48.4843 C.3       23 UNK        -0.0205 
     16 S16        -5.4451  -18.5073  -46.7166 S.3       23 UNK        -0.2404 
     17 C17        -4.6283  -20.1432  -46.7718 C.3       23 UNK        -0.0398 
     18 CA         -3.2988  -20.1462  -45.9671 C.3       11 UNK         0.1400 
     19 N          -3.4521  -19.7457  -44.5650 N.am      11 UNK        -0.5000 
     20 C          -4.1588  -20.3707  -43.6110 C.2       10 UNK         0.5000 
     21 O          -4.7807  -21.4163  -43.8013 O.2       10 UNK        -0.5000 
     22 CA         -4.1627  -19.7333  -42.2040 C.3       10 UNK         0.1400 
     23 CB         -3.7455  -20.7532  -41.1306 C.3       10 UNK        -0.1800 
     24 N          -3.2699  -18.5743  -42.1270 N.am      10 UNK        -0.5000 
     25 C          -3.6380  -17.3039  -42.3486 C.2       9 UNK         0.5000 
     26 O          -4.8051  -16.9526  -42.5209 O.2       9 UNK        -0.5000 
     27 CA         -2.5138  -16.2496  -42.4306 C.3       9 UNK         0.1400 
     28 CB         -2.3764  -15.5063  -41.0941 C.3       9 UNK        -0.1800 
     29 N          -1.2134  -16.8104  -42.8177 N.am      9 UNK        -0.5000 
     30 C          -0.9521  -17.3589  -44.0137 C.2       8 UNK         0.5000 
     31 O          -1.7462  -17.3390  -44.9518 O.2       8 UNK        -0.5000 
     32 CA          0.3750  -18.1183  -44.1929 C.3       8 UNK         0.1400 
     33 CB          1.3857  -17.2935  -44.9936 C.3       8 UNK        -0.1800 
     34 N           0.9871  -18.5617  -42.9425 N.am      8 UNK        -0.5000 
     35 C           0.4729  -19.4954  -42.1314 C.2       7 UNK         0.5000 
     36 O          -0.6128  -20.0382  -42.3400 O.2       7 UNK        -0.5000 
     37 CA          1.2926  -19.8705  -40.8861 C.3       7 UNK         0.1400 
     38 CB          2.3472  -20.9302  -41.2390 C.3       7 UNK        -0.1800 
     39 N           1.9676  -18.6964  -40.3330 N.am      7 UNK        -0.5000 
     40 C           1.6382  -18.0908  -39.1848 C.2       6 UNK         0.5000 
     41 O           0.7705  -18.5047  -38.4148 O.2       6 UNK        -0.5000 
     42 CA          2.3932  -16.7899  -38.8356 C.3       6 UNK         0.1400 
     43 CB          3.6087  -17.0981  -37.9481 C.3       6 UNK        -0.1800 
     44 N           2.8387  -16.0192  -40.0003 N.am      6 UNK        -0.5000 
     45 C           2.0305  -15.5125  -40.9413 C.2       5 UNK         0.5000 
     46 O           0.8069  -15.6332  -40.9278 O.2       5 UNK        -0.5000 
     47 CA          2.6931  -14.7886  -42.1273 C.3       5 UNK         0.1400 
     48 CB          2.8934  -13.3035  -41.7936 C.3       5 UNK        -0.1800 
     49 N           3.9577  -15.3483  -42.6195 N.am      5 UNK        -0.5000 
     50 C           4.2791  -16.6373  -42.8183 C.2       4 UNK         0.5000 
     51 O           3.5601  -17.5802  -42.4848 O.2       4 UNK        -0.5000 
     52 CA          5.6181  -16.9436  -43.5207 C.3       4 UNK         0.1400 
     53 CB          5.4036  -17.8812  -44.7215 C.3       4 UNK        -0.1800 
     54 N           6.3179  -15.7469  -43.9882 N.am      4 UNK        -0.5000 
     55 C           7.0825  -14.9416  -43.2385 C.2       3 UNK         0.5000 
     56 O           7.3021  -15.1347  -42.0427 O.2       3 UNK        -0.5000 
     57 CA          7.6927  -13.7064  -43.9338 C.3       3 UNK         0.1400 
     58 CB          9.2050  -13.8933  -44.1323 C.3       3 UNK        -0.1800 
     59 N           7.0812  -13.4092  -45.2331 N.am      3 UNK        -0.5000 
     60 C           5.8580  -12.8914  -45.4110 C.2       2 UNK         0.5000 
     61 O           5.1307  -12.5502  -44.4770 O.2       2 UNK        -0.5000 
     62 CA          5.3766  -12.7202  -46.8712 C.3       2 UNK         0.1400 
     63 CB          6.1308  -13.6184  -47.8789 C.3       2 UNK        -0.1800 
     64 N           3.9299  -12.8993  -47.0436 N.am      2 UNK        -0.5000 
     65 C           3.1961  -13.9717  -46.7101 C.2       1 UNK         0.5000 
     66 O           3.6370  -14.9589  -46.1169 O.2       1 UNK        -0.5000 
     67 C          -2.4751  -21.4436  -46.1184 C.2       11 UNK         0.5000 
     68 O          -2.6389  -22.1667  -47.0991 O.2       11 UNK        -0.5000 
     69 N          -1.5532  -21.6990  -45.1759 N.am      12 UNK        -0.5000 
     70 CA         -0.6267  -22.8362  -45.2189 C.3       12 UNK         0.1400 
     71 CB          0.0734  -22.9631  -43.8591 C.3       12 UNK        -0.1800 
     72 C           0.4197  -22.7233  -46.3475 C.2       12 UNK         0.5000 
     73 O           0.9027  -23.7447  -46.8356 O.2       12 UNK        -0.5000 
     74 N           0.7400  -21.4832  -46.7415 N.am      13 UNK        -0.5000 
     75 CA          1.6704  -21.1493  -47.8220 C.3       13 UNK         0.1400 
     76 CB          2.3347  -19.8035  -47.4863 C.3       13 UNK        -0.1800 
     77 C           0.9934  -21.0873  -49.2079 C.2       13 UNK         0.5000 
     78 O           1.6873  -20.8882  -50.2060 O.2       13 UNK        -0.5000 
     79 N          -0.3381  -21.2257  -49.2536 N.am      14 UNK        -0.5000 
     80 CA         -1.1391  -21.1997  -50.4754 C.3       14 UNK         0.1400 
     81 CB         -2.6035  -20.9774  -50.0822 C.3       14 UNK        -0.1800 
     82 C          -1.0217  -22.5085  -51.2731 C.2       14 UNK         0.5000 
     83 O          -0.5932  -23.5343  -50.7371 O.2       14 UNK        -0.5000 
     84 N          -1.4763  -22.4623  -52.5297 N.am      15 UNK        -0.5000 
     85 CA         -1.6779  -23.6274  -53.3859 C.3       15 UNK         0.1400 
     86 CB         -1.8643  -23.1494  -54.8361 C.3       15 UNK        -0.1800 
     87 C          -2.8844  -24.4437  -52.8831 C.2       15 UNK         0.5000 
     88 O          -4.0208  -24.1216  -53.2282 O.2       15 UNK        -0.5000 
     89 N          -2.6087  -25.4392  -52.0258 N.am      16 UNK        -0.5000 
     90 CA         -3.5546  -26.3633  -51.3834 C.3       16 UNK         0.1400 
     91 CB         -3.9895  -27.4573  -52.3763 C.3       16 UNK        -0.1800 
     92 C          -4.7456  -25.6451  -50.7130 C.2       16 UNK         0.5000 
     93 O          -5.9050  -25.9702  -50.9780 O.2       16 UNK        -0.5000 
     94 N          -4.4170  -24.6392  -49.8912 N.am      17 UNK        -0.5000 
     95 CA         -5.3007  -23.7045  -49.1855 C.3       17 UNK         0.1400 
     96 CB         -6.2841  -24.4291  -48.2462 C.3       17 UNK        -0.1800 
     97 C          -6.0290  -22.7082  -50.1085 C.2       17 UNK         0.5000 
     98 O          -5.9667  -21.5069  -49.8496 O.2       17 UNK        -0.5000 
     99 N          -6.7033  -23.2022  -51.1535 N.am      18 UNK        -0.5000 
    100 CA        -7.5137  -22.4023  -52.0703 C.3       18 UNK         0.1400 
    101 CB        -8.8046  -21.9223  -51.3694 C.3       18 UNK        -0.1800 
    102 C         -7.7963  -23.1573  -53.3824 C.2       18 UNK         0.5000 
    103 O         -8.9428  -23.1865  -53.8354 O.2       18 UNK        -0.5000 
    104 N         -6.7615  -23.7630  -53.9750 N.am      19 UNK        -0.5000 
    105 CA        -6.8173  -24.3997  -55.2906 C.3       19 UNK         0.1400 
    106 CB        -6.3085  -25.8435  -55.1662 C.3       19 UNK        -0.1800 
    107 C         -5.9430  -23.6201  -56.2852 C.2       19 UNK         0.5000 
    108 O         -5.0920  -22.8265  -55.8760 O.2       19 UNK        -0.5000 
    109 N         -6.1532  -23.8857  -57.5828 N.am      20 UNK        -0.5000 
    110 CA        -5.3998  -23.3484  -58.7215 C.3       20 UNK         0.1400 
    111 CB        -4.0118  -24.0257  -58.7947 C.3       20 UNK        -0.1800 
    112 C         -5.3492  -21.8049  -58.7037 C.2       20 UNK         0.5000 
    113 O         -6.4051  -21.1692  -58.7351 O.2       20 UNK        -0.5000 
    114 N         -4.1419  -21.2322  -58.6050 N.am      21 UNK        -0.5000 
    115 CA        -3.8830  -19.7942  -58.5013 C.3       21 UNK         0.1400 
    116 CB        -2.3650  -19.5614  -58.5513 C.3       21 UNK        -0.1800 
    117 C         -4.4853  -19.1299  -57.2458 C.2       21 UNK         0.5000 
    118 O         -4.7351  -17.9239  -57.2713 O.2       21 UNK        -0.5000 
    119 N         -4.7201  -19.9172  -56.1885 N.am      22 UNK        -0.5000 
    120 CA        -5.3964  -19.4904  -54.9554 C.3       22 UNK         0.1400 
    121 C         -6.9238  -19.7925  -54.9567 C.2       22 UNK         0.5000 
    122 N         -7.5093  -20.3256  -56.0236 N.am      22 UNK        -0.7600 
    123 O         -7.6036  -19.5124  -53.9743 O.2       22 UNK        -0.5000 
    124 C124       -4.6915  -20.0460  -53.6871 C.3       23 UNK        -0.0398 
    125 S125       -2.9579  -19.4851  -53.5458 S.3       23 UNK        -0.2404 
    126 C126       -3.1665  -17.7914  -52.9030 C.3       23 UNK        -0.0205 
    127 H127       -1.0550  -14.3214  -44.3308 H         1 UNK         0.0600 
    128 H128       -1.1476  -12.5977  -43.9837 H         1 UNK         0.0600 
    129 H129       -0.0247  -13.6150  -43.0802 H         1 UNK         0.0600 
    130 H130        0.2178  -14.9077  -46.0569 H         1 UNK         0.3000 
    131 H131        1.5229  -12.9987  -47.6536 H         1 UNK         0.0600 
    132 H132        1.7879  -16.0385  -47.8682 H         1 UNK         0.0800 
    133 H133        2.1507  -14.8771  -49.1083 H         1 UNK         0.0800 
    134 H134       -0.6969  -17.0971  -47.5694 H         1 UNK         0.0800 
    135 H135        0.1759  -17.5074  -49.0311 H         1 UNK         0.0800 
    136 H136       -1.0470  -17.2382  -51.2899 H         1 UNK         0.1150 
    137 H137       -5.2254  -18.1732  -51.1400 H         1 UNK         0.1150 
    138 H138       -3.0793  -17.3149  -47.5249 H         1 UNK         0.1150 
    139 H139       -6.2122  -17.1660  -48.5569 H         1 UNK         0.0800 
    140 H140       -6.1623  -18.8590  -48.9811 H         1 UNK         0.0800 
    141 H141       -4.4503  -20.4089  -47.8138 H         1 UNK         0.0800 
    142 H142       -5.3189  -20.8939  -46.3862 H         1 UNK         0.0800 
    143 H143       -2.6638  -19.3823  -46.4153 H         1 UNK         0.0600 
    144 H144       -3.0061  -18.8678  -44.3300 H         1 UNK         0.3000 
    145 H145       -5.1883  -19.4248  -41.9920 H         1 UNK         0.0600 
    146 H146       -3.7256  -20.2983  -40.1402 H         1 UNK         0.0600 
    147 H147       -4.4481  -21.5863  -41.0892 H         1 UNK         0.0600 
    148 H148       -2.7581  -21.1703  -41.3284 H         1 UNK         0.0600 
    149 H149       -2.2854  -18.7901  -42.0179 H         1 UNK         0.3000 
    150 H150       -2.8112  -15.5253  -43.1913 H         1 UNK         0.0600 
    151 H151       -3.3367  -15.1082  -40.7639 H         1 UNK         0.0600 
    152 H152       -1.6929  -14.6620  -41.1835 H         1 UNK         0.0600 
    153 H153       -2.0017  -16.1613  -40.3065 H         1 UNK         0.0600 
    154 H154       -0.4903  -16.8028  -42.1066 H         1 UNK         0.3000 
    155 H155        0.1485  -19.0129  -44.7756 H         1 UNK         0.0600 
    156 H156        1.6391  -16.3630  -44.4932 H         1 UNK         0.0600 
    157 H157        0.9864  -17.0403  -45.9724 H         1 UNK         0.0600 
    158 H158        2.3110  -17.8453  -45.1542 H         1 UNK         0.0600 
    159 H159        1.9053  -18.1774  -42.7299 H         1 UNK         0.3000 
    160 H160        0.6059  -20.3034  -40.1560 H         1 UNK         0.0600 
    161 H161        3.0304  -20.5797  -42.0141 H         1 UNK         0.0600 
    162 H162        1.8771  -21.8455  -41.5987 H         1 UNK         0.0600 
    163 H163        2.9424  -21.1964  -40.3655 H         1 UNK         0.0600 
    164 H164        2.6760  -18.2662  -40.9202 H         1 UNK         0.3000 
    165 H165        1.7064  -16.1587  -38.2680 H         1 UNK         0.0600 
    166 H166        4.0970  -16.1823  -37.6146 H         1 UNK         0.0600 
    167 H167        3.3113  -17.6498  -37.0553 H         1 UNK         0.0600 
    168 H168        4.3483  -17.7014  -38.4760 H         1 UNK         0.0600 
    169 H169        3.8344  -15.8928  -40.1080 H         1 UNK         0.3000 
    170 H170        1.9903  -14.8413  -42.9558 H         1 UNK         0.0600 
    171 H171        1.9779  -12.8603  -41.3990 H         1 UNK         0.0600 
    172 H172        3.6774  -13.1603  -41.0492 H         1 UNK         0.0600 
    173 H173        3.1637  -12.7341  -42.6826 H         1 UNK         0.0600 
    174 H174        4.6185  -14.6660  -42.9633 H         1 UNK         0.3000 
    175 H175        6.2481  -17.4616  -42.7950 H         1 UNK         0.0600 
    176 H176        4.7737  -17.4203  -45.4833 H         1 UNK         0.0600 
    177 H177        6.3522  -18.1472  -45.1879 H         1 UNK         0.0600 
    178 H178        4.9227  -18.8120  -44.4177 H         1 UNK         0.0600 
    179 H179        6.1529  -15.4867  -44.9502 H         1 UNK         0.3000 
    180 H180        7.5372  -12.8502  -43.2741 H         1 UNK         0.0600 
    181 H181        9.4237  -14.7352  -44.7904 H         1 UNK         0.0600 
    182 H182        9.7046  -14.0819  -43.1811 H         1 UNK         0.0600 
    183 H183        9.6597  -13.0014  -44.5640 H         1 UNK         0.0600 
    184 H184        7.6228  -13.6556  -46.0491 H         1 UNK         0.3000 
    185 H185        5.5853  -11.6822  -47.1333 H         1 UNK         0.0600 
    186 H186        7.1925  -13.3729  -47.9213 H         1 UNK         0.0600 
    187 H187        6.0395  -14.6760  -47.6276 H         1 UNK         0.0600 
    188 H188        5.7399  -13.4859  -48.8879 H         1 UNK         0.0600 
    189 H189        3.4550  -12.1189  -47.4750 H         1 UNK         0.3000 
    190 H190       -1.4897  -21.0904  -44.3703 H         1 UNK         0.3000 
    191 H191       -1.2098  -23.7433  -45.3917 H         1 UNK         0.0600 
    192 H192       -0.6468  -23.0278  -43.0431 H         1 UNK         0.0600 
    193 H193        0.7237  -22.1097  -43.6690 H         1 UNK         0.0600 
    194 H194        0.6924  -23.8604  -43.8210 H         1 UNK         0.0600 
    195 H195        0.2894  -20.7094  -46.2800 H         1 UNK         0.3000 
    196 H196        2.4519  -21.9103  -47.8747 H         1 UNK         0.0600 
    197 H197        3.0806  -19.5353  -48.2356 H         1 UNK         0.0600 
    198 H198        2.8466  -19.8455  -46.5246 H         1 UNK         0.0600 
    199 H199        1.6053  -18.9945  -47.4477 H         1 UNK         0.0600 
    200 H200       -0.8294  -21.4745  -48.4069 H         1 UNK         0.3000 
    201 H201       -0.8068  -20.3663  -51.0984 H         1 UNK         0.0600 
    202 H202       -2.7035  -20.1383  -49.3981 H         1 UNK         0.0600 
    203 H203       -3.0210  -21.8561  -49.5969 H         1 UNK         0.0600 
    204 H204       -3.2282  -20.7697  -50.9497 H         1 UNK         0.0600 
    205 H205       -1.8487  -21.5896  -52.8801 H         1 UNK         0.3000 
    206 H206       -0.7875  -24.2587  -53.3512 H         1 UNK         0.0600 
    207 H207       -0.9558  -22.6826  -55.2164 H         1 UNK         0.0600 
    208 H208       -2.1062  -23.9828  -55.4967 H         1 UNK         0.0600 
    209 H209       -2.6706  -22.4204  -54.9199 H         1 UNK         0.0600 
    210 H210       -1.6437  -25.5480  -51.7427 H         1 UNK         0.3000 
    211 H211       -3.0061  -26.8548  -50.5785 H         1 UNK         0.0600 
    212 H212       -4.5681  -27.0445  -53.1993 H         1 UNK         0.0600 
    213 H213       -4.6100  -28.2075  -51.8848 H         1 UNK         0.0600 
    214 H214       -3.1276  -27.9742  -52.7980 H         1 UNK         0.0600 
    215 H215       -3.4311  -24.4437  -49.7863 H         1 UNK         0.3000 
    216 H216       -4.6463  -23.1129  -48.5459 H         1 UNK         0.0600 
    217 H217       -6.8396  -23.7101  -47.6428 H         1 UNK         0.0600 
    218 H218       -5.7571  -25.0908  -47.5590 H         1 UNK         0.0600 
    219 H219       -7.0157  -25.0243  -48.7928 H         1 UNK         0.0600 
    220 H220       -6.6685  -24.2048  -51.3207 H         1 UNK         0.3000 
    221 H221       -6.9335  -21.5221  -52.3473 H         1 UNK         0.0600 
    222 H222       -9.4203  -22.7631  -51.0485 H         1 UNK         0.0600 
    223 H223       -8.5865  -21.3128  -50.4929 H         1 UNK         0.0600 
    224 H224       -9.4065  -21.3055  -52.0380 H         1 UNK         0.0600 
    225 H225       -5.8235  -23.6882  -53.5845 H         1 UNK         0.3000 
    226 H226       -7.8392  -24.4208  -55.6737 H         1 UNK         0.0600 
    227 H227       -6.8030  -26.3730  -54.3515 H         1 UNK         0.0600 
    228 H228       -6.4956  -26.4047  -56.0821 H         1 UNK         0.0600 
    229 H229       -5.2339  -25.8684  -54.9860 H         1 UNK         0.0600 
    230 H230       -6.8966  -24.5256  -57.8241 H         1 UNK         0.3000 
    231 H231       -5.9514  -23.6239  -59.6214 H         1 UNK         0.0600 
    232 H232       -3.4042  -23.8181  -57.9128 H         1 UNK         0.0600 
    233 H233       -3.4554  -23.6968  -59.6734 H         1 UNK         0.0600 
    234 H234       -4.1139  -25.1082  -58.8716 H         1 UNK         0.0600 
    235 H235       -3.3346  -21.8357  -58.5509 H         1 UNK         0.3000 
    236 H236       -4.3336  -19.3132  -59.3718 H         1 UNK         0.0600 
    237 H237       -2.1309  -18.4968  -58.5094 H         1 UNK         0.0600 
    238 H238       -1.8582  -20.0417  -57.7131 H         1 UNK         0.0600 
    239 H239       -1.9348  -19.9510  -59.4741 H         1 UNK         0.0600 
    240 H240       -4.5404  -20.9139  -56.2580 H         1 UNK         0.3000 
    241 H241       -5.3457  -18.4031  -54.8925 H         1 UNK         0.0600 
    242 H242       -8.5014  -20.4979  -56.0014 H         1 UNK         0.3800 
    243 H243       -6.9835  -20.5405  -56.8627 H         1 UNK         0.3800 
    244 H244       -5.2233  -19.7571  -52.7807 H         1 UNK         0.0800 
    245 H245       -4.6962  -21.1373  -53.7018 H         1 UNK         0.0800 
    246 H246       -2.3649  -17.1740  -53.3110 H         1 UNK         0.0800 
    247 H247       -4.0915  -17.3512  -53.2754 H         1 UNK         0.0800 
@<TRIPOS>BOND
     1    1    2 1    
     2    1  127 1    
     3    1  128 1    
     4    1  129 1    
     5    2    3 2    
     6    2    4 am   BACKBONE|DICT|INTERRES
     7    4    5 1    
     8    4  130 1    
     9    5    6 1    
    10    5   65 1    
    11    5  131 1    
    12    6    7 1    
    13    6  132 1    
    14    6  133 1    
    15    7    8 1    
    16    8    9 1    
    17    8  134 1    
    18    8  135 1    
    19    9   10 ar   
    20    9   14 ar   
    21   10   11 ar   
    22   10  136 1    
    23   11   12 ar   
    24   11  126 1    
    25   12   13 ar   
    26   12  137 1    
    27   13   14 ar   
    28   13   15 1    
    29   14  138 1    
    30   15   16 1    
    31   15  139 1    
    32   15  140 1    
    33   16   17 1    
    34   17   18 1    
    35   17  141 1    
    36   17  142 1    
    37   18   19 1    
    38   18   67 1    
    39   18  143 1    
    40   19   20 am   BACKBONE|DICT|INTERRES
    41   19  144 1    
    42   20   21 2    
    43   20   22 1    
    44   22   23 1    
    45   22   24 1    
    46   22  145 1    
    47   23  146 1    
    48   23  147 1    
    49   23  148 1    
    50   24   25 am   BACKBONE|DICT|INTERRES
    51   24  149 1    
    52   25   26 2    
    53   25   27 1    
    54   27   28 1    
    55   27   29 1    
    56   27  150 1    
    57   28  151 1    
    58   28  152 1    
    59   28  153 1    
    60   29   30 am   BACKBONE|DICT|INTERRES
    61   29  154 1    
    62   30   31 2    
    63   30   32 1    
    64   32   33 1    
    65   32   34 1    
    66   32  155 1    
    67   33  156 1    
    68   33  157 1    
    69   33  158 1    
    70   34   35 am   BACKBONE|DICT|INTERRES
    71   34  159 1    
    72   35   36 2    
    73   35   37 1    
    74   37   38 1    
    75   37   39 1    
    76   37  160 1    
    77   38  161 1    
    78   38  162 1    
    79   38  163 1    
    80   39   40 am   BACKBONE|DICT|INTERRES
    81   39  164 1    
    82   40   41 2    
    83   40   42 1    
    84   42   43 1    
    85   42   44 1    
    86   42  165 1    
    87   43  166 1    
    88   43  167 1    
    89   43  168 1    
    90   44   45 am   BACKBONE|DICT|INTERRES
    91   44  169 1    
    92   45   46 2    
    93   45   47 1    
    94   47   48 1    
    95   47   49 1    
    96   47  170 1    
    97   48  171 1    
    98   48  172 1    
    99   48  173 1    
   100   49   50 am   BACKBONE|DICT|INTERRES
   101   49  174 1    
   102   50   51 2    
   103   50   52 1    
   104   52   53 1    
   105   52   54 1    
   106   52  175 1    
   107   53  176 1    
   108   53  177 1    
   109   53  178 1    
   110   54   55 am   BACKBONE|DICT|INTERRES
   111   54  179 1    
   112   55   56 2    
   113   55   57 1    
   114   57   58 1    
   115   57   59 1    
   116   57  180 1    
   117   58  181 1    
   118   58  182 1    
   119   58  183 1    
   120   59   60 am   BACKBONE|DICT|INTERRES
   121   59  184 1    
   122   60   61 2    
   123   60   62 1    
   124   62   63 1    
   125   62   64 1    
   126   62  185 1    
   127   63  186 1    
   128   63  187 1    
   129   63  188 1    
   130   64   65 am   BACKBONE|DICT|INTERRES
   131   64  189 1    
   132   65   66 2    
   133   67   68 2    
   134   67   69 am   BACKBONE|DICT|INTERRES
   135   69   70 1    
   136   69  190 1    
   137   70   71 1    
   138   70   72 1    
   139   70  191 1    
   140   71  192 1    
   141   71  193 1    
   142   71  194 1    
   143   72   73 2    
   144   72   74 am   BACKBONE|DICT|INTERRES
   145   74   75 1    
   146   74  195 1    
   147   75   76 1    
   148   75   77 1    
   149   75  196 1    
   150   76  197 1    
   151   76  198 1    
   152   76  199 1    
   153   77   78 2    
   154   77   79 am   BACKBONE|DICT|INTERRES
   155   79   80 1    
   156   79  200 1    
   157   80   81 1    
   158   80   82 1    
   159   80  201 1    
   160   81  202 1    
   161   81  203 1    
   162   81  204 1    
   163   82   83 2    
   164   82   84 am   BACKBONE|DICT|INTERRES
   165   84   85 1    
   166   84  205 1    
   167   85   86 1    
   168   85   87 1    
   169   85  206 1    
   170   86  207 1    
   171   86  208 1    
   172   86  209 1    
   173   87   88 2    
   174   87   89 am   BACKBONE|DICT|INTERRES
   175   89   90 1    
   176   89  210 1    
   177   90   91 1    
   178   90   92 1    
   179   90  211 1    
   180   91  212 1    
   181   91  213 1    
   182   91  214 1    
   183   92   93 2    
   184   92   94 am   BACKBONE|DICT|INTERRES
   185   94   95 1    
   186   94  215 1    
   187   95   96 1    
   188   95   97 1    
   189   95  216 1    
   190   96  217 1    
   191   96  218 1    
   192   96  219 1    
   193   97   98 2    
   194   97   99 am   BACKBONE|DICT|INTERRES
   195   99  100 1    
   196   99  220 1    
   197  100  101 1    
   198  100  102 1    
   199  100  221 1    
   200  101  222 1    
   201  101  223 1    
   202  101  224 1    
   203  102  103 2    
   204  102  104 am   BACKBONE|DICT|INTERRES
   205  104  105 1    
   206  104  225 1    
   207  105  106 1    
   208  105  107 1    
   209  105  226 1    
   210  106  227 1    
   211  106  228 1    
   212  106  229 1    
   213  107  108 2    
   214  107  109 am   BACKBONE|DICT|INTERRES
   215  109  110 1    
   216  109  230 1    
   217  110  111 1    
   218  110  112 1    
   219  110  231 1    
   220  111  232 1    
   221  111  233 1    
   222  111  234 1    
   223  112  113 2    
   224  112  114 am   BACKBONE|DICT|INTERRES
   225  114  115 1    
   226  114  235 1    
   227  115  116 1    
   228  115  117 1    
   229  115  236 1    
   230  116  237 1    
   231  116  238 1    
   232  116  239 1    
   233  117  118 2    
   234  117  119 am   BACKBONE|DICT|INTERRES
   235  119  120 1    
   236  119  240 1    
   237  120  121 1    
   238  120  124 1    
   239  120  241 1    
   240  121  122 am   BACKBONE|DICT|INTERRES
   241  121  123 2    
   242  122  242 1    
   243  122  243 1    
   244  124  125 1    
   245  124  244 1    
   246  124  245 1    
   247  125  126 1    
   248  126  246 1    
   249  126  247 1    
@<TRIPOS>SUBSTRUCTURE
     1 UNK         1 GROUP             0       ****    0 ROOT    
