@<TRIPOS>MOLECULE
3R540
247   249    1
SMALL
USER_CHARGES


@<TRIPOS>ATOM
      1 CA          4.6187  -19.7061  -44.7382 C.3       0 UNK        -0.1800 
      2 C           4.8888  -18.3312  -45.3329 C.2       0 UNK         0.5000 
      3 O           6.0111  -18.0547  -45.7568 O.2       0 UNK        -0.5000 
      4 N           3.8600  -17.4774  -45.3680 N.am      1 UNK        -0.5000 
      5 CA          3.8846  -16.0992  -45.8614 C.3       1 UNK         0.1400 
      6 C6          4.1793  -16.0132  -47.3823 C.3       23 UNK        -0.0398 
      7 S7          3.4276  -14.5396  -48.1545 S.3       23 UNK        -0.2404 
      8 C8          3.5645  -14.9455  -49.9244 C.3       23 UNK        -0.0205 
      9 C9          2.6442  -16.0911  -50.3164 C.ar      23 UNK        -0.0193 
     10 C10         1.2886  -15.8529  -50.5620 C.ar      23 UNK        -0.1150 
     11 C11         0.4342  -16.9080  -50.8942 C.ar      23 UNK        -0.0193 
     12 C12         0.9497  -18.2010  -50.9990 C.ar      23 UNK        -0.1150 
     13 C13         2.2976  -18.4568  -50.7351 C.ar      23 UNK        -0.0193 
     14 C14         3.1435  -17.3935  -50.4118 C.ar      23 UNK        -0.1150 
     15 C15         2.8376  -19.8789  -50.7727 C.3       23 UNK        -0.0205 
     16 S16         2.4638  -20.7782  -49.2299 S.3       23 UNK        -0.2404 
     17 C17         0.7435  -21.2784  -49.5543 C.3       23 UNK        -0.0398 
     18 CA          0.1957  -22.2932  -48.5305 C.3       11 UNK         0.1400 
     19 N           0.0019  -21.7004  -47.2044 N.am      11 UNK        -0.5000 
     20 C          -0.2664  -22.4050  -46.0940 C.2       10 UNK         0.5000 
     21 O          -0.3252  -23.6332  -46.0665 O.2       10 UNK        -0.5000 
     22 CA         -0.5947  -21.6049  -44.8176 C.3       10 UNK         0.1400 
     23 CB          0.6937  -21.2345  -44.0704 C.3       10 UNK        -0.1800 
     24 N          -1.3616  -20.3910  -45.1022 N.am      10 UNK        -0.5000 
     25 C          -2.5629  -20.3747  -45.6980 C.2       9 UNK         0.5000 
     26 O          -3.2043  -21.3983  -45.9323 O.2       9 UNK        -0.5000 
     27 CA         -3.1262  -19.0168  -46.1679 C.3       9 UNK         0.1400 
     28 CB         -4.3780  -18.6416  -45.3630 C.3       9 UNK        -0.1800 
     29 N          -2.1682  -17.9104  -46.1160 N.am      9 UNK        -0.5000 
     30 C          -1.0402  -17.8159  -46.8353 C.2       8 UNK         0.5000 
     31 O          -0.6696  -18.6704  -47.6407 O.2       8 UNK        -0.5000 
     32 CA         -0.1411  -16.6048  -46.5300 C.3       8 UNK         0.1400 
     33 CB         -0.5952  -15.3602  -47.3057 C.3       8 UNK        -0.1800 
     34 N          -0.1234  -16.3001  -45.0973 N.am      8 UNK        -0.5000 
     35 C           0.5374  -17.0193  -44.1804 C.2       7 UNK         0.5000 
     36 O           1.2502  -17.9818  -44.4579 O.2       7 UNK        -0.5000 
     37 CA          0.3709  -16.6026  -42.7098 C.3       7 UNK         0.1400 
     38 CB          1.3591  -15.4845  -42.3557 C.3       7 UNK        -0.1800 
     39 N          -0.9911  -16.1653  -42.4099 N.am      7 UNK        -0.5000 
     40 C          -2.0355  -17.0011  -42.3109 C.2       6 UNK         0.5000 
     41 O          -1.9424  -18.2237  -42.4193 O.2       6 UNK        -0.5000 
     42 CA         -3.4226  -16.3709  -42.0786 C.3       6 UNK         0.1400 
     43 CB         -3.7394  -16.3148  -40.5772 C.3       6 UNK        -0.1800 
     44 N          -3.5756  -15.0308  -42.6478 N.am      6 UNK        -0.5000 
     45 C          -3.4176  -14.7059  -43.9377 C.2       5 UNK         0.5000 
     46 O          -3.1016  -15.5142  -44.8109 O.2       5 UNK        -0.5000 
     47 CA         -3.5971  -13.2249  -44.3221 C.3       5 UNK         0.1400 
     48 CB         -4.2588  -12.3637  -43.2229 C.3       5 UNK        -0.1800 
     49 N          -2.3349  -12.6131  -44.7502 N.am      5 UNK        -0.5000 
     50 C          -1.1930  -12.5355  -44.0516 C.2       4 UNK         0.5000 
     51 O          -1.0177  -13.0615  -42.9479 O.2       4 UNK        -0.5000 
     52 CA         -0.0634  -11.7173  -44.6974 C.3       4 UNK         0.1400 
     53 CB         -0.4951  -10.2570  -44.9466 C.3       4 UNK        -0.1800 
     54 N           1.1096  -11.7419  -43.8279 N.am      4 UNK        -0.5000 
     55 C           2.3638  -11.4774  -44.2081 C.2       3 UNK         0.5000 
     56 O           2.6649  -11.1943  -45.3693 O.2       3 UNK        -0.5000 
     57 CA          3.4709  -11.5325  -43.1321 C.3       3 UNK         0.1400 
     58 CB          2.9865  -11.9787  -41.7386 C.3       3 UNK        -0.1800 
     59 N           4.5231  -12.4383  -43.5796 N.am      3 UNK        -0.5000 
     60 C           5.5890  -12.0997  -44.3126 C.2       2 UNK         0.5000 
     61 O           5.9267  -10.9362  -44.5358 O.2       2 UNK        -0.5000 
     62 CA          6.3953  -13.2537  -44.9421 C.3       2 UNK         0.1400 
     63 CB          7.4181  -13.8412  -43.9508 C.3       2 UNK        -0.1800 
     64 N           5.5541  -14.2955  -45.5538 N.am      2 UNK        -0.5000 
     65 C           4.7555  -15.1943  -44.9591 C.2       1 UNK         0.5000 
     66 O           4.6387  -15.2892  -43.7357 O.2       1 UNK        -0.5000 
     67 C          -1.1089  -22.9056  -49.0744 C.2       11 UNK         0.5000 
     68 O          -1.0572  -23.9571  -49.7101 O.2       11 UNK        -0.5000 
     69 N          -2.2487  -22.2480  -48.8216 N.am      12 UNK        -0.5000 
     70 CA         -3.5765  -22.7230  -49.2129 C.3       12 UNK         0.1400 
     71 CB         -4.6024  -21.5951  -49.0335 C.3       12 UNK        -0.1800 
     72 C          -3.9855  -23.9846  -48.4339 C.2       12 UNK         0.5000 
     73 O          -4.5083  -24.9251  -49.0305 O.2       12 UNK        -0.5000 
     74 N          -3.6878  -24.0005  -47.1268 N.am      13 UNK        -0.5000 
     75 CA         -3.8810  -25.1446  -46.2347 C.3       13 UNK         0.1400 
     76 CB         -3.6361  -24.7023  -44.7842 C.3       13 UNK        -0.1800 
     77 C          -2.9864  -26.3457  -46.5992 C.2       13 UNK         0.5000 
     78 O          -3.4510  -27.4852  -46.5539 O.2       13 UNK        -0.5000 
     79 N          -1.7314  -26.0692  -46.9808 N.am      14 UNK        -0.5000 
     80 CA         -0.7559  -27.0620  -47.4406 C.3       14 UNK         0.1400 
     81 CB          0.6513  -26.4505  -47.3480 C.3       14 UNK        -0.1800 
     82 C          -1.0140  -27.5753  -48.8727 C.2       14 UNK         0.5000 
     83 O          -0.3925  -28.5600  -49.2737 O.2       14 UNK        -0.5000 
     84 N          -1.8917  -26.8897  -49.6201 N.am      15 UNK        -0.5000 
     85 CA         -2.2152  -27.0907  -51.0372 C.3       15 UNK         0.1400 
     86 CB         -2.8357  -28.4818  -51.2833 C.3       15 UNK        -0.1800 
     87 C          -1.0345  -26.7744  -51.9836 C.2       15 UNK         0.5000 
     88 O          -0.9744  -27.3007  -53.0963 O.2       15 UNK        -0.5000 
     89 N          -0.1283  -25.8961  -51.5336 N.am      16 UNK        -0.5000 
     90 CA          0.9369  -25.2938  -52.3360 C.3       16 UNK         0.1400 
     91 CB          2.0571  -24.8136  -51.4001 C.3       16 UNK        -0.1800 
     92 C           0.3985  -24.1257  -53.1848 C.2       16 UNK         0.5000 
     93 O           0.9100  -23.8740  -54.2761 O.2       16 UNK        -0.5000 
     94 N          -0.6431  -23.4624  -52.6722 N.am      17 UNK        -0.5000 
     95 CA         -1.4954  -22.5097  -53.3740 C.3       17 UNK         0.1400 
     96 CB         -1.4209  -21.1570  -52.6481 C.3       17 UNK        -0.1800 
     97 C          -2.9304  -23.0655  -53.3777 C.2       17 UNK         0.5000 
     98 O          -3.1997  -24.0760  -52.7205 O.2       17 UNK        -0.5000 
     99 N          -3.8351  -22.4086  -54.1139 N.am      18 UNK        -0.5000 
    100 CA        -5.2549  -22.7669  -54.1467 C.3       18 UNK         0.1400 
    101 CB        -5.9448  -22.0344  -55.3060 C.3       18 UNK        -0.1800 
    102 C         -5.9475  -22.4603  -52.8053 C.2       18 UNK         0.5000 
    103 O         -5.5400  -21.5345  -52.1014 O.2       18 UNK        -0.5000 
    104 N         -6.9864  -23.2452  -52.4878 N.am      19 UNK        -0.5000 
    105 CA        -7.7018  -23.2381  -51.2070 C.3       19 UNK         0.1400 
    106 CB        -8.7382  -24.3720  -51.2098 C.3       19 UNK        -0.1800 
    107 C         -8.3760  -21.8999  -50.8457 C.2       19 UNK         0.5000 
    108 O         -8.5364  -21.6023  -49.6612 O.2       19 UNK        -0.5000 
    109 N         -8.7414  -21.1069  -51.8608 N.am      20 UNK        -0.5000 
    110 CA        -9.3252  -19.7717  -51.7341 C.3       20 UNK         0.1400 
    111 CB       -10.0734  -19.4399  -53.0376 C.3       20 UNK        -0.1800 
    112 C         -8.2554  -18.7167  -51.3793 C.2       20 UNK         0.5000 
    113 O         -7.9794  -17.8233  -52.1844 O.2       20 UNK        -0.5000 
    114 N         -7.6384  -18.8746  -50.1984 N.am      21 UNK        -0.5000 
    115 CA        -6.5914  -18.0620  -49.5534 C.3       21 UNK         0.1400 
    116 CB        -7.1053  -16.6419  -49.2548 C.3       21 UNK        -0.1800 
    117 C         -5.2373  -18.0069  -50.2921 C.2       21 UNK         0.5000 
    118 O         -4.1924  -18.0009  -49.6425 O.2       21 UNK        -0.5000 
    119 N         -5.2811  -17.9774  -51.6225 N.am      22 UNK        -0.5000 
    120 CA        -4.1509  -18.0301  -52.5504 C.3       22 UNK         0.1400 
    121 C         -4.5807  -18.5164  -53.9630 C.2       22 UNK         0.5000 
    122 N         -5.8376  -18.3571  -54.3711 N.am      22 UNK        -0.7600 
    123 O         -3.7682  -19.0673  -54.7005 O.2       22 UNK        -0.5000 
    124 C124       -3.3788  -16.6819  -52.6147 C.3       23 UNK        -0.0398 
    125 S125       -1.5793  -16.9062  -52.8052 S.3       23 UNK        -0.2404 
    126 C126       -1.0558  -16.6730  -51.0800 C.3       23 UNK        -0.0205 
    127 H127        4.6359  -20.4641  -45.5223 H         1 UNK         0.0600 
    128 H128        3.6471  -19.7465  -44.2440 H         1 UNK         0.0600 
    129 H129        5.3831  -19.9555  -44.0014 H         1 UNK         0.0600 
    130 H130        2.9630  -17.7743  -44.9874 H         1 UNK         0.3000 
    131 H131        2.8648  -15.7443  -45.7083 H         1 UNK         0.0600 
    132 H132        5.2475  -16.0585  -47.6006 H         1 UNK         0.0800 
    133 H133        3.7452  -16.8892  -47.8615 H         1 UNK         0.0800 
    134 H134        3.3116  -14.0603  -50.5096 H         1 UNK         0.0800 
    135 H135        4.6016  -15.1836  -50.1656 H         1 UNK         0.0800 
    136 H136        0.8975  -14.8495  -50.4696 H         1 UNK         0.1150 
    137 H137        0.2859  -19.0089  -51.2638 H         1 UNK         0.1150 
    138 H138        4.1880  -17.5836  -50.2080 H         1 UNK         0.1150 
    139 H139        2.4322  -20.4137  -51.6329 H         1 UNK         0.0800 
    140 H140        3.9196  -19.8635  -50.9111 H         1 UNK         0.0800 
    141 H141        0.7141  -21.6965  -50.5622 H         1 UNK         0.0800 
    142 H142        0.1091  -20.3928  -49.5620 H         1 UNK         0.0800 
    143 H143        0.9176  -23.1068  -48.4333 H         1 UNK         0.0600 
    144 H144        0.0050  -20.6875  -47.1607 H         1 UNK         0.3000 
    145 H145       -1.2018  -22.2382  -44.1678 H         1 UNK         0.0600 
    146 H146        0.4794  -20.6602  -43.1687 H         1 UNK         0.0600 
    147 H147        1.3616  -20.6417  -44.6959 H         1 UNK         0.0600 
    148 H148        1.2387  -22.1293  -43.7671 H         1 UNK         0.0600 
    149 H149       -0.9013  -19.5099  -44.9241 H         1 UNK         0.3000 
    150 H150       -3.4207  -19.1392  -47.2119 H         1 UNK         0.0600 
    151 H151       -5.1522  -19.4027  -45.4678 H         1 UNK         0.0600 
    152 H152       -4.8022  -17.6974  -45.7052 H         1 UNK         0.0600 
    153 H153       -4.1529  -18.5481  -44.3014 H         1 UNK         0.0600 
    154 H154       -2.4158  -17.1321  -45.5106 H         1 UNK         0.3000 
    155 H155        0.8720  -16.8535  -46.8538 H         1 UNK         0.0600 
    156 H156       -0.6292  -15.5620  -48.3752 H         1 UNK         0.0600 
    157 H157        0.0946  -14.5297  -47.1545 H         1 UNK         0.0600 
    158 H158       -1.5902  -15.0323  -47.0044 H         1 UNK         0.0600 
    159 H159       -0.7500  -15.5737  -44.7814 H         1 UNK         0.3000 
    160 H160        0.6013  -17.4684  -42.0854 H         1 UNK         0.0600 
    161 H161        1.2474  -14.6233  -43.0142 H         1 UNK         0.0600 
    162 H162        2.3863  -15.8369  -42.4467 H         1 UNK         0.0600 
    163 H163        1.2235  -15.1453  -41.3288 H         1 UNK         0.0600 
    164 H164       -1.1485  -15.1668  -42.3333 H         1 UNK         0.3000 
    165 H165       -4.1622  -17.0148  -42.5560 H         1 UNK         0.0600 
    166 H166       -4.7540  -15.9581  -40.4004 H         1 UNK         0.0600 
    167 H167       -3.6612  -17.3038  -40.1240 H         1 UNK         0.0600 
    168 H168       -3.0527  -15.6545  -40.0459 H         1 UNK         0.0600 
    169 H169       -3.7986  -14.2916  -41.9977 H         1 UNK         0.3000 
    170 H170       -4.2588  -13.2175  -45.1892 H         1 UNK         0.0600 
    171 H171       -3.6380  -12.2804  -42.3302 H         1 UNK         0.0600 
    172 H172       -4.4448  -11.3527  -43.5849 H         1 UNK         0.0600 
    173 H173       -5.2232  -12.7768  -42.9243 H         1 UNK         0.0600 
    174 H174       -2.3621  -12.1820  -45.6631 H         1 UNK         0.3000 
    175 H175        0.1863  -12.1936  -45.6479 H         1 UNK         0.0600 
    176 H176       -0.7778   -9.7607  -44.0174 H         1 UNK         0.0600 
    177 H177        0.3064   -9.6758  -45.4023 H         1 UNK         0.0600 
    178 H178       -1.3482  -10.1999  -45.6230 H         1 UNK         0.0600 
    179 H179        0.9133  -12.0275  -42.8765 H         1 UNK         0.3000 
    180 H180        3.8703  -10.5211  -43.0352 H         1 UNK         0.0600 
    181 H181        3.8087  -11.9680  -41.0229 H         1 UNK         0.0600 
    182 H182        2.5786  -12.9885  -41.7507 H         1 UNK         0.0600 
    183 H183        2.2201  -11.3077  -41.3495 H         1 UNK         0.0600 
    184 H184        4.3511  -13.4323  -43.4596 H         1 UNK         0.3000 
    185 H185        6.9618  -12.8208  -45.7678 H         1 UNK         0.0600 
    186 H186        8.0019  -14.6373  -44.4125 H         1 UNK         0.0600 
    187 H187        8.1184  -13.0736  -43.6196 H         1 UNK         0.0600 
    188 H188        6.9415  -14.2478  -43.0590 H         1 UNK         0.0600 
    189 H189        5.5222  -14.2585  -46.5636 H         1 UNK         0.3000 
    190 H190       -2.2128  -21.4056  -48.2677 H         1 UNK         0.3000 
    191 H191       -3.5468  -22.9816  -50.2728 H         1 UNK         0.0600 
    192 H192       -4.3351  -20.7340  -49.6440 H         1 UNK         0.0600 
    193 H193       -4.6865  -21.2650  -48.0000 H         1 UNK         0.0600 
    194 H194       -5.5944  -21.9152  -49.3475 H         1 UNK         0.0600 
    195 H195       -3.3154  -23.1530  -46.7068 H         1 UNK         0.3000 
    196 H196       -4.9212  -25.4649  -46.3227 H         1 UNK         0.0600 
    197 H197       -4.3050  -23.8891  -44.5018 H         1 UNK         0.0600 
    198 H198       -2.6122  -24.3585  -44.6351 H         1 UNK         0.0600 
    199 H199       -3.8110  -25.5251  -44.0900 H         1 UNK         0.0600 
    200 H200       -1.4001  -25.1121  -46.9122 H         1 UNK         0.3000 
    201 H201       -0.7979  -27.9241  -46.7720 H         1 UNK         0.0600 
    202 H202        0.8812  -26.1418  -46.3281 H         1 UNK         0.0600 
    203 H203        0.7522  -25.5778  -47.9939 H         1 UNK         0.0600 
    204 H204        1.4144  -27.1700  -47.6473 H         1 UNK         0.0600 
    205 H205       -2.3290  -26.0834  -49.1940 H         1 UNK         0.3000 
    206 H206       -2.9835  -26.3513  -51.2658 H         1 UNK         0.0600 
    207 H207       -2.1045  -29.2814  -51.1645 H         1 UNK         0.0600 
    208 H208       -3.6592  -28.6728  -50.5953 H         1 UNK         0.0600 
    209 H209       -3.2360  -28.5557  -52.2949 H         1 UNK         0.0600 
    210 H210       -0.3106  -25.4622  -50.6340 H         1 UNK         0.3000 
    211 H211        1.3486  -26.0462  -53.0118 H         1 UNK         0.0600 
    212 H212        1.7024  -24.0593  -50.6979 H         1 UNK         0.0600 
    213 H213        2.8779  -24.3735  -51.9677 H         1 UNK         0.0600 
    214 H214        2.4678  -25.6413  -50.8216 H         1 UNK         0.0600 
    215 H215       -1.0250  -23.8008  -51.7960 H         1 UNK         0.3000 
    216 H216       -1.1713  -22.3861  -54.4092 H         1 UNK         0.0600 
    217 H217       -1.9867  -20.3951  -53.1822 H         1 UNK         0.0600 
    218 H218       -0.3917  -20.8051  -52.5906 H         1 UNK         0.0600 
    219 H219       -1.8201  -21.2141  -51.6348 H         1 UNK         0.0600 
    220 H220       -3.5760  -21.5466  -54.5748 H         1 UNK         0.3000 
    221 H221       -5.3274  -23.8406  -54.3338 H         1 UNK         0.0600 
    222 H222       -5.9057  -20.9546  -55.1794 H         1 UNK         0.0600 
    223 H223       -5.4764  -22.2765  -56.2600 H         1 UNK         0.0600 
    224 H224       -6.9955  -22.3174  -55.3794 H         1 UNK         0.0600 
    225 H225       -7.2601  -23.9674  -53.1384 H         1 UNK         0.3000 
    226 H226       -6.9712  -23.4563  -50.4263 H         1 UNK         0.0600 
    227 H227       -8.2624  -25.3419  -51.3556 H         1 UNK         0.0600 
    228 H228       -9.2737  -24.4155  -50.2604 H         1 UNK         0.0600 
    229 H229       -9.4792  -24.2376  -51.9988 H         1 UNK         0.0600 
    230 H230       -8.5341  -21.4182  -52.7979 H         1 UNK         0.3000 
    231 H231      -10.0569  -19.7797  -50.9237 H         1 UNK         0.0600 
    232 H232      -10.5427  -18.4571  -52.9799 H         1 UNK         0.0600 
    233 H233      -10.8642  -20.1644  -53.2329 H         1 UNK         0.0600 
    234 H234       -9.4034  -19.4351  -53.8982 H         1 UNK         0.0600 
    235 H235       -7.9045  -19.7067  -49.6801 H         1 UNK         0.3000 
    236 H236       -6.3953  -18.5475  -48.5961 H         1 UNK         0.0600 
    237 H237       -7.3233  -16.0880  -50.1682 H         1 UNK         0.0600 
    238 H238       -8.0140  -16.6700  -48.6539 H         1 UNK         0.0600 
    239 H239       -6.3637  -16.0696  -48.6959 H         1 UNK         0.0600 
    240 H240       -6.2055  -17.9856  -52.0420 H         1 UNK         0.3000 
    241 H241       -3.4863  -18.8018  -52.1576 H         1 UNK         0.0600 
    242 H242       -6.0844  -18.6714  -55.2954 H         1 UNK         0.3800 
    243 H243       -6.5433  -17.9123  -53.8008 H         1 UNK         0.3800 
    244 H244       -3.5523  -16.0947  -51.7121 H         1 UNK         0.0800 
    245 H245       -3.7431  -16.0529  -53.4289 H         1 UNK         0.0800 
    246 H246       -1.6047  -17.3642  -50.4375 H         1 UNK         0.0800 
    247 H247       -1.3284  -15.6672  -50.7573 H         1 UNK         0.0800 
@<TRIPOS>BOND
     1    1    2 1    
     2    1  127 1    
     3    1  128 1    
     4    1  129 1    
     5    2    3 2    
     6    2    4 am   BACKBONE|DICT|INTERRES
     7    4    5 1    
     8    4  130 1    
     9    5    6 1    
    10    5   65 1    
    11    5  131 1    
    12    6    7 1    
    13    6  132 1    
    14    6  133 1    
    15    7    8 1    
    16    8    9 1    
    17    8  134 1    
    18    8  135 1    
    19    9   10 ar   
    20    9   14 ar   
    21   10   11 ar   
    22   10  136 1    
    23   11   12 ar   
    24   11  126 1    
    25   12   13 ar   
    26   12  137 1    
    27   13   14 ar   
    28   13   15 1    
    29   14  138 1    
    30   15   16 1    
    31   15  139 1    
    32   15  140 1    
    33   16   17 1    
    34   17   18 1    
    35   17  141 1    
    36   17  142 1    
    37   18   19 1    
    38   18   67 1    
    39   18  143 1    
    40   19   20 am   BACKBONE|DICT|INTERRES
    41   19  144 1    
    42   20   21 2    
    43   20   22 1    
    44   22   23 1    
    45   22   24 1    
    46   22  145 1    
    47   23  146 1    
    48   23  147 1    
    49   23  148 1    
    50   24   25 am   BACKBONE|DICT|INTERRES
    51   24  149 1    
    52   25   26 2    
    53   25   27 1    
    54   27   28 1    
    55   27   29 1    
    56   27  150 1    
    57   28  151 1    
    58   28  152 1    
    59   28  153 1    
    60   29   30 am   BACKBONE|DICT|INTERRES
    61   29  154 1    
    62   30   31 2    
    63   30   32 1    
    64   32   33 1    
    65   32   34 1    
    66   32  155 1    
    67   33  156 1    
    68   33  157 1    
    69   33  158 1    
    70   34   35 am   BACKBONE|DICT|INTERRES
    71   34  159 1    
    72   35   36 2    
    73   35   37 1    
    74   37   38 1    
    75   37   39 1    
    76   37  160 1    
    77   38  161 1    
    78   38  162 1    
    79   38  163 1    
    80   39   40 am   BACKBONE|DICT|INTERRES
    81   39  164 1    
    82   40   41 2    
    83   40   42 1    
    84   42   43 1    
    85   42   44 1    
    86   42  165 1    
    87   43  166 1    
    88   43  167 1    
    89   43  168 1    
    90   44   45 am   BACKBONE|DICT|INTERRES
    91   44  169 1    
    92   45   46 2    
    93   45   47 1    
    94   47   48 1    
    95   47   49 1    
    96   47  170 1    
    97   48  171 1    
    98   48  172 1    
    99   48  173 1    
   100   49   50 am   BACKBONE|DICT|INTERRES
   101   49  174 1    
   102   50   51 2    
   103   50   52 1    
   104   52   53 1    
   105   52   54 1    
   106   52  175 1    
   107   53  176 1    
   108   53  177 1    
   109   53  178 1    
   110   54   55 am   BACKBONE|DICT|INTERRES
   111   54  179 1    
   112   55   56 2    
   113   55   57 1    
   114   57   58 1    
   115   57   59 1    
   116   57  180 1    
   117   58  181 1    
   118   58  182 1    
   119   58  183 1    
   120   59   60 am   BACKBONE|DICT|INTERRES
   121   59  184 1    
   122   60   61 2    
   123   60   62 1    
   124   62   63 1    
   125   62   64 1    
   126   62  185 1    
   127   63  186 1    
   128   63  187 1    
   129   63  188 1    
   130   64   65 am   BACKBONE|DICT|INTERRES
   131   64  189 1    
   132   65   66 2    
   133   67   68 2    
   134   67   69 am   BACKBONE|DICT|INTERRES
   135   69   70 1    
   136   69  190 1    
   137   70   71 1    
   138   70   72 1    
   139   70  191 1    
   140   71  192 1    
   141   71  193 1    
   142   71  194 1    
   143   72   73 2    
   144   72   74 am   BACKBONE|DICT|INTERRES
   145   74   75 1    
   146   74  195 1    
   147   75   76 1    
   148   75   77 1    
   149   75  196 1    
   150   76  197 1    
   151   76  198 1    
   152   76  199 1    
   153   77   78 2    
   154   77   79 am   BACKBONE|DICT|INTERRES
   155   79   80 1    
   156   79  200 1    
   157   80   81 1    
   158   80   82 1    
   159   80  201 1    
   160   81  202 1    
   161   81  203 1    
   162   81  204 1    
   163   82   83 2    
   164   82   84 am   BACKBONE|DICT|INTERRES
   165   84   85 1    
   166   84  205 1    
   167   85   86 1    
   168   85   87 1    
   169   85  206 1    
   170   86  207 1    
   171   86  208 1    
   172   86  209 1    
   173   87   88 2    
   174   87   89 am   BACKBONE|DICT|INTERRES
   175   89   90 1    
   176   89  210 1    
   177   90   91 1    
   178   90   92 1    
   179   90  211 1    
   180   91  212 1    
   181   91  213 1    
   182   91  214 1    
   183   92   93 2    
   184   92   94 am   BACKBONE|DICT|INTERRES
   185   94   95 1    
   186   94  215 1    
   187   95   96 1    
   188   95   97 1    
   189   95  216 1    
   190   96  217 1    
   191   96  218 1    
   192   96  219 1    
   193   97   98 2    
   194   97   99 am   BACKBONE|DICT|INTERRES
   195   99  100 1    
   196   99  220 1    
   197  100  101 1    
   198  100  102 1    
   199  100  221 1    
   200  101  222 1    
   201  101  223 1    
   202  101  224 1    
   203  102  103 2    
   204  102  104 am   BACKBONE|DICT|INTERRES
   205  104  105 1    
   206  104  225 1    
   207  105  106 1    
   208  105  107 1    
   209  105  226 1    
   210  106  227 1    
   211  106  228 1    
   212  106  229 1    
   213  107  108 2    
   214  107  109 am   BACKBONE|DICT|INTERRES
   215  109  110 1    
   216  109  230 1    
   217  110  111 1    
   218  110  112 1    
   219  110  231 1    
   220  111  232 1    
   221  111  233 1    
   222  111  234 1    
   223  112  113 2    
   224  112  114 am   BACKBONE|DICT|INTERRES
   225  114  115 1    
   226  114  235 1    
   227  115  116 1    
   228  115  117 1    
   229  115  236 1    
   230  116  237 1    
   231  116  238 1    
   232  116  239 1    
   233  117  118 2    
   234  117  119 am   BACKBONE|DICT|INTERRES
   235  119  120 1    
   236  119  240 1    
   237  120  121 1    
   238  120  124 1    
   239  120  241 1    
   240  121  122 am   BACKBONE|DICT|INTERRES
   241  121  123 2    
   242  122  242 1    
   243  122  243 1    
   244  124  125 1    
   245  124  244 1    
   246  124  245 1    
   247  125  126 1    
   248  126  246 1    
   249  126  247 1    
@<TRIPOS>SUBSTRUCTURE
     1 UNK         1 GROUP             0       ****    0 ROOT    
