@<TRIPOS>MOLECULE
3R540
247   249    1
SMALL
USER_CHARGES


@<TRIPOS>ATOM
      1 CA          1.8532  -13.4832  -50.9038 C.3       0 UNK        -0.1800 
      2 C           2.8633  -13.3349  -49.7767 C.2       0 UNK         0.5000 
      3 O           3.5991  -12.3482  -49.7288 O.2       0 UNK        -0.5000 
      4 N           2.8916  -14.3071  -48.8585 N.am      1 UNK        -0.5000 
      5 CA          3.8014  -14.3885  -47.7071 C.3       1 UNK         0.1400 
      6 C6          3.9914  -15.8501  -47.2255 C.3       23 UNK        -0.0398 
      7 S7          4.5825  -16.9821  -48.5311 S.3       23 UNK        -0.2404 
      8 C8          3.1876  -18.1428  -48.6897 C.3       23 UNK        -0.0205 
      9 C9          2.0259  -17.5458  -49.4677 C.ar      23 UNK        -0.0193 
     10 C10         2.0076  -17.6138  -50.8644 C.ar      23 UNK        -0.1150 
     11 C11         0.9314  -17.0929  -51.5896 C.ar      23 UNK        -0.0193 
     12 C12        -0.1257  -16.4913  -50.9006 C.ar      23 UNK        -0.1150 
     13 C13        -0.1278  -16.4327  -49.5063 C.ar      23 UNK        -0.0193 
     14 C14         0.9557  -16.9520  -48.7931 C.ar      23 UNK        -0.1150 
     15 C15        -1.3236  -15.8389  -48.7828 C.3       23 UNK        -0.0205 
     16 S16        -2.6115  -17.0996  -48.5238 S.3       23 UNK        -0.2404 
     17 C17        -1.8742  -18.0802  -47.1764 C.3       23 UNK        -0.0398 
     18 CA         -1.2395  -19.4126  -47.6439 C.3       11 UNK         0.1400 
     19 N          -0.2112  -19.8603  -46.7029 N.am      11 UNK        -0.5000 
     20 C           0.5410  -20.9633  -46.8125 C.2       10 UNK         0.5000 
     21 O           0.5278  -21.7149  -47.7841 O.2       10 UNK        -0.5000 
     22 CA          1.4120  -21.3245  -45.5974 C.3       10 UNK         0.1400 
     23 CB          2.8135  -20.7117  -45.7100 C.3       10 UNK        -0.1800 
     24 N           0.7892  -20.9292  -44.3325 N.am      10 UNK        -0.5000 
     25 C          -0.3068  -21.5120  -43.8290 C.2       9 UNK         0.5000 
     26 O          -0.9064  -22.4364  -44.3809 O.2       9 UNK        -0.5000 
     27 CA         -0.8259  -20.9480  -42.4963 C.3       9 UNK         0.1400 
     28 CB          0.2005  -21.1437  -41.3680 C.3       9 UNK        -0.1800 
     29 N          -1.2031  -19.5352  -42.5666 N.am      9 UNK        -0.5000 
     30 C          -2.2125  -19.0476  -43.3027 C.2       8 UNK         0.5000 
     31 O          -2.8274  -19.7021  -44.1441 O.2       8 UNK        -0.5000 
     32 CA         -2.6021  -17.5825  -43.0574 C.3       8 UNK         0.1400 
     33 CB         -3.0786  -17.3637  -41.6116 C.3       8 UNK        -0.1800 
     34 N          -1.4626  -16.7159  -43.3284 N.am      8 UNK        -0.5000 
     35 C          -1.3864  -15.8394  -44.3382 C.2       7 UNK         0.5000 
     36 O          -2.3273  -15.5710  -45.0844 O.2       7 UNK        -0.5000 
     37 CA         -0.0277  -15.1495  -44.5754 C.3       7 UNK         0.1400 
     38 CB         -0.0886  -13.6926  -44.0927 C.3       7 UNK        -0.1800 
     39 N           1.0964  -15.8274  -43.9258 N.am      7 UNK        -0.5000 
     40 C           1.5386  -17.0567  -44.2326 C.2       6 UNK         0.5000 
     41 O           1.0644  -17.7427  -45.1373 O.2       6 UNK        -0.5000 
     42 CA          2.6474  -17.6593  -43.3454 C.3       6 UNK         0.1400 
     43 CB          4.0255  -17.4479  -43.9879 C.3       6 UNK        -0.1800 
     44 N           2.6824  -17.1194  -41.9881 N.am      6 UNK        -0.5000 
     45 C           1.6761  -17.1042  -41.1020 C.2       5 UNK         0.5000 
     46 O           0.5902  -17.6570  -41.2892 O.2       5 UNK        -0.5000 
     47 CA          1.9084  -16.2676  -39.8259 C.3       5 UNK         0.1400 
     48 CB          2.2933  -17.1800  -38.6524 C.3       5 UNK        -0.1800 
     49 N           2.9346  -15.2247  -39.9870 N.am      5 UNK        -0.5000 
     50 C           2.8594  -14.2053  -40.8553 C.2       4 UNK         0.5000 
     51 O           1.8885  -14.0080  -41.5903 O.2       4 UNK        -0.5000 
     52 CA          4.0963  -13.3049  -40.9747 C.3       4 UNK         0.1400 
     53 CB          5.2268  -14.0297  -41.7303 C.3       4 UNK        -0.1800 
     54 N           3.7183  -12.0974  -41.6991 N.am      4 UNK        -0.5000 
     55 C           4.3692  -10.9302  -41.6836 C.2       3 UNK         0.5000 
     56 O           5.4045  -10.7386  -41.0426 O.2       3 UNK        -0.5000 
     57 CA          3.7388   -9.7850  -42.5062 C.3       3 UNK         0.1400 
     58 CB          4.7290   -8.6399  -42.8091 C.3       3 UNK        -0.1800 
     59 N           3.0674  -10.2389  -43.7325 N.am      3 UNK        -0.5000 
     60 C           3.6314  -10.8211  -44.8018 C.2       2 UNK         0.5000 
     61 O           4.8357  -11.0670  -44.9076 O.2       2 UNK        -0.5000 
     62 CA          2.6707  -11.1239  -45.9698 C.3       2 UNK         0.1400 
     63 CB          2.4200   -9.8548  -46.8001 C.3       2 UNK        -0.1800 
     64 N           3.1473  -12.1733  -46.8699 N.am      2 UNK        -0.5000 
     65 C           3.3498  -13.4579  -46.5542 C.2       1 UNK         0.5000 
     66 O           3.1619  -13.9153  -45.4263 O.2       1 UNK        -0.5000 
     67 C          -2.3063  -20.4990  -47.8816 C.2       11 UNK         0.5000 
     68 O          -2.5125  -20.9100  -49.0240 O.2       11 UNK        -0.5000 
     69 N          -2.9193  -20.9851  -46.7910 N.am      12 UNK        -0.5000 
     70 CA         -3.9111  -22.0586  -46.8142 C.3       12 UNK         0.1400 
     71 CB         -4.5341  -22.2233  -45.4209 C.3       12 UNK        -0.1800 
     72 C          -3.3324  -23.3926  -47.3108 C.2       12 UNK         0.5000 
     73 O          -3.9977  -24.0780  -48.0863 O.2       12 UNK        -0.5000 
     74 N          -2.1028  -23.7208  -46.8876 N.am      13 UNK        -0.5000 
     75 CA         -1.3804  -24.9226  -47.3068 C.3       13 UNK         0.1400 
     76 CB         -0.0958  -25.0770  -46.4800 C.3       13 UNK        -0.1800 
     77 C          -1.0715  -24.9351  -48.8152 C.2       13 UNK         0.5000 
     78 O          -1.3614  -25.9294  -49.4809 O.2       13 UNK        -0.5000 
     79 N          -0.5370  -23.8207  -49.3363 N.am      14 UNK        -0.5000 
     80 CA         -0.2386  -23.6209  -50.7572 C.3       14 UNK         0.1400 
     81 CB          0.5422  -22.3099  -50.9416 C.3       14 UNK        -0.1800 
     82 C          -1.5017  -23.6147  -51.6344 C.2       14 UNK         0.5000 
     83 O          -1.4700  -24.1181  -52.7570 O.2       14 UNK        -0.5000 
     84 N          -2.5951  -23.0570  -51.1004 N.am      15 UNK        -0.5000 
     85 CA         -3.9098  -23.0350  -51.7331 C.3       15 UNK         0.1400 
     86 CB         -4.7294  -21.8925  -51.1163 C.3       15 UNK        -0.1800 
     87 C          -4.6709  -24.3717  -51.6434 C.2       15 UNK         0.5000 
     88 O          -5.7090  -24.4963  -52.2912 O.2       15 UNK        -0.5000 
     89 N          -4.1755  -25.3289  -50.8466 N.am      16 UNK        -0.5000 
     90 CA         -4.7841  -26.6317  -50.5522 C.3       16 UNK         0.1400 
     91 CB         -4.8383  -27.5122  -51.8188 C.3       16 UNK        -0.1800 
     92 C          -6.1493  -26.5116  -49.8362 C.2       16 UNK         0.5000 
     93 O          -7.0394  -27.3324  -50.0631 O.2       16 UNK        -0.5000 
     94 N          -6.2673  -25.4854  -48.9802 N.am      17 UNK        -0.5000 
     95 CA         -7.4063  -25.1122  -48.1365 C.3       17 UNK         0.1400 
     96 CB         -7.4311  -26.0251  -46.8942 C.3       17 UNK        -0.1800 
     97 C          -8.7709  -25.0737  -48.8729 C.2       17 UNK         0.5000 
     98 O          -9.6418  -25.8900  -48.5714 O.2       17 UNK        -0.5000 
     99 N          -9.0013  -24.1626  -49.8291 N.am      18 UNK        -0.5000 
    100 CA        -8.1214  -23.1071  -50.3374 C.3       18 UNK         0.1400 
    101 CB        -8.2668  -21.8375  -49.4762 C.3       18 UNK        -0.1800 
    102 C         -8.4180  -22.8530  -51.8310 C.2       18 UNK         0.5000 
    103 O         -8.3237  -21.7175  -52.2988 O.2       18 UNK        -0.5000 
    104 N         -8.7977  -23.9168  -52.5522 N.am      19 UNK        -0.5000 
    105 CA        -9.2852  -23.8768  -53.9317 C.3       19 UNK         0.1400 
    106 CB        -9.8801  -25.2495  -54.2819 C.3       19 UNK        -0.1800 
    107 C         -8.2414  -23.4650  -54.9885 C.2       19 UNK         0.5000 
    108 O         -8.6278  -22.9056  -56.0158 O.2       19 UNK        -0.5000 
    109 N         -6.9545  -23.7526  -54.7466 N.am      20 UNK        -0.5000 
    110 CA        -5.8707  -23.4818  -55.6978 C.3       20 UNK         0.1400 
    111 CB        -4.7367  -24.4998  -55.4937 C.3       20 UNK        -0.1800 
    112 C         -5.3350  -22.0394  -55.6192 C.2       20 UNK         0.5000 
    113 O         -4.6021  -21.6300  -56.5207 O.2       20 UNK        -0.5000 
    114 N         -5.6900  -21.3029  -54.5522 N.am      21 UNK        -0.5000 
    115 CA        -5.3864  -19.8833  -54.3086 C.3       21 UNK         0.1400 
    116 CB        -6.2933  -19.0041  -55.1933 C.3       21 UNK        -0.1800 
    117 C         -3.8868  -19.5242  -54.4465 C.2       21 UNK         0.5000 
    118 O         -3.5505  -18.4990  -55.0381 O.2       21 UNK        -0.5000 
    119 N         -3.0319  -20.4172  -53.9301 N.am      22 UNK        -0.5000 
    120 CA        -1.5600  -20.4353  -54.0133 C.3       22 UNK         0.1400 
    121 C         -0.9509  -20.5946  -55.4413 C.2       22 UNK         0.5000 
    122 N         -1.7295  -20.9071  -56.4711 N.am      22 UNK        -0.7600 
    123 O          0.2602  -20.4881  -55.6141 O.2       22 UNK        -0.5000 
    124 C124       -0.8605  -19.3758  -53.1085 C.3       23 UNK        -0.0398 
    125 S125       -0.6833  -17.6939  -53.8055 S.3       23 UNK        -0.2404 
    126 C126        0.9240  -17.1726  -53.1133 C.3       23 UNK        -0.0205 
    127 H127        0.8675  -13.7279  -50.5084 H         1 UNK         0.0600 
    128 H128        2.1612  -14.2753  -51.5862 H         1 UNK         0.0600 
    129 H129        1.7679  -12.5566  -51.4715 H         1 UNK         0.0600 
    130 H130        2.2685  -15.0954  -48.9690 H         1 UNK         0.3000 
    131 H131        4.7812  -14.0272  -48.0266 H         1 UNK         0.0600 
    132 H132        4.7315  -15.8782  -46.4247 H         1 UNK         0.0800 
    133 H133        3.0665  -16.2356  -46.7955 H         1 UNK         0.0800 
    134 H134        2.8568  -18.4609  -47.7014 H         1 UNK         0.0800 
    135 H135        3.5369  -19.0449  -49.1941 H         1 UNK         0.0800 
    136 H136        2.8338  -18.0771  -51.3854 H         1 UNK         0.1150 
    137 H137       -0.9641  -16.0869  -51.4500 H         1 UNK         0.1150 
    138 H138        0.9549  -16.9175  -47.7130 H         1 UNK         0.1150 
    139 H139       -1.0262  -15.3988  -47.8302 H         1 UNK         0.0800 
    140 H140       -1.7436  -15.0234  -49.3737 H         1 UNK         0.0800 
    141 H141       -2.6338  -18.2394  -46.4100 H         1 UNK         0.0800 
    142 H142       -1.1150  -17.4659  -46.6964 H         1 UNK         0.0800 
    143 H143       -0.7302  -19.2445  -48.5949 H         1 UNK         0.0600 
    144 H144       -0.0537  -19.2689  -45.8950 H         1 UNK         0.3000 
    145 H145        1.5291  -22.4094  -45.5864 H         1 UNK         0.0600 
    146 H146        3.4481  -21.0178  -44.8783 H         1 UNK         0.0600 
    147 H147        3.3050  -21.0308  -46.6300 H         1 UNK         0.0600 
    148 H148        2.7750  -19.6258  -45.7212 H         1 UNK         0.0600 
    149 H149        1.1976  -20.1519  -43.8392 H         1 UNK         0.3000 
    150 H150       -1.7215  -21.5148  -42.2332 H         1 UNK         0.0600 
    151 H151        0.5105  -22.1871  -41.2965 H         1 UNK         0.0600 
    152 H152       -0.2216  -20.8644  -40.4025 H         1 UNK         0.0600 
    153 H153        1.0973  -20.5427  -41.5226 H         1 UNK         0.0600 
    154 H154       -0.7058  -18.9084  -41.9404 H         1 UNK         0.3000 
    155 H155       -3.4359  -17.3501  -43.7232 H         1 UNK         0.0600 
    156 H156       -2.2832  -17.5388  -40.8862 H         1 UNK         0.0600 
    157 H157       -3.9033  -18.0341  -41.3662 H         1 UNK         0.0600 
    158 H158       -3.4361  -16.3437  -41.4702 H         1 UNK         0.0600 
    159 H159       -0.6354  -16.8762  -42.7653 H         1 UNK         0.3000 
    160 H160        0.1651  -15.1485  -45.6498 H         1 UNK         0.0600 
    161 H161        0.8748  -13.1972  -44.2016 H         1 UNK         0.0600 
    162 H162       -0.3759  -13.6306  -43.0424 H         1 UNK         0.0600 
    163 H163       -0.8184  -13.1210  -44.6671 H         1 UNK         0.0600 
    164 H164        1.5354  -15.3202  -43.1653 H         1 UNK         0.3000 
    165 H165        2.4624  -18.7312  -43.2663 H         1 UNK         0.0600 
    166 H166        4.2787  -16.3887  -44.0476 H         1 UNK         0.0600 
    167 H167        4.8082  -17.9482  -43.4175 H         1 UNK         0.0600 
    168 H168        4.0596  -17.8500  -45.0001 H         1 UNK         0.0600 
    169 H169        3.5301  -16.6392  -41.7274 H         1 UNK         0.3000 
    170 H170        0.9640  -15.7753  -39.5853 H         1 UNK         0.0600 
    171 H171        1.5383  -17.9514  -38.4934 H         1 UNK         0.0600 
    172 H172        3.2448  -17.6833  -38.8285 H         1 UNK         0.0600 
    173 H173        2.3780  -16.6147  -37.7242 H         1 UNK         0.0600 
    174 H174        3.7636  -15.3223  -39.4179 H         1 UNK         0.3000 
    175 H175        4.4281  -13.0385  -39.9692 H         1 UNK         0.0600 
    176 H176        4.9238  -14.2904  -42.7455 H         1 UNK         0.0600 
    177 H177        6.1185  -13.4067  -41.8014 H         1 UNK         0.0600 
    178 H178        5.5190  -14.9502  -41.2242 H         1 UNK         0.0600 
    179 H179        2.8532  -12.1854  -42.2181 H         1 UNK         0.3000 
    180 H180        2.9533   -9.3695  -41.8734 H         1 UNK         0.0600 
    181 H181        5.5909   -8.9877  -43.3791 H         1 UNK         0.0600 
    182 H182        5.1065   -8.1952  -41.8876 H         1 UNK         0.0600 
    183 H183        4.2493   -7.8436  -43.3782 H         1 UNK         0.0600 
    184 H184        2.0705  -10.0746  -43.7552 H         1 UNK         0.3000 
    185 H185        1.7188  -11.4563  -45.5531 H         1 UNK         0.0600 
    186 H186        2.0221   -9.0491  -46.1818 H         1 UNK         0.0600 
    187 H187        3.3389   -9.4908  -47.2617 H         1 UNK         0.0600 
    188 H188        1.6965  -10.0392  -47.5946 H         1 UNK         0.0600 
    189 H189        3.3399  -11.8995  -47.8280 H         1 UNK         0.3000 
    190 H190       -2.6988  -20.5990  -45.8770 H         1 UNK         0.3000 
    191 H191       -4.7030  -21.7645  -47.5060 H         1 UNK         0.0600 
    192 H192       -3.7820  -22.4738  -44.6714 H         1 UNK         0.0600 
    193 H193       -5.2822  -23.0173  -45.4173 H         1 UNK         0.0600 
    194 H194       -5.0303  -21.3068  -45.1014 H         1 UNK         0.0600 
    195 H195       -1.6395  -23.1160  -46.2178 H         1 UNK         0.3000 
    196 H196       -2.0214  -25.7805  -47.0927 H         1 UNK         0.0600 
    197 H197        0.4123  -26.0110  -46.7228 H         1 UNK         0.0600 
    198 H198       -0.3115  -25.0913  -45.4115 H         1 UNK         0.0600 
    199 H199        0.6056  -24.2658  -46.6705 H         1 UNK         0.0600 
    200 H200       -0.3033  -23.0463  -48.7169 H         1 UNK         0.3000 
    201 H201        0.3935  -24.4474  -51.0879 H         1 UNK         0.0600 
    202 H202        1.4776  -22.3268  -50.3822 H         1 UNK         0.0600 
    203 H203       -0.0335  -21.4474  -50.6018 H         1 UNK         0.0600 
    204 H204        0.7943  -22.1474  -51.9902 H         1 UNK         0.0600 
    205 H205       -2.5203  -22.6019  -50.1954 H         1 UNK         0.3000 
    206 H206       -3.7770  -22.8236  -52.7937 H         1 UNK         0.0600 
    207 H207       -4.2028  -20.9408  -51.1904 H         1 UNK         0.0600 
    208 H208       -5.6817  -21.7686  -51.6279 H         1 UNK         0.0600 
    209 H209       -4.9389  -22.0736  -50.0616 H         1 UNK         0.0600 
    210 H210       -3.3240  -25.1270  -50.3376 H         1 UNK         0.3000 
    211 H211       -4.1150  -27.1197  -49.8422 H         1 UNK         0.0600 
    212 H212       -5.5502  -27.1302  -52.5510 H         1 UNK         0.0600 
    213 H213       -5.1393  -28.5311  -51.5731 H         1 UNK         0.0600 
    214 H214       -3.8616  -27.5704  -52.2994 H         1 UNK         0.0600 
    215 H215       -5.4363  -24.9126  -48.8417 H         1 UNK         0.3000 
    216 H216       -7.2079  -24.1015  -47.7809 H         1 UNK         0.0600 
    217 H217       -8.2310  -25.7373  -46.2108 H         1 UNK         0.0600 
    218 H218       -6.4939  -25.9596  -46.3410 H         1 UNK         0.0600 
    219 H219       -7.5871  -27.0703  -47.1640 H         1 UNK         0.0600 
    220 H220       -9.9071  -24.1851  -50.2761 H         1 UNK         0.3000 
    221 H221       -7.0854  -23.4293  -50.2885 H         1 UNK         0.0600 
    222 H222       -9.2795  -21.4362  -49.5277 H         1 UNK         0.0600 
    223 H223       -8.0387  -22.0279  -48.4284 H         1 UNK         0.0600 
    224 H224       -7.5860  -21.0547  -49.8132 H         1 UNK         0.0600 
    225 H225       -8.7837  -24.8235  -52.1076 H         1 UNK         0.3000 
    226 H226      -10.0904  -23.1403  -53.9735 H         1 UNK         0.0600 
    227 H227      -10.6960  -25.5108  -53.6077 H         1 UNK         0.0600 
    228 H228      -10.2842  -25.2551  -55.2952 H         1 UNK         0.0600 
    229 H229       -9.1291  -26.0386  -54.2236 H         1 UNK         0.0600 
    230 H230       -6.6919  -24.1800  -53.8607 H         1 UNK         0.3000 
    231 H231       -6.2511  -23.6244  -56.7116 H         1 UNK         0.0600 
    232 H232       -5.1115  -25.5227  -55.5322 H         1 UNK         0.0600 
    233 H233       -4.2278  -24.3657  -54.5413 H         1 UNK         0.0600 
    234 H234       -3.9832  -24.4015  -56.2761 H         1 UNK         0.0600 
    235 H235       -6.3212  -21.7325  -53.8890 H         1 UNK         0.3000 
    236 H236       -5.6511  -19.6850  -53.2690 H         1 UNK         0.0600 
    237 H237       -6.0660  -19.1307  -56.2525 H         1 UNK         0.0600 
    238 H238       -7.3448  -19.2504  -55.0449 H         1 UNK         0.0600 
    239 H239       -6.1724  -17.9469  -54.9540 H         1 UNK         0.0600 
    240 H240       -3.4375  -21.2333  -53.5027 H         1 UNK         0.3000 
    241 H241       -1.3144  -21.3930  -53.5564 H         1 UNK         0.0600 
    242 H242       -2.7318  -21.0275  -56.3638 H         1 UNK         0.3800 
    243 H243       -1.3143  -21.0225  -57.3816 H         1 UNK         0.3800 
    244 H244        0.1373  -19.7389  -52.8580 H         1 UNK         0.0800 
    245 H245       -1.3835  -19.2968  -52.1542 H         1 UNK         0.0800 
    246 H246        1.1739  -16.1888  -53.5121 H         1 UNK         0.0800 
    247 H247        1.6963  -17.8561  -53.4697 H         1 UNK         0.0800 
@<TRIPOS>BOND
     1    1    2 1    
     2    1  127 1    
     3    1  128 1    
     4    1  129 1    
     5    2    3 2    
     6    2    4 am   BACKBONE|DICT|INTERRES
     7    4    5 1    
     8    4  130 1    
     9    5    6 1    
    10    5   65 1    
    11    5  131 1    
    12    6    7 1    
    13    6  132 1    
    14    6  133 1    
    15    7    8 1    
    16    8    9 1    
    17    8  134 1    
    18    8  135 1    
    19    9   10 ar   
    20    9   14 ar   
    21   10   11 ar   
    22   10  136 1    
    23   11   12 ar   
    24   11  126 1    
    25   12   13 ar   
    26   12  137 1    
    27   13   14 ar   
    28   13   15 1    
    29   14  138 1    
    30   15   16 1    
    31   15  139 1    
    32   15  140 1    
    33   16   17 1    
    34   17   18 1    
    35   17  141 1    
    36   17  142 1    
    37   18   19 1    
    38   18   67 1    
    39   18  143 1    
    40   19   20 am   BACKBONE|DICT|INTERRES
    41   19  144 1    
    42   20   21 2    
    43   20   22 1    
    44   22   23 1    
    45   22   24 1    
    46   22  145 1    
    47   23  146 1    
    48   23  147 1    
    49   23  148 1    
    50   24   25 am   BACKBONE|DICT|INTERRES
    51   24  149 1    
    52   25   26 2    
    53   25   27 1    
    54   27   28 1    
    55   27   29 1    
    56   27  150 1    
    57   28  151 1    
    58   28  152 1    
    59   28  153 1    
    60   29   30 am   BACKBONE|DICT|INTERRES
    61   29  154 1    
    62   30   31 2    
    63   30   32 1    
    64   32   33 1    
    65   32   34 1    
    66   32  155 1    
    67   33  156 1    
    68   33  157 1    
    69   33  158 1    
    70   34   35 am   BACKBONE|DICT|INTERRES
    71   34  159 1    
    72   35   36 2    
    73   35   37 1    
    74   37   38 1    
    75   37   39 1    
    76   37  160 1    
    77   38  161 1    
    78   38  162 1    
    79   38  163 1    
    80   39   40 am   BACKBONE|DICT|INTERRES
    81   39  164 1    
    82   40   41 2    
    83   40   42 1    
    84   42   43 1    
    85   42   44 1    
    86   42  165 1    
    87   43  166 1    
    88   43  167 1    
    89   43  168 1    
    90   44   45 am   BACKBONE|DICT|INTERRES
    91   44  169 1    
    92   45   46 2    
    93   45   47 1    
    94   47   48 1    
    95   47   49 1    
    96   47  170 1    
    97   48  171 1    
    98   48  172 1    
    99   48  173 1    
   100   49   50 am   BACKBONE|DICT|INTERRES
   101   49  174 1    
   102   50   51 2    
   103   50   52 1    
   104   52   53 1    
   105   52   54 1    
   106   52  175 1    
   107   53  176 1    
   108   53  177 1    
   109   53  178 1    
   110   54   55 am   BACKBONE|DICT|INTERRES
   111   54  179 1    
   112   55   56 2    
   113   55   57 1    
   114   57   58 1    
   115   57   59 1    
   116   57  180 1    
   117   58  181 1    
   118   58  182 1    
   119   58  183 1    
   120   59   60 am   BACKBONE|DICT|INTERRES
   121   59  184 1    
   122   60   61 2    
   123   60   62 1    
   124   62   63 1    
   125   62   64 1    
   126   62  185 1    
   127   63  186 1    
   128   63  187 1    
   129   63  188 1    
   130   64   65 am   BACKBONE|DICT|INTERRES
   131   64  189 1    
   132   65   66 2    
   133   67   68 2    
   134   67   69 am   BACKBONE|DICT|INTERRES
   135   69   70 1    
   136   69  190 1    
   137   70   71 1    
   138   70   72 1    
   139   70  191 1    
   140   71  192 1    
   141   71  193 1    
   142   71  194 1    
   143   72   73 2    
   144   72   74 am   BACKBONE|DICT|INTERRES
   145   74   75 1    
   146   74  195 1    
   147   75   76 1    
   148   75   77 1    
   149   75  196 1    
   150   76  197 1    
   151   76  198 1    
   152   76  199 1    
   153   77   78 2    
   154   77   79 am   BACKBONE|DICT|INTERRES
   155   79   80 1    
   156   79  200 1    
   157   80   81 1    
   158   80   82 1    
   159   80  201 1    
   160   81  202 1    
   161   81  203 1    
   162   81  204 1    
   163   82   83 2    
   164   82   84 am   BACKBONE|DICT|INTERRES
   165   84   85 1    
   166   84  205 1    
   167   85   86 1    
   168   85   87 1    
   169   85  206 1    
   170   86  207 1    
   171   86  208 1    
   172   86  209 1    
   173   87   88 2    
   174   87   89 am   BACKBONE|DICT|INTERRES
   175   89   90 1    
   176   89  210 1    
   177   90   91 1    
   178   90   92 1    
   179   90  211 1    
   180   91  212 1    
   181   91  213 1    
   182   91  214 1    
   183   92   93 2    
   184   92   94 am   BACKBONE|DICT|INTERRES
   185   94   95 1    
   186   94  215 1    
   187   95   96 1    
   188   95   97 1    
   189   95  216 1    
   190   96  217 1    
   191   96  218 1    
   192   96  219 1    
   193   97   98 2    
   194   97   99 am   BACKBONE|DICT|INTERRES
   195   99  100 1    
   196   99  220 1    
   197  100  101 1    
   198  100  102 1    
   199  100  221 1    
   200  101  222 1    
   201  101  223 1    
   202  101  224 1    
   203  102  103 2    
   204  102  104 am   BACKBONE|DICT|INTERRES
   205  104  105 1    
   206  104  225 1    
   207  105  106 1    
   208  105  107 1    
   209  105  226 1    
   210  106  227 1    
   211  106  228 1    
   212  106  229 1    
   213  107  108 2    
   214  107  109 am   BACKBONE|DICT|INTERRES
   215  109  110 1    
   216  109  230 1    
   217  110  111 1    
   218  110  112 1    
   219  110  231 1    
   220  111  232 1    
   221  111  233 1    
   222  111  234 1    
   223  112  113 2    
   224  112  114 am   BACKBONE|DICT|INTERRES
   225  114  115 1    
   226  114  235 1    
   227  115  116 1    
   228  115  117 1    
   229  115  236 1    
   230  116  237 1    
   231  116  238 1    
   232  116  239 1    
   233  117  118 2    
   234  117  119 am   BACKBONE|DICT|INTERRES
   235  119  120 1    
   236  119  240 1    
   237  120  121 1    
   238  120  124 1    
   239  120  241 1    
   240  121  122 am   BACKBONE|DICT|INTERRES
   241  121  123 2    
   242  122  242 1    
   243  122  243 1    
   244  124  125 1    
   245  124  244 1    
   246  124  245 1    
   247  125  126 1    
   248  126  246 1    
   249  126  247 1    
@<TRIPOS>SUBSTRUCTURE
     1 UNK         1 GROUP             0       ****    0 ROOT    
