@<TRIPOS>MOLECULE
3R540
247   249    1
SMALL
USER_CHARGES


@<TRIPOS>ATOM
      1 CA          1.4958  -13.1374  -51.1745 C.3       0 UNK        -0.1800 
      2 C           2.8370  -12.9371  -50.4859 C.2       0 UNK         0.5000 
      3 O           3.1256  -11.8441  -49.9992 O.2       0 UNK        -0.5000 
      4 N           3.6554  -13.9951  -50.4411 N.am      1 UNK        -0.5000 
      5 CA          4.9982  -13.9955  -49.8406 C.3       1 UNK         0.1400 
      6 C6          5.9080  -15.1145  -50.4134 C.3       23 UNK        -0.0398 
      7 S7          5.9673  -15.1587  -52.2397 S.3       23 UNK        -0.2404 
      8 C8          5.1856  -16.7657  -52.6020 C.3       23 UNK        -0.0205 
      9 C9          3.6937  -16.7560  -52.3034 C.ar      23 UNK        -0.0193 
     10 C10         2.7906  -16.2734  -53.2548 C.ar      23 UNK        -0.1150 
     11 C11         1.4190  -16.2570  -52.9864 C.ar      23 UNK        -0.0193 
     12 C12         0.9524  -16.7177  -51.7517 C.ar      23 UNK        -0.1150 
     13 C13         1.8467  -17.1966  -50.7908 C.ar      23 UNK        -0.0193 
     14 C14         3.2137  -17.2262  -51.0772 C.ar      23 UNK        -0.1150 
     15 C15         1.3450  -17.6560  -49.4327 C.3       23 UNK        -0.0205 
     16 S16         1.0972  -19.4560  -49.3777 S.3       23 UNK        -0.2404 
     17 C17         0.6362  -19.6193  -47.6242 C.3       23 UNK        -0.0398 
     18 CA          0.2752  -21.0593  -47.1881 C.3       11 UNK         0.1400 
     19 N           0.2934  -21.1837  -45.7284 N.am      11 UNK        -0.5000 
     20 C           0.1357  -22.3190  -45.0347 C.2       10 UNK         0.5000 
     21 O           0.0108  -23.4281  -45.5527 O.2       10 UNK        -0.5000 
     22 CA          0.0509  -22.1828  -43.5025 C.3       10 UNK         0.1400 
     23 CB          1.4500  -22.0564  -42.8819 C.3       10 UNK        -0.1800 
     24 N          -0.7805  -21.0513  -43.0850 N.am      10 UNK        -0.5000 
     25 C          -2.0955  -20.9525  -43.3303 C.2       9 UNK         0.5000 
     26 O          -2.7532  -21.8303  -43.8883 O.2       9 UNK        -0.5000 
     27 CA         -2.7844  -19.6346  -42.9344 C.3       9 UNK         0.1400 
     28 CB         -3.0983  -19.6096  -41.4313 C.3       9 UNK        -0.1800 
     29 N          -1.9943  -18.4577  -43.2959 N.am      9 UNK        -0.5000 
     30 C          -1.6763  -18.1100  -44.5508 C.2       8 UNK         0.5000 
     31 O          -2.0631  -18.7191  -45.5473 O.2       8 UNK        -0.5000 
     32 CA         -0.7157  -16.9197  -44.7215 C.3       8 UNK         0.1400 
     33 CB         -1.4635  -15.5832  -44.6180 C.3       8 UNK        -0.1800 
     34 N           0.3853  -16.9501  -43.7579 N.am      8 UNK        -0.5000 
     35 C           1.3238  -17.9063  -43.7117 C.2       7 UNK         0.5000 
     36 O           1.3812  -18.8443  -44.5041 O.2       7 UNK        -0.5000 
     37 CA          2.3381  -17.8313  -42.5596 C.3       7 UNK         0.1400 
     38 CB          3.4959  -16.8797  -42.9002 C.3       7 UNK        -0.1800 
     39 N           1.7017  -17.4213  -41.3086 N.am      7 UNK        -0.5000 
     40 C           0.8442  -18.1861  -40.6171 C.2       6 UNK         0.5000 
     41 O           0.5438  -19.3371  -40.9360 O.2       6 UNK        -0.5000 
     42 CA          0.1767  -17.5341  -39.3921 C.3       6 UNK         0.1400 
     43 CB          1.0997  -17.6087  -38.1668 C.3       6 UNK        -0.1800 
     44 N          -0.1967  -16.1390  -39.6355 N.am      6 UNK        -0.5000 
     45 C          -1.1377  -15.7501  -40.5079 C.2       5 UNK         0.5000 
     46 O          -1.8229  -16.5334  -41.1631 O.2       5 UNK        -0.5000 
     47 CA         -1.3115  -14.2341  -40.7205 C.3       5 UNK         0.1400 
     48 CB         -2.3380  -13.6668  -39.7292 C.3       5 UNK        -0.1800 
     49 N          -0.0608  -13.4775  -40.6104 N.am      5 UNK        -0.5000 
     50 C           1.0105  -13.6471  -41.3959 C.2       4 UNK         0.5000 
     51 O           1.0724  -14.4820  -42.3033 O.2       4 UNK        -0.5000 
     52 CA          2.2283  -12.7716  -41.0756 C.3       4 UNK         0.1400 
     53 CB          2.9034  -13.2335  -39.7699 C.3       4 UNK        -0.1800 
     54 N           3.1850  -12.8522  -42.1741 N.am      4 UNK        -0.5000 
     55 C           4.1235  -11.9414  -42.4561 C.2       3 UNK         0.5000 
     56 O           4.2576  -10.8899  -41.8283 O.2       3 UNK        -0.5000 
     57 CA          5.0963  -12.2533  -43.6106 C.3       3 UNK         0.1400 
     58 CB          6.4909  -12.5842  -43.0545 C.3       3 UNK        -0.1800 
     59 N           4.6618  -13.3666  -44.4575 N.am      3 UNK        -0.5000 
     60 C           3.8339  -13.2473  -45.5018 C.2       2 UNK         0.5000 
     61 O           3.3033  -12.1887  -45.8444 O.2       2 UNK        -0.5000 
     62 CA          3.5437  -14.5393  -46.2892 C.3       2 UNK         0.1400 
     63 CB          2.0910  -14.9869  -46.0739 C.3       2 UNK        -0.1800 
     64 N           3.7871  -14.3925  -47.7236 N.am      2 UNK        -0.5000 
     65 C           4.9616  -14.0886  -48.2967 C.2       1 UNK         0.5000 
     66 O           6.0028  -13.9167  -47.6610 O.2       1 UNK        -0.5000 
     67 C          -1.0712  -21.5264  -47.7807 C.2       11 UNK         0.5000 
     68 O          -1.0780  -22.3339  -48.7098 O.2       11 UNK        -0.5000 
     69 N          -2.1848  -21.0579  -47.1975 N.am      12 UNK        -0.5000 
     70 CA         -3.5422  -21.4615  -47.5613 C.3       12 UNK         0.1400 
     71 CB         -4.5670  -20.6070  -46.8021 C.3       12 UNK        -0.1800 
     72 C          -3.7982  -22.9595  -47.3282 C.2       12 UNK         0.5000 
     73 O          -4.3594  -23.6121  -48.2072 O.2       12 UNK        -0.5000 
     74 N          -3.3567  -23.4871  -46.1778 N.am      13 UNK        -0.5000 
     75 CA         -3.4468  -24.9054  -45.8248 C.3       13 UNK         0.1400 
     76 CB         -2.9928  -25.1123  -44.3724 C.3       13 UNK        -0.1800 
     77 C          -2.6533  -25.8104  -46.7845 C.2       13 UNK         0.5000 
     78 O          -3.1854  -26.8256  -47.2355 O.2       13 UNK        -0.5000 
     79 N          -1.4233  -25.3996  -47.1271 N.am      14 UNK        -0.5000 
     80 CA         -0.5670  -26.0590  -48.1181 C.3       14 UNK         0.1400 
     81 CB          0.8231  -25.4059  -48.1086 C.3       14 UNK        -0.1800 
     82 C          -1.1671  -26.0432  -49.5382 C.2       14 UNK         0.5000 
     83 O          -0.9842  -27.0018  -50.2885 O.2       14 UNK        -0.5000 
     84 N          -1.9161  -24.9806  -49.8573 N.am      15 UNK        -0.5000 
     85 CA         -2.6889  -24.8098  -51.0868 C.3       15 UNK         0.1400 
     86 CB         -2.7544  -23.3097  -51.4201 C.3       15 UNK        -0.1800 
     87 C          -4.0966  -25.4458  -51.0181 C.2       15 UNK         0.5000 
     88 O          -4.9570  -25.0762  -51.8171 O.2       15 UNK        -0.5000 
     89 N          -4.3198  -26.3775  -50.0776 N.am      16 UNK        -0.5000 
     90 CA         -5.5399  -27.1692  -49.8805 C.3       16 UNK         0.1400 
     91 CB         -5.7597  -28.1305  -51.0678 C.3       16 UNK        -0.1800 
     92 C          -6.7753  -26.3006  -49.5676 C.2       16 UNK         0.5000 
     93 O          -7.8240  -26.4603  -50.1938 O.2       16 UNK        -0.5000 
     94 N          -6.6051  -25.3856  -48.6037 N.am      17 UNK        -0.5000 
     95 CA         -7.5496  -24.3444  -48.1849 C.3       17 UNK         0.1400 
     96 CB         -8.8728  -24.9414  -47.6599 C.3       17 UNK        -0.1800 
     97 C          -7.7376  -23.2772  -49.2819 C.2       17 UNK         0.5000 
     98 O          -8.8632  -22.8633  -49.5651 O.2       17 UNK        -0.5000 
     99 N          -6.6052  -22.8554  -49.8650 N.am      18 UNK        -0.5000 
    100 CA        -6.4574  -21.8418  -50.9130 C.3       18 UNK         0.1400 
    101 CB        -6.7739  -20.4409  -50.3486 C.3       18 UNK        -0.1800 
    102 C         -7.2455  -22.1723  -52.1989 C.2       18 UNK         0.5000 
    103 O         -7.9042  -21.2966  -52.7638 O.2       18 UNK        -0.5000 
    104 N         -7.1656  -23.4348  -52.6399 N.am      19 UNK        -0.5000 
    105 CA        -7.8428  -23.9665  -53.8213 C.3       19 UNK         0.1400 
    106 CB        -7.7704  -25.5026  -53.7909 C.3       19 UNK        -0.1800 
    107 C         -7.2401  -23.3877  -55.1153 C.2       19 UNK         0.5000 
    108 O         -6.2331  -23.9009  -55.6068 O.2       19 UNK        -0.5000 
    109 N         -7.8529  -22.3021  -55.6110 N.am      20 UNK        -0.5000 
    110 CA        -7.4409  -21.4966  -56.7686 C.3       20 UNK         0.1400 
    111 CB        -7.5656  -22.3077  -58.0758 C.3       20 UNK        -0.1800 
    112 C         -6.0506  -20.8450  -56.5908 C.2       20 UNK         0.5000 
    113 O         -5.3181  -20.6680  -57.5665 O.2       20 UNK        -0.5000 
    114 N         -5.7085  -20.5091  -55.3400 N.am      21 UNK        -0.5000 
    115 CA        -4.4451  -19.8805  -54.9614 C.3       21 UNK         0.1400 
    116 CB        -4.2368  -20.0666  -53.4511 C.3       21 UNK        -0.1800 
    117 C         -4.4032  -18.3866  -55.3317 C.2       21 UNK         0.5000 
    118 O         -5.4494  -17.7443  -55.4597 O.2       21 UNK        -0.5000 
    119 N         -3.1818  -17.8618  -55.4660 N.am      22 UNK        -0.5000 
    120 CA        -2.8816  -16.4342  -55.6426 C.3       22 UNK         0.1400 
    121 C         -3.2376  -15.5648  -54.4008 C.2       22 UNK         0.5000 
    122 N         -3.4710  -14.2732  -54.5925 N.am      22 UNK        -0.7600 
    123 O         -3.2723  -16.0349  -53.2656 O.2       22 UNK        -0.5000 
    124 C124       -1.4115  -16.2191  -56.0967 C.3       23 UNK        -0.0398 
    125 S125       -0.1679  -17.0878  -55.0741 S.3       23 UNK        -0.2404 
    126 C126        0.4405  -15.7347  -54.0244 C.3       23 UNK        -0.0205 
    127 H127        0.8726  -12.2484  -51.0762 H         1 UNK         0.0600 
    128 H128        0.9588  -13.9765  -50.7327 H         1 UNK         0.0600 
    129 H129        1.6402  -13.3355  -52.2365 H         1 UNK         0.0600 
    130 H130        3.3783  -14.8581  -50.8905 H         1 UNK         0.3000 
    131 H131        5.4701  -13.0409  -50.0832 H         1 UNK         0.0600 
    132 H132        6.9321  -14.9700  -50.0645 H         1 UNK         0.0800 
    133 H133        5.6096  -16.0912  -50.0327 H         1 UNK         0.0800 
    134 H134        5.6862  -17.5547  -52.0384 H         1 UNK         0.0800 
    135 H135        5.3436  -17.0023  -53.6553 H         1 UNK         0.0800 
    136 H136        3.1562  -15.9118  -54.2059 H         1 UNK         0.1150 
    137 H137       -0.1078  -16.7004  -51.5397 H         1 UNK         0.1150 
    138 H138        3.9019  -17.6115  -50.3383 H         1 UNK         0.1150 
    139 H139        0.4078  -17.1534  -49.1878 H         1 UNK         0.0800 
    140 H140        2.0608  -17.3647  -48.6623 H         1 UNK         0.0800 
    141 H141       -0.1766  -18.9271  -47.4016 H         1 UNK         0.0800 
    142 H142        1.4952  -19.2716  -47.0497 H         1 UNK         0.0800 
    143 H143        1.0488  -21.7313  -47.5657 H         1 UNK         0.0600 
    144 H144        0.4504  -20.3234  -45.2099 H         1 UNK         0.3000 
    145 H145       -0.4087  -23.0938  -43.1140 H         1 UNK         0.0600 
    146 H146        1.3962  -22.0230  -41.7936 H         1 UNK         0.0600 
    147 H147        2.0742  -22.9092  -43.1516 H         1 UNK         0.0600 
    148 H148        1.9627  -21.1554  -43.2181 H         1 UNK         0.0600 
    149 H149       -0.3168  -20.3023  -42.5825 H         1 UNK         0.3000 
    150 H150       -3.7297  -19.5791  -43.4780 H         1 UNK         0.0600 
    151 H151       -3.6991  -20.4731  -41.1432 H         1 UNK         0.0600 
    152 H152       -3.6624  -18.7165  -41.1623 H         1 UNK         0.0600 
    153 H153       -2.1901  -19.6246  -40.8284 H         1 UNK         0.0600 
    154 H154       -1.6898  -17.8621  -42.5309 H         1 UNK         0.3000 
    155 H155       -0.2822  -16.9850  -45.7212 H         1 UNK         0.0600 
    156 H156       -1.9682  -15.4763  -43.6587 H         1 UNK         0.0600 
    157 H157       -2.2232  -15.5035  -45.3963 H         1 UNK         0.0600 
    158 H158       -0.7848  -14.7383  -44.7364 H         1 UNK         0.0600 
    159 H159        0.4401  -16.1830  -43.0954 H         1 UNK         0.3000 
    160 H160        2.7553  -18.8307  -42.4181 H         1 UNK         0.0600 
    161 H161        3.1536  -15.8580  -43.0546 H         1 UNK         0.0600 
    162 H162        4.0013  -17.1963  -43.8134 H         1 UNK         0.0600 
    163 H163        4.2410  -16.8662  -42.1047 H         1 UNK         0.0600 
    164 H164        1.8500  -16.4679  -41.0136 H         1 UNK         0.3000 
    165 H165       -0.7329  -18.0964  -39.1700 H         1 UNK         0.0600 
    166 H166        0.6053  -17.2188  -37.2769 H         1 UNK         0.0600 
    167 H167        1.3827  -18.6405  -37.9543 H         1 UNK         0.0600 
    168 H168        2.0185  -17.0403  -38.3170 H         1 UNK         0.0600 
    169 H169        0.3167  -15.4311  -39.1322 H         1 UNK         0.3000 
    170 H170       -1.6978  -14.0856  -41.7304 H         1 UNK         0.0600 
    171 H171       -3.2882  -14.1974  -39.8049 H         1 UNK         0.0600 
    172 H172       -1.9942  -13.7546  -38.6978 H         1 UNK         0.0600 
    173 H173       -2.5393  -12.6140  -39.9284 H         1 UNK         0.0600 
    174 H174       -0.0265  -12.7767  -39.8841 H         1 UNK         0.3000 
    175 H175        1.8835  -11.7409  -40.9696 H         1 UNK         0.0600 
    176 H176        3.2576  -14.2625  -39.8442 H         1 UNK         0.0600 
    177 H177        3.7590  -12.6050  -39.5225 H         1 UNK         0.0600 
    178 H178        2.2153  -13.1816  -38.9254 H         1 UNK         0.0600 
    179 H179        3.0725  -13.6591  -42.7721 H         1 UNK         0.3000 
    180 H180        5.1816  -11.3504  -44.2191 H         1 UNK         0.0600 
    181 H181        6.4734  -13.4768  -42.4277 H         1 UNK         0.0600 
    182 H182        6.8756  -11.7642  -42.4466 H         1 UNK         0.0600 
    183 H183        7.2067  -12.7520  -43.8595 H         1 UNK         0.0600 
    184 H184        5.0688  -14.2673  -44.2510 H         1 UNK         0.3000 
    185 H185        4.2009  -15.3301  -45.9215 H         1 UNK         0.0600 
    186 H186        1.8481  -15.0143  -45.0122 H         1 UNK         0.0600 
    187 H187        1.3835  -14.3056  -46.5480 H         1 UNK         0.0600 
    188 H188        1.9208  -15.9858  -46.4755 H         1 UNK         0.0600 
    189 H189        2.9838  -14.4775  -48.3274 H         1 UNK         0.3000 
    190 H190       -2.1006  -20.3636  -46.4589 H         1 UNK         0.3000 
    191 H191       -3.6689  -21.2680  -48.6284 H         1 UNK         0.0600 
    192 H192       -4.4659  -20.7189  -45.7225 H         1 UNK         0.0600 
    193 H193       -5.5863  -20.8901  -47.0680 H         1 UNK         0.0600 
    194 H194       -4.4498  -19.5496  -47.0398 H         1 UNK         0.0600 
    195 H195       -2.9477  -22.8707  -45.4802 H         1 UNK         0.3000 
    196 H196       -4.4975  -25.1946  -45.8924 H         1 UNK         0.0600 
    197 H197       -3.0720  -26.1611  -44.0837 H         1 UNK         0.0600 
    198 H198       -3.6099  -24.5373  -43.6818 H         1 UNK         0.0600 
    199 H199       -1.9564  -24.8083  -44.2260 H         1 UNK         0.0600 
    200 H200       -1.0411  -24.5702  -46.6792 H         1 UNK         0.3000 
    201 H201       -0.4553  -27.1031  -47.8190 H         1 UNK         0.0600 
    202 H202        1.2880  -25.4840  -47.1257 H         1 UNK         0.0600 
    203 H203        0.7726  -24.3487  -48.3706 H         1 UNK         0.0600 
    204 H204        1.4888  -25.8911  -48.8234 H         1 UNK         0.0600 
    205 H205       -1.9710  -24.2183  -49.1911 H         1 UNK         0.3000 
    206 H206       -2.1637  -25.3059  -51.9052 H         1 UNK         0.0600 
    207 H207       -1.7550  -22.8853  -51.5180 H         1 UNK         0.0600 
    208 H208       -3.2708  -23.1372  -52.3645 H         1 UNK         0.0600 
    209 H209       -3.2761  -22.7505  -50.6443 H         1 UNK         0.0600 
    210 H210       -3.5762  -26.5663  -49.4173 H         1 UNK         0.3000 
    211 H211       -5.3661  -27.7804  -48.9937 H         1 UNK         0.0600 
    212 H212       -5.9777  -27.5933  -51.9913 H         1 UNK         0.0600 
    213 H213       -6.5971  -28.8022  -50.8760 H         1 UNK         0.0600 
    214 H214       -4.8801  -28.7505  -51.2404 H         1 UNK         0.0600 
    215 H215       -5.6694  -25.2784  -48.2301 H         1 UNK         0.3000 
    216 H216       -7.0762  -23.8313  -47.3464 H         1 UNK         0.0600 
    217 H217       -9.4925  -24.1672  -47.2062 H         1 UNK         0.0600 
    218 H218       -8.6890  -25.6980  -46.8973 H         1 UNK         0.0600 
    219 H219       -9.4609  -25.4001  -48.4548 H         1 UNK         0.0600 
    220 H220       -5.7407  -23.2682  -49.5275 H         1 UNK         0.3000 
    221 H221       -5.4056  -21.8487  -51.1956 H         1 UNK         0.0600 
    222 H222       -7.8171  -20.3542  -50.0437 H         1 UNK         0.0600 
    223 H223       -6.1516  -20.2157  -49.4829 H         1 UNK         0.0600 
    224 H224       -6.5876  -19.6634  -51.0895 H         1 UNK         0.0600 
    225 H225       -6.5276  -24.0743  -52.1716 H         1 UNK         0.3000 
    226 H226       -8.8965  -23.6843  -53.7700 H         1 UNK         0.0600 
    227 H227       -8.2586  -25.9016  -52.9017 H         1 UNK         0.0600 
    228 H228       -8.2698  -25.9345  -54.6588 H         1 UNK         0.0600 
    229 H229       -6.7399  -25.8598  -53.7923 H         1 UNK         0.0600 
    230 H230       -8.6325  -21.9294  -55.0848 H         1 UNK         0.3000 
    231 H231       -8.1502  -20.6700  -56.8293 H         1 UNK         0.0600 
    232 H232       -8.5588  -22.7457  -58.1749 H         1 UNK         0.0600 
    233 H233       -6.8357  -23.1162  -58.1233 H         1 UNK         0.0600 
    234 H234       -7.4050  -21.6721  -58.9473 H         1 UNK         0.0600 
    235 H235       -6.3865  -20.6506  -54.6041 H         1 UNK         0.3000 
    236 H236       -3.6353  -20.3915  -55.4870 H         1 UNK         0.0600 
    237 H237       -3.2783  -19.6559  -53.1311 H         1 UNK         0.0600 
    238 H238       -5.0154  -19.5655  -52.8761 H         1 UNK         0.0600 
    239 H239       -4.2421  -21.1223  -53.1843 H         1 UNK         0.0600 
    240 H240       -2.3750  -18.4478  -55.3060 H         1 UNK         0.3000 
    241 H241       -3.5228  -16.0836  -56.4539 H         1 UNK         0.0600 
    242 H242       -3.6934  -13.6952  -53.7968 H         1 UNK         0.3800 
    243 H243       -3.4509  -13.8586  -55.5116 H         1 UNK         0.3800 
    244 H244       -1.3019  -16.5939  -57.1152 H         1 UNK         0.0800 
    245 H245       -1.1682  -15.1569  -56.1573 H         1 UNK         0.0800 
    246 H246       -0.3981  -15.2459  -53.5267 H         1 UNK         0.0800 
    247 H247        0.9178  -14.9756  -54.6462 H         1 UNK         0.0800 
@<TRIPOS>BOND
     1    1    2 1    
     2    1  127 1    
     3    1  128 1    
     4    1  129 1    
     5    2    3 2    
     6    2    4 am   BACKBONE|DICT|INTERRES
     7    4    5 1    
     8    4  130 1    
     9    5    6 1    
    10    5   65 1    
    11    5  131 1    
    12    6    7 1    
    13    6  132 1    
    14    6  133 1    
    15    7    8 1    
    16    8    9 1    
    17    8  134 1    
    18    8  135 1    
    19    9   10 ar   
    20    9   14 ar   
    21   10   11 ar   
    22   10  136 1    
    23   11   12 ar   
    24   11  126 1    
    25   12   13 ar   
    26   12  137 1    
    27   13   14 ar   
    28   13   15 1    
    29   14  138 1    
    30   15   16 1    
    31   15  139 1    
    32   15  140 1    
    33   16   17 1    
    34   17   18 1    
    35   17  141 1    
    36   17  142 1    
    37   18   19 1    
    38   18   67 1    
    39   18  143 1    
    40   19   20 am   BACKBONE|DICT|INTERRES
    41   19  144 1    
    42   20   21 2    
    43   20   22 1    
    44   22   23 1    
    45   22   24 1    
    46   22  145 1    
    47   23  146 1    
    48   23  147 1    
    49   23  148 1    
    50   24   25 am   BACKBONE|DICT|INTERRES
    51   24  149 1    
    52   25   26 2    
    53   25   27 1    
    54   27   28 1    
    55   27   29 1    
    56   27  150 1    
    57   28  151 1    
    58   28  152 1    
    59   28  153 1    
    60   29   30 am   BACKBONE|DICT|INTERRES
    61   29  154 1    
    62   30   31 2    
    63   30   32 1    
    64   32   33 1    
    65   32   34 1    
    66   32  155 1    
    67   33  156 1    
    68   33  157 1    
    69   33  158 1    
    70   34   35 am   BACKBONE|DICT|INTERRES
    71   34  159 1    
    72   35   36 2    
    73   35   37 1    
    74   37   38 1    
    75   37   39 1    
    76   37  160 1    
    77   38  161 1    
    78   38  162 1    
    79   38  163 1    
    80   39   40 am   BACKBONE|DICT|INTERRES
    81   39  164 1    
    82   40   41 2    
    83   40   42 1    
    84   42   43 1    
    85   42   44 1    
    86   42  165 1    
    87   43  166 1    
    88   43  167 1    
    89   43  168 1    
    90   44   45 am   BACKBONE|DICT|INTERRES
    91   44  169 1    
    92   45   46 2    
    93   45   47 1    
    94   47   48 1    
    95   47   49 1    
    96   47  170 1    
    97   48  171 1    
    98   48  172 1    
    99   48  173 1    
   100   49   50 am   BACKBONE|DICT|INTERRES
   101   49  174 1    
   102   50   51 2    
   103   50   52 1    
   104   52   53 1    
   105   52   54 1    
   106   52  175 1    
   107   53  176 1    
   108   53  177 1    
   109   53  178 1    
   110   54   55 am   BACKBONE|DICT|INTERRES
   111   54  179 1    
   112   55   56 2    
   113   55   57 1    
   114   57   58 1    
   115   57   59 1    
   116   57  180 1    
   117   58  181 1    
   118   58  182 1    
   119   58  183 1    
   120   59   60 am   BACKBONE|DICT|INTERRES
   121   59  184 1    
   122   60   61 2    
   123   60   62 1    
   124   62   63 1    
   125   62   64 1    
   126   62  185 1    
   127   63  186 1    
   128   63  187 1    
   129   63  188 1    
   130   64   65 am   BACKBONE|DICT|INTERRES
   131   64  189 1    
   132   65   66 2    
   133   67   68 2    
   134   67   69 am   BACKBONE|DICT|INTERRES
   135   69   70 1    
   136   69  190 1    
   137   70   71 1    
   138   70   72 1    
   139   70  191 1    
   140   71  192 1    
   141   71  193 1    
   142   71  194 1    
   143   72   73 2    
   144   72   74 am   BACKBONE|DICT|INTERRES
   145   74   75 1    
   146   74  195 1    
   147   75   76 1    
   148   75   77 1    
   149   75  196 1    
   150   76  197 1    
   151   76  198 1    
   152   76  199 1    
   153   77   78 2    
   154   77   79 am   BACKBONE|DICT|INTERRES
   155   79   80 1    
   156   79  200 1    
   157   80   81 1    
   158   80   82 1    
   159   80  201 1    
   160   81  202 1    
   161   81  203 1    
   162   81  204 1    
   163   82   83 2    
   164   82   84 am   BACKBONE|DICT|INTERRES
   165   84   85 1    
   166   84  205 1    
   167   85   86 1    
   168   85   87 1    
   169   85  206 1    
   170   86  207 1    
   171   86  208 1    
   172   86  209 1    
   173   87   88 2    
   174   87   89 am   BACKBONE|DICT|INTERRES
   175   89   90 1    
   176   89  210 1    
   177   90   91 1    
   178   90   92 1    
   179   90  211 1    
   180   91  212 1    
   181   91  213 1    
   182   91  214 1    
   183   92   93 2    
   184   92   94 am   BACKBONE|DICT|INTERRES
   185   94   95 1    
   186   94  215 1    
   187   95   96 1    
   188   95   97 1    
   189   95  216 1    
   190   96  217 1    
   191   96  218 1    
   192   96  219 1    
   193   97   98 2    
   194   97   99 am   BACKBONE|DICT|INTERRES
   195   99  100 1    
   196   99  220 1    
   197  100  101 1    
   198  100  102 1    
   199  100  221 1    
   200  101  222 1    
   201  101  223 1    
   202  101  224 1    
   203  102  103 2    
   204  102  104 am   BACKBONE|DICT|INTERRES
   205  104  105 1    
   206  104  225 1    
   207  105  106 1    
   208  105  107 1    
   209  105  226 1    
   210  106  227 1    
   211  106  228 1    
   212  106  229 1    
   213  107  108 2    
   214  107  109 am   BACKBONE|DICT|INTERRES
   215  109  110 1    
   216  109  230 1    
   217  110  111 1    
   218  110  112 1    
   219  110  231 1    
   220  111  232 1    
   221  111  233 1    
   222  111  234 1    
   223  112  113 2    
   224  112  114 am   BACKBONE|DICT|INTERRES
   225  114  115 1    
   226  114  235 1    
   227  115  116 1    
   228  115  117 1    
   229  115  236 1    
   230  116  237 1    
   231  116  238 1    
   232  116  239 1    
   233  117  118 2    
   234  117  119 am   BACKBONE|DICT|INTERRES
   235  119  120 1    
   236  119  240 1    
   237  120  121 1    
   238  120  124 1    
   239  120  241 1    
   240  121  122 am   BACKBONE|DICT|INTERRES
   241  121  123 2    
   242  122  242 1    
   243  122  243 1    
   244  124  125 1    
   245  124  244 1    
   246  124  245 1    
   247  125  126 1    
   248  126  246 1    
   249  126  247 1    
@<TRIPOS>SUBSTRUCTURE
     1 UNK         1 GROUP             0       ****    0 ROOT    
