@<TRIPOS>MOLECULE
3R540
247   249    1
SMALL
USER_CHARGES


@<TRIPOS>ATOM
      1 CA          3.3960  -11.2052  -52.7757 C.3       0 UNK        -0.1800 
      2 C           4.3743  -11.9852  -51.9090 C.2       0 UNK         0.5000 
      3 O           5.5812  -11.9309  -52.1453 O.2       0 UNK        -0.5000 
      4 N           3.8591  -12.7099  -50.9080 N.am      1 UNK        -0.5000 
      5 CA          4.6409  -13.5113  -49.9573 C.3       1 UNK         0.1400 
      6 C6          3.7605  -14.5595  -49.2311 C.3       23 UNK        -0.0398 
      7 S7          2.3393  -13.8445  -48.3268 S.3       23 UNK        -0.2404 
      8 C8          1.6187  -15.3286  -47.5585 C.3       23 UNK        -0.0205 
      9 C9          1.1328  -16.3278  -48.5988 C.ar      23 UNK        -0.0193 
     10 C10        -0.0090  -16.0634  -49.3610 C.ar      23 UNK        -0.1150 
     11 C11        -0.4333  -16.9591  -50.3488 C.ar      23 UNK        -0.0193 
     12 C12         0.3020  -18.1313  -50.5668 C.ar      23 UNK        -0.1150 
     13 C13         1.4343  -18.4166  -49.7958 C.ar      23 UNK        -0.0193 
     14 C14         1.8400  -17.5127  -48.8112 C.ar      23 UNK        -0.1150 
     15 C15         2.2458  -19.6834  -50.0367 C.3       23 UNK        -0.0205 
     16 S16         1.3358  -21.2086  -49.6352 S.3       23 UNK        -0.2404 
     17 C17         0.6811  -20.8431  -47.9724 C.3       23 UNK        -0.0398 
     18 CA          0.2129  -22.1059  -47.2116 C.3       11 UNK         0.1400 
     19 N          -0.0137  -21.8302  -45.7930 N.am      11 UNK        -0.5000 
     20 C          -0.2817  -22.7563  -44.8621 C.2       10 UNK         0.5000 
     21 O          -0.2945  -23.9666  -45.0843 O.2       10 UNK        -0.5000 
     22 CA         -0.6596  -22.2382  -43.4629 C.3       10 UNK         0.1400 
     23 CB          0.5945  -21.8742  -42.6553 C.3       10 UNK        -0.1800 
     24 N          -1.5678  -21.0903  -43.5231 N.am      10 UNK        -0.5000 
     25 C          -2.8096  -21.1411  -44.0284 C.2       9 UNK         0.5000 
     26 O          -3.3367  -22.1780  -44.4315 O.2       9 UNK        -0.5000 
     27 CA         -3.5786  -19.8121  -44.1392 C.3       9 UNK         0.1400 
     28 CB         -4.2141  -19.4362  -42.7928 C.3       9 UNK        -0.1800 
     29 N          -2.7409  -18.7097  -44.6094 N.am      9 UNK        -0.5000 
     30 C          -2.1778  -18.6367  -45.8237 C.2       8 UNK         0.5000 
     31 O          -2.3323  -19.4850  -46.7019 O.2       8 UNK        -0.5000 
     32 CA         -1.2247  -17.4519  -46.0719 C.3       8 UNK         0.1400 
     33 CB         -1.9968  -16.1563  -46.3675 C.3       8 UNK        -0.1800 
     34 N          -0.3169  -17.2313  -44.9458 N.am      8 UNK        -0.5000 
     35 C           0.6087  -18.1094  -44.5354 C.2       7 UNK         0.5000 
     36 O           0.8373  -19.1778  -45.0997 O.2       7 UNK        -0.5000 
     37 CA          1.3701  -17.7577  -43.2477 C.3       7 UNK         0.1400 
     38 CB          2.5861  -16.8723  -43.5580 C.3       7 UNK        -0.1800 
     39 N           0.5009  -17.0946  -42.2747 N.am      7 UNK        -0.5000 
     40 C          -0.4616  -17.7219  -41.5817 C.2       6 UNK         0.5000 
     41 O          -0.6783  -18.9309  -41.6602 O.2       6 UNK        -0.5000 
     42 CA         -1.3635  -16.8479  -40.6886 C.3       6 UNK         0.1400 
     43 CB         -0.7056  -16.6130  -39.3209 C.3       6 UNK        -0.1800 
     44 N          -1.6832  -15.5570  -41.2993 N.am      6 UNK        -0.5000 
     45 C          -2.3924  -15.4041  -42.4268 C.2       5 UNK         0.5000 
     46 O          -2.9259  -16.3382  -43.0219 O.2       5 UNK        -0.5000 
     47 CA         -2.4782  -13.9830  -43.0199 C.3       5 UNK         0.1400 
     48 CB         -3.7824  -13.2988  -42.5856 C.3       5 UNK        -0.1800 
     49 N          -1.3422  -13.1230  -42.6706 N.am      5 UNK        -0.5000 
     50 C          -0.0618  -13.3761  -42.9740 C.2       4 UNK         0.5000 
     51 O           0.3052  -14.3795  -43.5908 O.2       4 UNK        -0.5000 
     52 CA          0.9687  -12.3787  -42.4107 C.3       4 UNK         0.1400 
     53 CB          1.1192  -12.5755  -40.8925 C.3       4 UNK        -0.1800 
     54 N           2.2921  -12.5096  -43.0195 N.am      4 UNK        -0.5000 
     55 C           2.6023  -12.1770  -44.2773 C.2       3 UNK         0.5000 
     56 O           1.7971  -11.7061  -45.0858 O.2       3 UNK        -0.5000 
     57 CA          4.0712  -12.3890  -44.6776 C.3       3 UNK         0.1400 
     58 CB          4.4138  -13.8834  -44.8011 C.3       3 UNK        -0.1800 
     59 N           4.3322  -11.7389  -45.9568 N.am      3 UNK        -0.5000 
     60 C           5.4164  -11.0178  -46.2637 C.2       2 UNK         0.5000 
     61 O           6.3395  -10.8007  -45.4757 O.2       2 UNK        -0.5000 
     62 CA          5.4710  -10.4629  -47.7049 C.3       2 UNK         0.1400 
     63 CB          6.8688   -9.9470  -48.1067 C.3       2 UNK        -0.1800 
     64 N           4.9642  -11.4218  -48.6947 N.am      2 UNK        -0.5000 
     65 C           5.4362  -12.6546  -48.9475 C.2       1 UNK         0.5000 
     66 O           6.4391  -13.1338  -48.4164 O.2       1 UNK        -0.5000 
     67 C          -1.0240  -22.7624  -47.8618 C.2       11 UNK         0.5000 
     68 O          -0.8746  -23.7852  -48.5273 O.2       11 UNK        -0.5000 
     69 N          -2.2205  -22.2091  -47.6122 N.am      12 UNK        -0.5000 
     70 CA         -3.4993  -22.7327  -48.1011 C.3       12 UNK         0.1400 
     71 CB         -4.6283  -21.7551  -47.7447 C.3       12 UNK        -0.1800 
     72 C          -3.8342  -24.1481  -47.5993 C.2       12 UNK         0.5000 
     73 O          -4.4455  -24.9223  -48.3351 O.2       12 UNK        -0.5000 
     74 N          -3.4257  -24.4675  -46.3652 N.am      13 UNK        -0.5000 
     75 CA         -3.5363  -25.8071  -45.7925 C.3       13 UNK         0.1400 
     76 CB         -3.3499  -25.7251  -44.2696 C.3       13 UNK        -0.1800 
     77 C          -2.5318  -26.7958  -46.4161 C.2       13 UNK         0.5000 
     78 O          -2.8716  -27.9642  -46.6071 O.2       13 UNK        -0.5000 
     79 N          -1.3148  -26.3177  -46.7057 N.am      14 UNK        -0.5000 
     80 CA         -0.2132  -27.1161  -47.2369 C.3       14 UNK         0.1400 
     81 CB          1.1170  -26.4097  -46.9297 C.3       14 UNK        -0.1800 
     82 C          -0.3329  -27.4076  -48.7436 C.2       14 UNK         0.5000 
     83 O          -0.1294  -28.5533  -49.1489 O.2       14 UNK        -0.5000 
     84 N          -0.6178  -26.3750  -49.5461 N.am      15 UNK        -0.5000 
     85 CA         -0.5768  -26.4185  -51.0053 C.3       15 UNK         0.1400 
     86 CB          0.4064  -25.3460  -51.5036 C.3       15 UNK        -0.1800 
     87 C          -1.9686  -26.1735  -51.6005 C.2       15 UNK         0.5000 
     88 O          -2.6137  -25.1757  -51.2739 O.2       15 UNK        -0.5000 
     89 N          -2.3745  -27.0473  -52.5317 N.am      16 UNK        -0.5000 
     90 CA         -3.6369  -26.9622  -53.2737 C.3       16 UNK         0.1400 
     91 CB         -3.8341  -28.2544  -54.0800 C.3       16 UNK        -0.1800 
     92 C          -3.7324  -25.7309  -54.1974 C.2       16 UNK         0.5000 
     93 O          -4.8367  -25.2620  -54.4704 O.2       16 UNK        -0.5000 
     94 N          -2.5792  -25.2087  -54.6380 N.am      17 UNK        -0.5000 
     95 CA         -2.4743  -23.9715  -55.4134 C.3       17 UNK         0.1400 
     96 CB         -1.0516  -23.8521  -55.9804 C.3       17 UNK        -0.1800 
     97 C          -2.8329  -22.7209  -54.5872 C.2       17 UNK         0.5000 
     98 O          -3.3985  -21.7748  -55.1339 O.2       17 UNK        -0.5000 
     99 N          -2.5129  -22.7472  -53.2868 N.am      18 UNK        -0.5000 
    100 CA        -2.8121  -21.6774  -52.3359 C.3       18 UNK         0.1400 
    101 CB        -1.7092  -21.6439  -51.2757 C.3       18 UNK        -0.1800 
    102 C         -4.1998  -21.8390  -51.6922 C.2       18 UNK         0.5000 
    103 O         -4.7675  -20.8559  -51.2172 O.2       18 UNK        -0.5000 
    104 N         -4.7600  -23.0587  -51.7203 N.am      19 UNK        -0.5000 
    105 CA        -6.1314  -23.3580  -51.2905 C.3       19 UNK         0.1400 
    106 CB        -6.3841  -24.8698  -51.3684 C.3       19 UNK        -0.1800 
    107 C         -7.2002  -22.5787  -52.0864 C.2       19 UNK         0.5000 
    108 O         -8.3025  -22.3646  -51.5798 O.2       19 UNK        -0.5000 
    109 N         -6.8311  -22.1009  -53.2836 N.am      20 UNK        -0.5000 
    110 CA        -7.5329  -21.0900  -54.0698 C.3       20 UNK         0.1400 
    111 CB        -7.0038  -21.1367  -55.5139 C.3       20 UNK        -0.1800 
    112 C         -7.4216  -19.6808  -53.4369 C.2       20 UNK         0.5000 
    113 O         -6.8784  -18.7595  -54.0486 O.2       20 UNK        -0.5000 
    114 N         -7.9796  -19.5472  -52.2280 N.am      21 UNK        -0.5000 
    115 CA        -8.2777  -18.3109  -51.5036 C.3       21 UNK         0.1400 
    116 CB        -9.2307  -17.4123  -52.3234 C.3       21 UNK        -0.1800 
    117 C         -7.0772  -17.5350  -50.9166 C.2       21 UNK         0.5000 
    118 O         -7.2262  -16.3372  -50.6629 O.2       21 UNK        -0.5000 
    119 N         -5.9459  -18.1972  -50.6202 N.am      22 UNK        -0.5000 
    120 CA        -4.9425  -17.6315  -49.6878 C.3       22 UNK         0.1400 
    121 C         -5.4024  -17.6902  -48.1994 C.2       22 UNK         0.5000 
    122 N         -6.3226  -18.5700  -47.8188 N.am      22 UNK        -0.7600 
    123 O         -4.9432  -16.9018  -47.3813 O.2       22 UNK        -0.5000 
    124 C124       -3.5202  -18.2329  -49.8353 C.3       23 UNK        -0.0398 
    125 S125       -2.8021  -17.9911  -51.4938 S.3       23 UNK        -0.2404 
    126 C126       -1.6443  -16.6085  -51.2121 C.3       23 UNK        -0.0205 
    127 H127        2.3644  -11.3493  -52.4533 H         1 UNK         0.0600 
    128 H128        3.4755  -11.5270  -53.8141 H         1 UNK         0.0600 
    129 H129        3.6209  -10.1396  -52.7295 H         1 UNK         0.0600 
    130 H130        2.8591  -12.7216  -50.7612 H         1 UNK         0.3000 
    131 H131        5.3831  -14.0657  -50.5360 H         1 UNK         0.0600 
    132 H132        4.3601  -15.1530  -48.5382 H         1 UNK         0.0800 
    133 H133        3.3751  -15.2653  -49.9679 H         1 UNK         0.0800 
    134 H134        0.7898  -15.0227  -46.9222 H         1 UNK         0.0800 
    135 H135        2.3528  -15.7879  -46.8952 H         1 UNK         0.0800 
    136 H136       -0.5512  -15.1424  -49.1980 H         1 UNK         0.1150 
    137 H137       -0.0037  -18.8236  -51.3386 H         1 UNK         0.1150 
    138 H138        2.7208  -17.7222  -48.2207 H         1 UNK         0.1150 
    139 H139        2.5470  -19.7193  -51.0844 H         1 UNK         0.0800 
    140 H140        3.1691  -19.6669  -49.4556 H         1 UNK         0.0800 
    141 H141       -0.1267  -20.1152  -48.0599 H         1 UNK         0.0800 
    142 H142        1.4752  -20.3511  -47.4094 H         1 UNK         0.0800 
    143 H143        1.0245  -22.8353  -47.2552 H         1 UNK         0.0600 
    144 H144        0.0315  -20.8543  -45.5121 H         1 UNK         0.3000 
    145 H145       -1.1766  -23.0449  -42.9392 H         1 UNK         0.0600 
    146 H146        0.3355  -21.5668  -41.6420 H         1 UNK         0.0600 
    147 H147        1.1524  -21.0615  -43.1198 H         1 UNK         0.0600 
    148 H148        1.2669  -22.7290  -42.5741 H         1 UNK         0.0600 
    149 H149       -1.2215  -20.2124  -43.1509 H         1 UNK         0.3000 
    150 H150       -4.3810  -19.9510  -44.8664 H         1 UNK         0.0600 
    151 H151       -4.8613  -20.2353  -42.4293 H         1 UNK         0.0600 
    152 H152       -4.8250  -18.5378  -42.8836 H         1 UNK         0.0600 
    153 H153       -3.4588  -19.2501  -42.0287 H         1 UNK         0.0600 
    154 H154       -2.6146  -17.9308  -43.9681 H         1 UNK         0.3000 
    155 H155       -0.6139  -17.6961  -46.9419 H         1 UNK         0.0600 
    156 H156       -2.4098  -16.1798  -47.3750 H         1 UNK         0.0600 
    157 H157       -1.3615  -15.2746  -46.3037 H         1 UNK         0.0600 
    158 H158       -2.8290  -16.0108  -45.6789 H         1 UNK         0.0600 
    159 H159       -0.4199  -16.3670  -44.4297 H         1 UNK         0.3000 
    160 H160        1.7350  -18.6868  -42.8053 H         1 UNK         0.0600 
    161 H161        2.2985  -15.9495  -44.0607 H         1 UNK         0.0600 
    162 H162        3.2860  -17.3922  -44.2132 H         1 UNK         0.0600 
    163 H163        3.1260  -16.6071  -42.6491 H         1 UNK         0.0600 
    164 H164        0.5663  -16.0864  -42.2280 H         1 UNK         0.3000 
    165 H165       -2.2993  -17.3883  -40.5308 H         1 UNK         0.0600 
    166 H166       -1.3688  -16.0623  -38.6537 H         1 UNK         0.0600 
    167 H167       -0.4699  -17.5603  -38.8340 H         1 UNK         0.0600 
    168 H168        0.2242  -16.0498  -39.4112 H         1 UNK         0.0600 
    169 H169       -1.2888  -14.7360  -40.8658 H         1 UNK         0.3000 
    170 H170       -2.4913  -14.0843  -44.1066 H         1 UNK         0.0600 
    171 H171       -3.8153  -13.1423  -41.5066 H         1 UNK         0.0600 
    172 H172       -3.9007  -12.3296  -43.0705 H         1 UNK         0.0600 
    173 H173       -4.6492  -13.9034  -42.8564 H         1 UNK         0.0600 
    174 H174       -1.5624  -12.2866  -42.1492 H         1 UNK         0.3000 
    175 H175        0.6038  -11.3673  -42.6016 H         1 UNK         0.0600 
    176 H176        1.4722  -13.5788  -40.6495 H         1 UNK         0.0600 
    177 H177        1.8266  -11.8610  -40.4708 H         1 UNK         0.0600 
    178 H178        0.1707  -12.4272  -40.3749 H         1 UNK         0.0600 
    179 H179        3.0089  -12.9130  -42.4349 H         1 UNK         0.3000 
    180 H180        4.6914  -11.9427  -43.8974 H         1 UNK         0.0600 
    181 H181        5.4478  -14.0253  -45.1162 H         1 UNK         0.0600 
    182 H182        3.7737  -14.3818  -45.5286 H         1 UNK         0.0600 
    183 H183        4.2942  -14.3964  -43.8468 H         1 UNK         0.0600 
    184 H184        3.5857  -11.8236  -46.6343 H         1 UNK         0.3000 
    185 H185        4.7896   -9.6113  -47.7263 H         1 UNK         0.0600 
    186 H186        6.8671   -9.5581  -49.1250 H         1 UNK         0.0600 
    187 H187        7.1892   -9.1365  -47.4512 H         1 UNK         0.0600 
    188 H188        7.6240  -10.7313  -48.0489 H         1 UNK         0.0600 
    189 H189        4.1316  -11.1388  -49.1919 H         1 UNK         0.3000 
    190 H190       -2.2592  -21.3389  -47.0871 H         1 UNK         0.3000 
    191 H191       -3.4271  -22.7957  -49.1851 H         1 UNK         0.0600 
    192 H192       -4.4409  -20.7676  -48.1604 H         1 UNK         0.0600 
    193 H193       -4.7417  -21.6459  -46.6668 H         1 UNK         0.0600 
    194 H194       -5.5846  -22.0971  -48.1404 H         1 UNK         0.0600 
    195 H195       -3.0010  -23.7488  -45.7896 H         1 UNK         0.3000 
    196 H196       -4.5423  -26.1841  -45.9883 H         1 UNK         0.0600 
    197 H197       -4.0907  -25.0653  -43.8174 H         1 UNK         0.0600 
    198 H198       -2.3621  -25.3492  -44.0025 H         1 UNK         0.0600 
    199 H199       -3.4631  -26.7074  -43.8094 H         1 UNK         0.0600 
    200 H200       -1.1096  -25.3481  -46.4927 H         1 UNK         0.3000 
    201 H201       -0.2039  -28.0754  -46.7149 H         1 UNK         0.0600 
    202 H202        1.2561  -26.2826  -45.8560 H         1 UNK         0.0600 
    203 H203        1.1655  -25.4227  -47.3909 H         1 UNK         0.0600 
    204 H204        1.9633  -26.9887  -47.3014 H         1 UNK         0.0600 
    205 H205       -0.8117  -25.4603  -49.1375 H         1 UNK         0.3000 
    206 H206       -0.2139  -27.3882  -51.3519 H         1 UNK         0.0600 
    207 H207        0.1167  -24.3472  -51.1742 H         1 UNK         0.0600 
    208 H208        1.4138  -25.5361  -51.1331 H         1 UNK         0.0600 
    209 H209        0.4575  -25.3325  -52.5929 H         1 UNK         0.0600 
    210 H210       -1.7812  -27.8342  -52.7530 H         1 UNK         0.3000 
    211 H211       -4.4466  -26.8893  -52.5454 H         1 UNK         0.0600 
    212 H212       -3.0385  -28.3979  -54.8122 H         1 UNK         0.0600 
    213 H213       -4.7803  -28.2357  -54.6227 H         1 UNK         0.0600 
    214 H214       -3.8533  -29.1278  -53.4279 H         1 UNK         0.0600 
    215 H215       -1.7163  -25.6681  -54.3882 H         1 UNK         0.3000 
    216 H216       -3.1733  -24.0302  -56.2505 H         1 UNK         0.0600 
    217 H217       -0.9462  -22.9482  -56.5818 H         1 UNK         0.0600 
    218 H218       -0.8109  -24.6987  -56.6237 H         1 UNK         0.0600 
    219 H219       -0.3033  -23.8081  -55.1879 H         1 UNK         0.0600 
    220 H220       -2.0926  -23.5817  -52.9020 H         1 UNK         0.3000 
    221 H221       -2.8064  -20.7166  -52.8546 H         1 UNK         0.0600 
    222 H222       -1.9129  -20.8991  -50.5059 H         1 UNK         0.0600 
    223 H223       -1.6018  -22.6096  -50.7848 H         1 UNK         0.0600 
    224 H224       -0.7507  -21.3908  -51.7276 H         1 UNK         0.0600 
    225 H225       -4.2018  -23.8385  -52.0421 H         1 UNK         0.3000 
    226 H226       -6.2171  -23.0554  -50.2458 H         1 UNK         0.0600 
    227 H227       -5.6165  -25.4281  -50.8320 H         1 UNK         0.0600 
    228 H228       -7.3441  -25.1239  -50.9179 H         1 UNK         0.0600 
    229 H229       -6.4065  -25.2240  -52.3981 H         1 UNK         0.0600 
    230 H230       -5.8990  -22.3283  -53.5983 H         1 UNK         0.3000 
    231 H231       -8.5930  -21.3503  -54.0975 H         1 UNK         0.0600 
    232 H232       -7.5435  -20.4346  -56.1506 H         1 UNK         0.0600 
    233 H233       -7.1269  -22.1290  -55.9483 H         1 UNK         0.0600 
    234 H234       -5.9455  -20.8784  -55.5633 H         1 UNK         0.0600 
    235 H235       -8.3335  -20.3981  -51.8008 H         1 UNK         0.3000 
    236 H236       -8.8418  -18.6374  -50.6290 H         1 UNK         0.0600 
    237 H237       -8.7291  -16.9712  -53.1852 H         1 UNK         0.0600 
    238 H238      -10.0908  -17.9750  -52.6865 H         1 UNK         0.0600 
    239 H239       -9.6190  -16.5922  -51.7183 H         1 UNK         0.0600 
    240 H240       -5.8178  -19.1672  -50.8920 H         1 UNK         0.3000 
    241 H241       -4.8370  -16.5694  -49.9182 H         1 UNK         0.0600 
    242 H242       -6.6227  -18.5791  -46.8576 H         1 UNK         0.3800 
    243 H243       -6.7178  -19.2229  -48.4744 H         1 UNK         0.3800 
    244 H244       -3.5294  -19.2992  -49.6191 H         1 UNK         0.0800 
    245 H245       -2.8425  -17.7990  -49.0990 H         1 UNK         0.0800 
    246 H246       -2.2003  -15.7763  -50.7774 H         1 UNK         0.0800 
    247 H247       -1.2817  -16.2613  -52.1801 H         1 UNK         0.0800 
@<TRIPOS>BOND
     1    1    2 1    
     2    1  127 1    
     3    1  128 1    
     4    1  129 1    
     5    2    3 2    
     6    2    4 am   BACKBONE|DICT|INTERRES
     7    4    5 1    
     8    4  130 1    
     9    5    6 1    
    10    5   65 1    
    11    5  131 1    
    12    6    7 1    
    13    6  132 1    
    14    6  133 1    
    15    7    8 1    
    16    8    9 1    
    17    8  134 1    
    18    8  135 1    
    19    9   10 ar   
    20    9   14 ar   
    21   10   11 ar   
    22   10  136 1    
    23   11   12 ar   
    24   11  126 1    
    25   12   13 ar   
    26   12  137 1    
    27   13   14 ar   
    28   13   15 1    
    29   14  138 1    
    30   15   16 1    
    31   15  139 1    
    32   15  140 1    
    33   16   17 1    
    34   17   18 1    
    35   17  141 1    
    36   17  142 1    
    37   18   19 1    
    38   18   67 1    
    39   18  143 1    
    40   19   20 am   BACKBONE|DICT|INTERRES
    41   19  144 1    
    42   20   21 2    
    43   20   22 1    
    44   22   23 1    
    45   22   24 1    
    46   22  145 1    
    47   23  146 1    
    48   23  147 1    
    49   23  148 1    
    50   24   25 am   BACKBONE|DICT|INTERRES
    51   24  149 1    
    52   25   26 2    
    53   25   27 1    
    54   27   28 1    
    55   27   29 1    
    56   27  150 1    
    57   28  151 1    
    58   28  152 1    
    59   28  153 1    
    60   29   30 am   BACKBONE|DICT|INTERRES
    61   29  154 1    
    62   30   31 2    
    63   30   32 1    
    64   32   33 1    
    65   32   34 1    
    66   32  155 1    
    67   33  156 1    
    68   33  157 1    
    69   33  158 1    
    70   34   35 am   BACKBONE|DICT|INTERRES
    71   34  159 1    
    72   35   36 2    
    73   35   37 1    
    74   37   38 1    
    75   37   39 1    
    76   37  160 1    
    77   38  161 1    
    78   38  162 1    
    79   38  163 1    
    80   39   40 am   BACKBONE|DICT|INTERRES
    81   39  164 1    
    82   40   41 2    
    83   40   42 1    
    84   42   43 1    
    85   42   44 1    
    86   42  165 1    
    87   43  166 1    
    88   43  167 1    
    89   43  168 1    
    90   44   45 am   BACKBONE|DICT|INTERRES
    91   44  169 1    
    92   45   46 2    
    93   45   47 1    
    94   47   48 1    
    95   47   49 1    
    96   47  170 1    
    97   48  171 1    
    98   48  172 1    
    99   48  173 1    
   100   49   50 am   BACKBONE|DICT|INTERRES
   101   49  174 1    
   102   50   51 2    
   103   50   52 1    
   104   52   53 1    
   105   52   54 1    
   106   52  175 1    
   107   53  176 1    
   108   53  177 1    
   109   53  178 1    
   110   54   55 am   BACKBONE|DICT|INTERRES
   111   54  179 1    
   112   55   56 2    
   113   55   57 1    
   114   57   58 1    
   115   57   59 1    
   116   57  180 1    
   117   58  181 1    
   118   58  182 1    
   119   58  183 1    
   120   59   60 am   BACKBONE|DICT|INTERRES
   121   59  184 1    
   122   60   61 2    
   123   60   62 1    
   124   62   63 1    
   125   62   64 1    
   126   62  185 1    
   127   63  186 1    
   128   63  187 1    
   129   63  188 1    
   130   64   65 am   BACKBONE|DICT|INTERRES
   131   64  189 1    
   132   65   66 2    
   133   67   68 2    
   134   67   69 am   BACKBONE|DICT|INTERRES
   135   69   70 1    
   136   69  190 1    
   137   70   71 1    
   138   70   72 1    
   139   70  191 1    
   140   71  192 1    
   141   71  193 1    
   142   71  194 1    
   143   72   73 2    
   144   72   74 am   BACKBONE|DICT|INTERRES
   145   74   75 1    
   146   74  195 1    
   147   75   76 1    
   148   75   77 1    
   149   75  196 1    
   150   76  197 1    
   151   76  198 1    
   152   76  199 1    
   153   77   78 2    
   154   77   79 am   BACKBONE|DICT|INTERRES
   155   79   80 1    
   156   79  200 1    
   157   80   81 1    
   158   80   82 1    
   159   80  201 1    
   160   81  202 1    
   161   81  203 1    
   162   81  204 1    
   163   82   83 2    
   164   82   84 am   BACKBONE|DICT|INTERRES
   165   84   85 1    
   166   84  205 1    
   167   85   86 1    
   168   85   87 1    
   169   85  206 1    
   170   86  207 1    
   171   86  208 1    
   172   86  209 1    
   173   87   88 2    
   174   87   89 am   BACKBONE|DICT|INTERRES
   175   89   90 1    
   176   89  210 1    
   177   90   91 1    
   178   90   92 1    
   179   90  211 1    
   180   91  212 1    
   181   91  213 1    
   182   91  214 1    
   183   92   93 2    
   184   92   94 am   BACKBONE|DICT|INTERRES
   185   94   95 1    
   186   94  215 1    
   187   95   96 1    
   188   95   97 1    
   189   95  216 1    
   190   96  217 1    
   191   96  218 1    
   192   96  219 1    
   193   97   98 2    
   194   97   99 am   BACKBONE|DICT|INTERRES
   195   99  100 1    
   196   99  220 1    
   197  100  101 1    
   198  100  102 1    
   199  100  221 1    
   200  101  222 1    
   201  101  223 1    
   202  101  224 1    
   203  102  103 2    
   204  102  104 am   BACKBONE|DICT|INTERRES
   205  104  105 1    
   206  104  225 1    
   207  105  106 1    
   208  105  107 1    
   209  105  226 1    
   210  106  227 1    
   211  106  228 1    
   212  106  229 1    
   213  107  108 2    
   214  107  109 am   BACKBONE|DICT|INTERRES
   215  109  110 1    
   216  109  230 1    
   217  110  111 1    
   218  110  112 1    
   219  110  231 1    
   220  111  232 1    
   221  111  233 1    
   222  111  234 1    
   223  112  113 2    
   224  112  114 am   BACKBONE|DICT|INTERRES
   225  114  115 1    
   226  114  235 1    
   227  115  116 1    
   228  115  117 1    
   229  115  236 1    
   230  116  237 1    
   231  116  238 1    
   232  116  239 1    
   233  117  118 2    
   234  117  119 am   BACKBONE|DICT|INTERRES
   235  119  120 1    
   236  119  240 1    
   237  120  121 1    
   238  120  124 1    
   239  120  241 1    
   240  121  122 am   BACKBONE|DICT|INTERRES
   241  121  123 2    
   242  122  242 1    
   243  122  243 1    
   244  124  125 1    
   245  124  244 1    
   246  124  245 1    
   247  125  126 1    
   248  126  246 1    
   249  126  247 1    
@<TRIPOS>SUBSTRUCTURE
     1 UNK         1 GROUP             0       ****    0 ROOT    
