@<TRIPOS>MOLECULE
3R540
247   249    1
SMALL
USER_CHARGES


@<TRIPOS>ATOM
      1 CA         -1.6579  -12.9597  -46.7589 C.3       0 UNK        -0.1800 
      2 C          -0.6619  -12.1968  -47.6184 C.2       0 UNK         0.5000 
      3 O          -1.0350  -11.6803  -48.6717 O.2       0 UNK        -0.5000 
      4 N           0.5973  -12.1358  -47.1753 N.am      1 UNK        -0.5000 
      5 CA          1.7047  -11.4677  -47.8640 C.3       1 UNK         0.1400 
      6 C6          2.8353  -12.4667  -48.2214 C.3       23 UNK        -0.0398 
      7 S7          2.3108  -13.6819  -49.4758 S.3       23 UNK        -0.2404 
      8 C8          1.9177  -15.0986  -48.4088 C.3       23 UNK        -0.0205 
      9 C9          1.1904  -16.1933  -49.1689 C.ar      23 UNK        -0.0193 
     10 C10        -0.1462  -16.0187  -49.5347 C.ar      23 UNK        -0.1150 
     11 C11        -0.8476  -17.0431  -50.1760 C.ar      23 UNK        -0.0193 
     12 C12        -0.1949  -18.2455  -50.4694 C.ar      23 UNK        -0.1150 
     13 C13         1.1478  -18.4259  -50.1177 C.ar      23 UNK        -0.0193 
     14 C14         1.8343  -17.3954  -49.4694 C.ar      23 UNK        -0.1150 
     15 C15         1.8667  -19.7310  -50.4255 C.3       23 UNK        -0.0205 
     16 S16         1.9861  -20.8021  -48.9554 S.3       23 UNK        -0.2404 
     17 C17         0.2699  -21.3939  -48.8413 C.3       23 UNK        -0.0398 
     18 CA          0.0997  -22.5696  -47.8496 C.3       11 UNK         0.1400 
     19 N           0.1603  -22.1410  -46.4481 N.am      11 UNK        -0.5000 
     20 C           0.1262  -22.9711  -45.3942 C.2       10 UNK         0.5000 
     21 O           0.0978  -24.1985  -45.4885 O.2       10 UNK        -0.5000 
     22 CA          0.0524  -22.3257  -43.9987 C.3       10 UNK         0.1400 
     23 CB          1.4213  -21.7788  -43.5674 C.3       10 UNK        -0.1800 
     24 N          -0.9527  -21.2654  -43.9220 N.am      10 UNK        -0.5000 
     25 C          -2.2673  -21.4434  -44.1177 C.2       9 UNK         0.5000 
     26 O          -2.7856  -22.5346  -44.3463 O.2       9 UNK        -0.5000 
     27 CA         -3.1484  -20.1834  -44.1102 C.3       9 UNK         0.1400 
     28 CB         -3.4904  -19.7517  -42.6762 C.3       9 UNK        -0.1800 
     29 N          -2.5249  -19.0733  -44.8272 N.am      9 UNK        -0.5000 
     30 C          -2.2729  -19.0694  -46.1437 C.2       8 UNK         0.5000 
     31 O          -2.5687  -19.9890  -46.9069 O.2       8 UNK        -0.5000 
     32 CA         -1.5203  -17.8454  -46.6845 C.3       8 UNK         0.1400 
     33 CB         -2.4818  -16.6638  -46.8740 C.3       8 UNK        -0.1800 
     34 N          -0.4106  -17.4483  -45.8177 N.am      8 UNK        -0.5000 
     35 C           0.6824  -18.2003  -45.6149 C.2       7 UNK         0.5000 
     36 O           0.8699  -19.2906  -46.1519 O.2       7 UNK        -0.5000 
     37 CA          1.7056  -17.6842  -44.5853 C.3       7 UNK         0.1400 
     38 CB          2.7064  -16.7212  -45.2389 C.3       7 UNK        -0.1800 
     39 N           1.0788  -17.0234  -43.4412 N.am      7 UNK        -0.5000 
     40 C           0.2209  -17.6100  -42.5945 C.2       6 UNK         0.5000 
     41 O          -0.0855  -18.8003  -42.6545 O.2       6 UNK        -0.5000 
     42 CA         -0.4331  -16.7185  -41.5226 C.3       6 UNK         0.1400 
     43 CB          0.2356  -16.9469  -40.1591 C.3       6 UNK        -0.1800 
     44 N          -0.4017  -15.2864  -41.8325 N.am      6 UNK        -0.5000 
     45 C          -1.0304  -14.6910  -42.8579 C.2       5 UNK         0.5000 
     46 O          -1.6853  -15.2980  -43.7052 O.2       5 UNK        -0.5000 
     47 CA         -0.8533  -13.1654  -42.9690 C.3       5 UNK         0.1400 
     48 CB         -1.9100  -12.4349  -42.1276 C.3       5 UNK        -0.1800 
     49 N           0.4841  -12.7480  -42.5447 N.am      5 UNK        -0.5000 
     50 C           1.5823  -12.8763  -43.2985 C.2       4 UNK         0.5000 
     51 O           1.5742  -13.2518  -44.4751 O.2       4 UNK        -0.5000 
     52 CA          2.9161  -12.5943  -42.5970 C.3       4 UNK         0.1400 
     53 CB          3.5351  -13.9103  -42.0878 C.3       4 UNK        -0.1800 
     54 N           3.8161  -11.9313  -43.5322 N.am      4 UNK        -0.5000 
     55 C           4.9268  -11.2605  -43.1957 C.2       3 UNK         0.5000 
     56 O           5.3397  -11.1521  -42.0406 O.2       3 UNK        -0.5000 
     57 CA          5.6798  -10.5580  -44.3338 C.3       3 UNK         0.1400 
     58 CB          6.5073  -11.5654  -45.1542 C.3       3 UNK        -0.1800 
     59 N           4.7237   -9.8567  -45.1824 N.am      3 UNK        -0.5000 
     60 C           4.9830   -8.8956  -46.0715 C.2       2 UNK         0.5000 
     61 O           6.1135   -8.4592  -46.2961 O.2       2 UNK        -0.5000 
     62 CA          3.7588   -8.3614  -46.8526 C.3       2 UNK         0.1400 
     63 CB          4.1357   -7.2805  -47.8819 C.3       2 UNK        -0.1800 
     64 N           3.0318   -9.4345  -47.5416 N.am      2 UNK        -0.5000 
     65 C           2.2481  -10.3508  -46.9571 C.2       1 UNK         0.5000 
     66 O           2.0068  -10.3588  -45.7459 O.2       1 UNK        -0.5000 
     67 C          -1.2014  -23.3374  -48.1549 C.2       11 UNK         0.5000 
     68 O          -1.1394  -24.4274  -48.7261 O.2       11 UNK        -0.5000 
     69 N          -2.3493  -22.7714  -47.7550 N.am      12 UNK        -0.5000 
     70 CA         -3.6689  -23.3648  -47.9660 C.3       12 UNK         0.1400 
     71 CB         -4.7621  -22.3664  -47.5613 C.3       12 UNK        -0.1800 
     72 C          -3.8514  -24.7090  -47.2407 C.2       12 UNK         0.5000 
     73 O          -4.3928  -25.6430  -47.8310 O.2       12 UNK        -0.5000 
     74 N          -3.3630  -24.8009  -45.9960 N.am      13 UNK        -0.5000 
     75 CA         -3.3649  -26.0234  -45.1925 C.3       13 UNK         0.1400 
     76 CB         -2.9518  -25.6956  -43.7499 C.3       13 UNK        -0.1800 
     77 C          -2.4620  -27.1244  -45.7758 C.2       13 UNK         0.5000 
     78 O          -2.8502  -28.2928  -45.7561 O.2       13 UNK        -0.5000 
     79 N          -1.2886  -26.7365  -46.2961 N.am      14 UNK        -0.5000 
     80 CA         -0.3379  -27.6375  -46.9480 C.3       14 UNK         0.1400 
     81 CB          1.0025  -26.9156  -47.1544 C.3       14 UNK        -0.1800 
     82 C          -0.8698  -28.1964  -48.2799 C.2       14 UNK         0.5000 
     83 O          -0.7164  -29.3905  -48.5406 O.2       14 UNK        -0.5000 
     84 N          -1.4921  -27.3305  -49.0913 N.am      15 UNK        -0.5000 
     85 CA         -2.0940  -27.6972  -50.3739 C.3       15 UNK         0.1400 
     86 CB         -2.3213  -26.4246  -51.2013 C.3       15 UNK        -0.1800 
     87 C          -3.4216  -28.4620  -50.2274 C.2       15 UNK         0.5000 
     88 O          -3.7448  -29.2730  -51.0959 O.2       15 UNK        -0.5000 
     89 N          -4.1743  -28.1562  -49.1594 N.am      16 UNK        -0.5000 
     90 CA         -5.5652  -28.5499  -48.9066 C.3       16 UNK         0.1400 
     91 CB         -5.6897  -30.0743  -48.7042 C.3       16 UNK        -0.1800 
     92 C          -6.5196  -27.9886  -49.9846 C.2       16 UNK         0.5000 
     93 O          -7.4535  -28.6710  -50.4108 O.2       16 UNK        -0.5000 
     94 N          -6.2426  -26.7546  -50.4223 N.am      17 UNK        -0.5000 
     95 CA         -6.8847  -26.0513  -51.5280 C.3       17 UNK         0.1400 
     96 CB         -6.4619  -26.6887  -52.8682 C.3       17 UNK        -0.1800 
     97 C          -6.4743  -24.5706  -51.4726 C.2       17 UNK         0.5000 
     98 O          -5.6495  -24.1920  -50.6363 O.2       17 UNK        -0.5000 
     99 N          -7.0313  -23.7562  -52.3783 N.am      18 UNK        -0.5000 
    100 CA        -6.6985  -22.3409  -52.5617 C.3       18 UNK         0.1400 
    101 CB        -7.8263  -21.6576  -53.3553 C.3       18 UNK        -0.1800 
    102 C         -5.3197  -22.1641  -53.2326 C.2       18 UNK         0.5000 
    103 O         -5.2376  -21.8060  -54.4100 O.2       18 UNK        -0.5000 
    104 N         -4.2606  -22.4475  -52.4641 N.am      19 UNK        -0.5000 
    105 CA        -2.8504  -22.3358  -52.8385 C.3       19 UNK         0.1400 
    106 CB        -1.9953  -22.6504  -51.6073 C.3       19 UNK        -0.1800 
    107 C         -2.4962  -20.9353  -53.3610 C.2       19 UNK         0.5000 
    108 O         -2.9202  -19.9476  -52.7577 O.2       19 UNK        -0.5000 
    109 N         -1.7653  -20.8773  -54.4828 N.am      20 UNK        -0.5000 
    110 CA        -1.3539  -19.6590  -55.1979 C.3       20 UNK         0.1400 
    111 CB        -0.3067  -18.8839  -54.3709 C.3       20 UNK        -0.1800 
    112 C         -2.5331  -18.7631  -55.6521 C.2       20 UNK         0.5000 
    113 O         -2.3382  -17.5705  -55.8899 O.2       20 UNK        -0.5000 
    114 N         -3.7319  -19.3595  -55.7586 N.am      21 UNK        -0.5000 
    115 CA        -5.0304  -18.7302  -56.0146 C.3       21 UNK         0.1400 
    116 CB        -5.0681  -18.0648  -57.4069 C.3       21 UNK        -0.1800 
    117 C         -5.4940  -17.7899  -54.8789 C.2       21 UNK         0.5000 
    118 O         -6.2916  -16.8842  -55.1305 O.2       21 UNK        -0.5000 
    119 N         -5.0136  -18.0246  -53.6507 N.am      22 UNK        -0.5000 
    120 CA        -5.3612  -17.2482  -52.4506 C.3       22 UNK         0.1400 
    121 C         -5.5714  -18.1049  -51.1720 C.2       22 UNK         0.5000 
    122 N         -5.0075  -19.3003  -51.0604 N.am      22 UNK        -0.7600 
    123 O         -6.2818  -17.6815  -50.2646 O.2       22 UNK        -0.5000 
    124 C124       -4.4025  -16.0497  -52.2101 C.3       23 UNK        -0.0398 
    125 S125       -2.6177  -16.4566  -52.2304 S.3       23 UNK        -0.2404 
    126 C126       -2.3257  -16.8701  -50.4857 C.3       23 UNK        -0.0205 
    127 H127       -1.1639  -13.7452  -46.1867 H         1 UNK         0.0600 
    128 H128       -2.4179  -13.4276  -47.3845 H         1 UNK         0.0600 
    129 H129       -2.1580  -12.2812  -46.0682 H         1 UNK         0.0600 
    130 H130        0.8339  -12.5070  -46.2597 H         1 UNK         0.3000 
    131 H131        1.3564  -10.9913  -48.7827 H         1 UNK         0.0600 
    132 H132        3.1948  -12.9851  -47.3301 H         1 UNK         0.0800 
    133 H133        3.6999  -11.9435  -48.6336 H         1 UNK         0.0800 
    134 H134        2.8429  -15.4791  -47.9745 H         1 UNK         0.0800 
    135 H135        1.2923  -14.7757  -47.5761 H         1 UNK         0.0800 
    136 H136       -0.6454  -15.0897  -49.2969 H         1 UNK         0.1150 
    137 H137       -0.7386  -19.0414  -50.9597 H         1 UNK         0.1150 
    138 H138        2.8667  -17.5399  -49.1834 H         1 UNK         0.1150 
    139 H139        1.3703  -20.2639  -51.2381 H         1 UNK         0.0800 
    140 H140        2.8744  -19.5108  -50.7808 H         1 UNK         0.0800 
    141 H141       -0.0156  -21.6974  -49.8477 H         1 UNK         0.0800 
    142 H142       -0.3811  -20.5602  -48.5724 H         1 UNK         0.0800 
    143 H143        0.9205  -23.2725  -48.0084 H         1 UNK         0.0600 
    144 H144        0.2335  -21.1400  -46.2872 H         1 UNK         0.3000 
    145 H145       -0.2382  -23.1036  -43.2896 H         1 UNK         0.0600 
    146 H146        1.3817  -21.3675  -42.5586 H         1 UNK         0.0600 
    147 H147        2.1736  -22.5685  -43.5689 H         1 UNK         0.0600 
    148 H148        1.7712  -20.9922  -44.2354 H         1 UNK         0.0600 
    149 H149       -0.6179  -20.3349  -43.6881 H         1 UNK         0.3000 
    150 H150       -4.0821  -20.4278  -44.6211 H         1 UNK         0.0600 
    151 H151       -3.9986  -20.5549  -42.1411 H         1 UNK         0.0600 
    152 H152       -4.1550  -18.8877  -42.6720 H         1 UNK         0.0600 
    153 H153       -2.5994  -19.4924  -42.1046 H         1 UNK         0.0600 
    154 H154       -2.2133  -18.2886  -44.2742 H         1 UNK         0.3000 
    155 H155       -1.1069  -18.1202  -47.6553 H         1 UNK         0.0600 
    156 H156       -1.9749  -15.8180  -47.3335 H         1 UNK         0.0600 
    157 H157       -3.3137  -16.9382  -47.5238 H         1 UNK         0.0600 
    158 H158       -2.9039  -16.3269  -45.9268 H         1 UNK         0.0600 
    159 H159       -0.5252  -16.5928  -45.2908 H         1 UNK         0.3000 
    160 H160        2.2590  -18.5476  -44.2108 H         1 UNK         0.0600 
    161 H161        2.2285  -15.7880  -45.5368 H         1 UNK         0.0600 
    162 H162        3.1541  -17.1665  -46.1284 H         1 UNK         0.0600 
    163 H163        3.5192  -16.4760  -44.5556 H         1 UNK         0.0600 
    164 H164        1.2652  -16.0388  -43.3270 H         1 UNK         0.3000 
    165 H165       -1.4797  -17.0206  -41.4470 H         1 UNK         0.0600 
    166 H166       -0.2728  -16.3906  -39.3713 H         1 UNK         0.0600 
    167 H167        0.2057  -18.0012  -39.8803 H         1 UNK         0.0600 
    168 H168        1.2821  -16.6393  -40.1676 H         1 UNK         0.0600 
    169 H169        0.1175  -14.7054  -41.1920 H         1 UNK         0.3000 
    170 H170       -0.9968  -12.8791  -44.0105 H         1 UNK         0.0600 
    171 H171       -2.9172  -12.7146  -42.4396 H         1 UNK         0.0600 
    172 H172       -1.8176  -12.6697  -41.0665 H         1 UNK         0.0600 
    173 H173       -1.8244  -11.3540  -42.2411 H         1 UNK         0.0600 
    174 H174        0.5726  -12.4075  -41.5979 H         1 UNK         0.3000 
    175 H175        2.7346  -11.9272  -41.7515 H         1 UNK         0.0600 
    176 H176        2.8491  -14.4378  -41.4240 H         1 UNK         0.0600 
    177 H177        3.7783  -14.5823  -42.9115 H         1 UNK         0.0600 
    178 H178        4.4505  -13.7299  -41.5244 H         1 UNK         0.0600 
    179 H179        3.5160  -11.9813  -44.4971 H         1 UNK         0.3000 
    180 H180        6.3542   -9.8242  -43.8875 H         1 UNK         0.0600 
    181 H181        5.8704  -12.2864  -45.6679 H         1 UNK         0.0600 
    182 H182        7.1877  -12.1256  -44.5115 H         1 UNK         0.0600 
    183 H183        7.1153  -11.0621  -45.9059 H         1 UNK         0.0600 
    184 H184        3.7466  -10.1099  -45.0583 H         1 UNK         0.3000 
    185 H185        3.0892   -7.9022  -46.1222 H         1 UNK         0.0600 
    186 H186        4.6395   -6.4407  -47.4016 H         1 UNK         0.0600 
    187 H187        4.8048   -7.6707  -48.6498 H         1 UNK         0.0600 
    188 H188        3.2502   -6.8831  -48.3784 H         1 UNK         0.0600 
    189 H189        3.2030   -9.5057  -48.5345 H         1 UNK         0.3000 
    190 H190       -2.3292  -21.8582  -47.3080 H         1 UNK         0.3000 
    191 H191       -3.7632  -23.5553  -49.0353 H         1 UNK         0.0600 
    192 H192       -4.6979  -22.1066  -46.5043 H         1 UNK         0.0600 
    193 H193       -5.7543  -22.7820  -47.7420 H         1 UNK         0.0600 
    194 H194       -4.6859  -21.4449  -48.1385 H         1 UNK         0.0600 
    195 H195       -2.9744  -23.9704  -45.5554 H         1 UNK         0.3000 
    196 H196       -4.3865  -26.4087  -45.1732 H         1 UNK         0.0600 
    197 H197       -2.9467  -26.5929  -43.1297 H         1 UNK         0.0600 
    198 H198       -3.6450  -24.9892  -43.2931 H         1 UNK         0.0600 
    199 H199       -1.9530  -25.2592  -43.7074 H         1 UNK         0.0600 
    200 H200       -1.0196  -25.7598  -46.2325 H         1 UNK         0.3000 
    201 H201       -0.1640  -28.4834  -46.2796 H         1 UNK         0.0600 
    202 H202        1.4289  -26.5990  -46.2024 H         1 UNK         0.0600 
    203 H203        0.8926  -26.0302  -47.7812 H         1 UNK         0.0600 
    204 H204        1.7301  -27.5709  -47.6347 H         1 UNK         0.0600 
    205 H205       -1.5252  -26.3485  -48.8305 H         1 UNK         0.3000 
    206 H206       -1.3950  -28.3370  -50.9167 H         1 UNK         0.0600 
    207 H207       -1.3865  -25.8868  -51.3595 H         1 UNK         0.0600 
    208 H208       -2.7325  -26.6615  -52.1834 H         1 UNK         0.0600 
    209 H209       -3.0224  -25.7514  -50.7060 H         1 UNK         0.0600 
    210 H210       -3.8348  -27.4232  -48.5452 H         1 UNK         0.3000 
    211 H211       -5.8500  -28.0708  -47.9689 H         1 UNK         0.0600 
    212 H212       -5.4935  -30.6262  -49.6235 H         1 UNK         0.0600 
    213 H213       -6.6935  -30.3414  -48.3725 H         1 UNK         0.0600 
    214 H214       -4.9922  -30.4275  -47.9445 H         1 UNK         0.0600 
    215 H215       -5.5118  -26.2191  -49.9652 H         1 UNK         0.3000 
    216 H216       -7.9681  -26.1124  -51.4097 H         1 UNK         0.0600 
    217 H217       -5.3815  -26.6371  -53.0101 H         1 UNK         0.0600 
    218 H218       -6.9297  -26.1874  -53.7158 H         1 UNK         0.0600 
    219 H219       -6.7528  -27.7377  -52.9226 H         1 UNK         0.0600 
    220 H220       -7.6808  -24.1460  -53.0458 H         1 UNK         0.3000 
    221 H221       -6.6506  -21.8619  -51.5813 H         1 UNK         0.0600 
    222 H222       -8.7769  -21.7252  -52.8261 H         1 UNK         0.0600 
    223 H223       -7.9578  -22.1059  -54.3409 H         1 UNK         0.0600 
    224 H224       -7.6115  -20.5979  -53.5012 H         1 UNK         0.0600 
    225 H225       -4.4535  -22.8117  -51.5381 H         1 UNK         0.3000 
    226 H226       -2.6505  -23.0782  -53.6133 H         1 UNK         0.0600 
    227 H227       -2.2333  -23.6294  -51.1994 H         1 UNK         0.0600 
    228 H228       -0.9336  -22.6490  -51.8564 H         1 UNK         0.0600 
    229 H229       -2.1581  -21.9170  -50.8164 H         1 UNK         0.0600 
    230 H230       -1.4819  -21.7453  -54.9163 H         1 UNK         0.3000 
    231 H231       -0.8659  -19.9941  -56.1141 H         1 UNK         0.0600 
    232 H232       -0.7388  -18.4684  -53.4610 H         1 UNK         0.0600 
    233 H233        0.1108  -18.0535  -54.9411 H         1 UNK         0.0600 
    234 H234        0.5242  -19.5271  -54.0816 H         1 UNK         0.0600 
    235 H235       -3.7864  -20.3410  -55.5164 H         1 UNK         0.3000 
    236 H236       -5.7534  -19.5469  -56.0293 H         1 UNK         0.0600 
    237 H237       -6.0827  -17.7607  -57.6666 H         1 UNK         0.0600 
    238 H238       -4.4419  -17.1735  -57.4494 H         1 UNK         0.0600 
    239 H239       -4.7294  -18.7519  -58.1822 H         1 UNK         0.0600 
    240 H240       -4.3256  -18.7572  -53.5164 H         1 UNK         0.3000 
    241 H241       -6.3495  -16.8162  -52.6206 H         1 UNK         0.0600 
    242 H242       -5.1625  -19.8258  -50.2168 H         1 UNK         0.3800 
    243 H243       -4.2946  -19.6038  -51.7214 H         1 UNK         0.3800 
    244 H244       -4.6512  -15.5285  -51.2841 H         1 UNK         0.0800 
    245 H245       -4.5632  -15.3158  -53.0006 H         1 UNK         0.0800 
    246 H246       -2.8481  -17.7922  -50.2328 H         1 UNK         0.0800 
    247 H247       -2.7531  -16.0892  -49.8555 H         1 UNK         0.0800 
@<TRIPOS>BOND
     1    1    2 1    
     2    1  127 1    
     3    1  128 1    
     4    1  129 1    
     5    2    3 2    
     6    2    4 am   BACKBONE|DICT|INTERRES
     7    4    5 1    
     8    4  130 1    
     9    5    6 1    
    10    5   65 1    
    11    5  131 1    
    12    6    7 1    
    13    6  132 1    
    14    6  133 1    
    15    7    8 1    
    16    8    9 1    
    17    8  134 1    
    18    8  135 1    
    19    9   10 ar   
    20    9   14 ar   
    21   10   11 ar   
    22   10  136 1    
    23   11   12 ar   
    24   11  126 1    
    25   12   13 ar   
    26   12  137 1    
    27   13   14 ar   
    28   13   15 1    
    29   14  138 1    
    30   15   16 1    
    31   15  139 1    
    32   15  140 1    
    33   16   17 1    
    34   17   18 1    
    35   17  141 1    
    36   17  142 1    
    37   18   19 1    
    38   18   67 1    
    39   18  143 1    
    40   19   20 am   BACKBONE|DICT|INTERRES
    41   19  144 1    
    42   20   21 2    
    43   20   22 1    
    44   22   23 1    
    45   22   24 1    
    46   22  145 1    
    47   23  146 1    
    48   23  147 1    
    49   23  148 1    
    50   24   25 am   BACKBONE|DICT|INTERRES
    51   24  149 1    
    52   25   26 2    
    53   25   27 1    
    54   27   28 1    
    55   27   29 1    
    56   27  150 1    
    57   28  151 1    
    58   28  152 1    
    59   28  153 1    
    60   29   30 am   BACKBONE|DICT|INTERRES
    61   29  154 1    
    62   30   31 2    
    63   30   32 1    
    64   32   33 1    
    65   32   34 1    
    66   32  155 1    
    67   33  156 1    
    68   33  157 1    
    69   33  158 1    
    70   34   35 am   BACKBONE|DICT|INTERRES
    71   34  159 1    
    72   35   36 2    
    73   35   37 1    
    74   37   38 1    
    75   37   39 1    
    76   37  160 1    
    77   38  161 1    
    78   38  162 1    
    79   38  163 1    
    80   39   40 am   BACKBONE|DICT|INTERRES
    81   39  164 1    
    82   40   41 2    
    83   40   42 1    
    84   42   43 1    
    85   42   44 1    
    86   42  165 1    
    87   43  166 1    
    88   43  167 1    
    89   43  168 1    
    90   44   45 am   BACKBONE|DICT|INTERRES
    91   44  169 1    
    92   45   46 2    
    93   45   47 1    
    94   47   48 1    
    95   47   49 1    
    96   47  170 1    
    97   48  171 1    
    98   48  172 1    
    99   48  173 1    
   100   49   50 am   BACKBONE|DICT|INTERRES
   101   49  174 1    
   102   50   51 2    
   103   50   52 1    
   104   52   53 1    
   105   52   54 1    
   106   52  175 1    
   107   53  176 1    
   108   53  177 1    
   109   53  178 1    
   110   54   55 am   BACKBONE|DICT|INTERRES
   111   54  179 1    
   112   55   56 2    
   113   55   57 1    
   114   57   58 1    
   115   57   59 1    
   116   57  180 1    
   117   58  181 1    
   118   58  182 1    
   119   58  183 1    
   120   59   60 am   BACKBONE|DICT|INTERRES
   121   59  184 1    
   122   60   61 2    
   123   60   62 1    
   124   62   63 1    
   125   62   64 1    
   126   62  185 1    
   127   63  186 1    
   128   63  187 1    
   129   63  188 1    
   130   64   65 am   BACKBONE|DICT|INTERRES
   131   64  189 1    
   132   65   66 2    
   133   67   68 2    
   134   67   69 am   BACKBONE|DICT|INTERRES
   135   69   70 1    
   136   69  190 1    
   137   70   71 1    
   138   70   72 1    
   139   70  191 1    
   140   71  192 1    
   141   71  193 1    
   142   71  194 1    
   143   72   73 2    
   144   72   74 am   BACKBONE|DICT|INTERRES
   145   74   75 1    
   146   74  195 1    
   147   75   76 1    
   148   75   77 1    
   149   75  196 1    
   150   76  197 1    
   151   76  198 1    
   152   76  199 1    
   153   77   78 2    
   154   77   79 am   BACKBONE|DICT|INTERRES
   155   79   80 1    
   156   79  200 1    
   157   80   81 1    
   158   80   82 1    
   159   80  201 1    
   160   81  202 1    
   161   81  203 1    
   162   81  204 1    
   163   82   83 2    
   164   82   84 am   BACKBONE|DICT|INTERRES
   165   84   85 1    
   166   84  205 1    
   167   85   86 1    
   168   85   87 1    
   169   85  206 1    
   170   86  207 1    
   171   86  208 1    
   172   86  209 1    
   173   87   88 2    
   174   87   89 am   BACKBONE|DICT|INTERRES
   175   89   90 1    
   176   89  210 1    
   177   90   91 1    
   178   90   92 1    
   179   90  211 1    
   180   91  212 1    
   181   91  213 1    
   182   91  214 1    
   183   92   93 2    
   184   92   94 am   BACKBONE|DICT|INTERRES
   185   94   95 1    
   186   94  215 1    
   187   95   96 1    
   188   95   97 1    
   189   95  216 1    
   190   96  217 1    
   191   96  218 1    
   192   96  219 1    
   193   97   98 2    
   194   97   99 am   BACKBONE|DICT|INTERRES
   195   99  100 1    
   196   99  220 1    
   197  100  101 1    
   198  100  102 1    
   199  100  221 1    
   200  101  222 1    
   201  101  223 1    
   202  101  224 1    
   203  102  103 2    
   204  102  104 am   BACKBONE|DICT|INTERRES
   205  104  105 1    
   206  104  225 1    
   207  105  106 1    
   208  105  107 1    
   209  105  226 1    
   210  106  227 1    
   211  106  228 1    
   212  106  229 1    
   213  107  108 2    
   214  107  109 am   BACKBONE|DICT|INTERRES
   215  109  110 1    
   216  109  230 1    
   217  110  111 1    
   218  110  112 1    
   219  110  231 1    
   220  111  232 1    
   221  111  233 1    
   222  111  234 1    
   223  112  113 2    
   224  112  114 am   BACKBONE|DICT|INTERRES
   225  114  115 1    
   226  114  235 1    
   227  115  116 1    
   228  115  117 1    
   229  115  236 1    
   230  116  237 1    
   231  116  238 1    
   232  116  239 1    
   233  117  118 2    
   234  117  119 am   BACKBONE|DICT|INTERRES
   235  119  120 1    
   236  119  240 1    
   237  120  121 1    
   238  120  124 1    
   239  120  241 1    
   240  121  122 am   BACKBONE|DICT|INTERRES
   241  121  123 2    
   242  122  242 1    
   243  122  243 1    
   244  124  125 1    
   245  124  244 1    
   246  124  245 1    
   247  125  126 1    
   248  126  246 1    
   249  126  247 1    
@<TRIPOS>SUBSTRUCTURE
     1 UNK         1 GROUP             0       ****    0 ROOT    
