@<TRIPOS>MOLECULE
3R540
247   249    1
SMALL
USER_CHARGES


@<TRIPOS>ATOM
      1 CA         -4.6881  -17.3642  -45.1753 C.3       0 UNK        -0.1800 
      2 C          -4.4501  -15.8727  -44.9912 C.2       0 UNK         0.5000 
      3 O          -4.8909  -15.2876  -44.0016 O.2       0 UNK        -0.5000 
      4 N          -3.7607  -15.2607  -45.9588 N.am      1 UNK        -0.5000 
      5 CA         -3.3588  -13.8526  -45.9629 C.3       1 UNK         0.1400 
      6 C6         -2.9057  -13.3981  -47.3725 C.3       23 UNK        -0.0398 
      7 S7         -4.2675  -13.3500  -48.5900 S.3       23 UNK        -0.2404 
      8 C8         -4.3528  -15.0570  -49.2273 C.3       23 UNK        -0.0205 
      9 C9         -3.0596  -15.5165  -49.8833 C.ar      23 UNK        -0.0193 
     10 C10        -2.7842  -15.1679  -51.2072 C.ar      23 UNK        -0.1150 
     11 C11        -1.6202  -15.6211  -51.8343 C.ar      23 UNK        -0.0193 
     12 C12        -0.7283  -16.4321  -51.1261 C.ar      23 UNK        -0.1150 
     13 C13        -0.9954  -16.7920  -49.8022 C.ar      23 UNK        -0.0193 
     14 C14        -2.1588  -16.3260  -49.1850 C.ar      23 UNK        -0.1150 
     15 C15        -0.0304  -17.6878  -49.0413 C.3       23 UNK        -0.0205 
     16 S16        -0.5366  -19.4341  -49.1241 S.3       23 UNK        -0.2404 
     17 C17        -1.8819  -19.4821  -47.8910 C.3       23 UNK        -0.0398 
     18 CA         -2.0624  -20.8930  -47.2881 C.3       11 UNK         0.1400 
     19 N          -0.9257  -21.3195  -46.4682 N.am      11 UNK        -0.5000 
     20 C          -0.7261  -22.5830  -46.0674 C.2       10 UNK         0.5000 
     21 O          -1.4842  -23.5132  -46.3428 O.2       10 UNK        -0.5000 
     22 CA          0.4911  -22.8463  -45.1652 C.3       10 UNK         0.1400 
     23 CB          1.7948  -22.7954  -45.9745 C.3       10 UNK        -0.1800 
     24 N           0.5661  -21.9166  -44.0384 N.am      10 UNK        -0.5000 
     25 C          -0.3652  -21.8087  -43.0799 C.2       9 UNK         0.5000 
     26 O          -1.3861  -22.4939  -43.0359 O.2       9 UNK        -0.5000 
     27 CA         -0.1419  -20.7246  -42.0133 C.3       9 UNK         0.1400 
     28 CB          0.8378  -21.2067  -40.9328 C.3       9 UNK        -0.1800 
     29 N           0.3426  -19.4744  -42.5933 N.am      9 UNK        -0.5000 
     30 C          -0.3779  -18.6814  -43.3985 C.2       8 UNK         0.5000 
     31 O          -1.5420  -18.9073  -43.7278 O.2       8 UNK        -0.5000 
     32 CA          0.3567  -17.4563  -43.9679 C.3       8 UNK         0.1400 
     33 CB          0.4974  -16.3687  -42.8902 C.3       8 UNK        -0.1800 
     34 N           1.6787  -17.8075  -44.4919 N.am      8 UNK        -0.5000 
     35 C           1.8814  -18.6431  -45.5235 C.2       7 UNK         0.5000 
     36 O           0.9714  -19.1824  -46.1491 O.2       7 UNK        -0.5000 
     37 CA          3.3395  -18.9775  -45.8933 C.3       7 UNK         0.1400 
     38 CB          3.8825  -17.9457  -46.8930 C.3       7 UNK        -0.1800 
     39 N           4.2329  -19.0430  -44.7374 N.am      7 UNK        -0.5000 
     40 C           4.0689  -19.8309  -43.6647 C.2       6 UNK         0.5000 
     41 O           3.1910  -20.6898  -43.5776 O.2       6 UNK        -0.5000 
     42 CA          5.0031  -19.5776  -42.4623 C.3       6 UNK         0.1400 
     43 CB          6.1088  -20.6424  -42.4120 C.3       6 UNK        -0.1800 
     44 N           5.6203  -18.2433  -42.4330 N.am      6 UNK        -0.5000 
     45 C           4.9598  -17.0769  -42.4253 C.2       5 UNK         0.5000 
     46 O           3.7283  -16.9876  -42.4695 O.2       5 UNK        -0.5000 
     47 CA          5.8165  -15.8025  -42.4296 C.3       5 UNK         0.1400 
     48 CB          6.6000  -15.6660  -43.7501 C.3       5 UNK        -0.1800 
     49 N           4.9225  -14.6644  -42.2698 N.am      5 UNK        -0.5000 
     50 C           5.2524  -13.4250  -41.8962 C.2       4 UNK         0.5000 
     51 O           6.3975  -13.0828  -41.5947 O.2       4 UNK        -0.5000 
     52 CA          4.0901  -12.4084  -41.8631 C.3       4 UNK         0.1400 
     53 CB          4.5663  -10.9409  -41.8262 C.3       4 UNK        -0.1800 
     54 N           3.1206  -12.6203  -42.9479 N.am      4 UNK        -0.5000 
     55 C           3.3455  -12.5377  -44.2703 C.2       3 UNK         0.5000 
     56 O           4.4324  -12.2408  -44.7671 O.2       3 UNK        -0.5000 
     57 CA          2.1603  -12.8558  -45.2064 C.3       3 UNK         0.1400 
     58 CB          2.3482  -14.2376  -45.8562 C.3       3 UNK        -0.1800 
     59 N           0.8526  -12.8200  -44.5457 N.am      3 UNK        -0.5000 
     60 C           0.2295  -11.7206  -44.1043 C.2       2 UNK         0.5000 
     61 O           0.6914  -10.5841  -44.2182 O.2       2 UNK        -0.5000 
     62 CA         -1.1470  -11.9449  -43.4410 C.3       2 UNK         0.1400 
     63 CB         -1.6712  -10.6857  -42.7277 C.3       2 UNK        -0.1800 
     64 N          -2.1562  -12.3939  -44.4023 N.am      2 UNK        -0.5000 
     65 C          -2.2277  -13.6171  -44.9422 C.2       1 UNK         0.5000 
     66 O          -1.4258  -14.5206  -44.6912 O.2       1 UNK        -0.5000 
     67 C          -3.4058  -21.0111  -46.5437 C.2       11 UNK         0.5000 
     68 O          -4.4092  -21.2987  -47.1935 O.2       11 UNK        -0.5000 
     69 N          -3.4136  -20.8306  -45.2150 N.am      12 UNK        -0.5000 
     70 CA         -4.5906  -21.0625  -44.3764 C.3       12 UNK         0.1400 
     71 CB         -4.3665  -20.4704  -42.9755 C.3       12 UNK        -0.1800 
     72 C          -4.9544  -22.5561  -44.2810 C.2       12 UNK         0.5000 
     73 O          -6.1254  -22.9061  -44.4310 O.2       12 UNK        -0.5000 
     74 N          -3.9486  -23.4044  -44.0289 N.am      13 UNK        -0.5000 
     75 CA         -4.1110  -24.8421  -43.8206 C.3       13 UNK         0.1400 
     76 CB         -2.8466  -25.4066  -43.1536 C.3       13 UNK        -0.1800 
     77 C          -4.4292  -25.6139  -45.1119 C.2       13 UNK         0.5000 
     78 O          -5.3610  -26.4194  -45.1220 O.2       13 UNK        -0.5000 
     79 N          -3.6406  -25.3757  -46.1676 N.am      14 UNK        -0.5000 
     80 CA         -3.7057  -26.1280  -47.4230 C.3       14 UNK         0.1400 
     81 CB         -2.2858  -26.2404  -48.0031 C.3       14 UNK        -0.1800 
     82 C          -4.6550  -25.5053  -48.4617 C.2       14 UNK         0.5000 
     83 O          -4.8960  -26.1334  -49.4929 O.2       14 UNK        -0.5000 
     84 N          -5.1370  -24.2782  -48.2043 N.am      15 UNK        -0.5000 
     85 CA         -5.9219  -23.4295  -49.1140 C.3       15 UNK         0.1400 
     86 CB         -7.2795  -24.0775  -49.4587 C.3       15 UNK        -0.1800 
     87 C          -5.1292  -23.0119  -50.3728 C.2       15 UNK         0.5000 
     88 O          -5.7317  -22.7160  -51.4067 O.2       15 UNK        -0.5000 
     89 N          -3.7893  -23.0005  -50.2687 N.am      16 UNK        -0.5000 
     90 CA         -2.8270  -22.8543  -51.3677 C.3       16 UNK         0.1400 
     91 CB         -1.3988  -22.9834  -50.8188 C.3       16 UNK        -0.1800 
     92 C          -2.9726  -21.5712  -52.2046 C.2       16 UNK         0.5000 
     93 O          -2.6025  -21.5782  -53.3782 O.2       16 UNK        -0.5000 
     94 N          -3.5661  -20.5222  -51.6209 N.am      17 UNK        -0.5000 
     95 CA         -3.9536  -19.2824  -52.2979 C.3       17 UNK         0.1400 
     96 CB         -4.6090  -18.3506  -51.2701 C.3       17 UNK        -0.1800 
     97 C          -4.9052  -19.5081  -53.4920 C.2       17 UNK         0.5000 
     98 O          -4.8215  -18.7802  -54.4807 O.2       17 UNK        -0.5000 
     99 N          -5.7670  -20.5281  -53.3852 N.am      18 UNK        -0.5000 
    100 CA        -6.6817  -20.9638  -54.4358 C.3       18 UNK         0.1400 
    101 CB        -8.1009  -21.0692  -53.8551 C.3       18 UNK        -0.1800 
    102 C         -6.2368  -22.3133  -55.0200 C.2       18 UNK         0.5000 
    103 O         -6.1880  -22.4571  -56.2413 O.2       18 UNK        -0.5000 
    104 N         -5.9138  -23.2761  -54.1444 N.am      19 UNK        -0.5000 
    105 CA        -5.6381  -24.6717  -54.4954 C.3       19 UNK         0.1400 
    106 CB        -5.6430  -25.5223  -53.2156 C.3       19 UNK        -0.1800 
    107 C         -4.3288  -24.8846  -55.2761 C.2       19 UNK         0.5000 
    108 O         -4.2436  -25.8361  -56.0534 O.2       19 UNK        -0.5000 
    109 N         -3.3429  -24.0052  -55.0627 N.am      20 UNK        -0.5000 
    110 CA        -2.0414  -24.0247  -55.7327 C.3       20 UNK         0.1400 
    111 CB        -0.9544  -24.3598  -54.6958 C.3       20 UNK        -0.1800 
    112 C         -1.7518  -22.6877  -56.4397 C.2       20 UNK         0.5000 
    113 O         -0.6139  -22.4640  -56.8547 O.2       20 UNK        -0.5000 
    114 N         -2.7654  -21.8114  -56.5402 N.am      21 UNK        -0.5000 
    115 CA        -2.7222  -20.4619  -57.1168 C.3       21 UNK         0.1400 
    116 CB        -2.6642  -20.5493  -58.6556 C.3       21 UNK        -0.1800 
    117 C         -1.6026  -19.5779  -56.5201 C.2       21 UNK         0.5000 
    118 O         -0.8969  -18.8922  -57.2620 O.2       21 UNK        -0.5000 
    119 N         -1.4473  -19.6501  -55.1912 N.am      22 UNK        -0.5000 
    120 CA        -0.3953  -19.0110  -54.3792 C.3       22 UNK         0.1400 
    121 C          0.9849  -19.7343  -54.4314 C.2       22 UNK         0.5000 
    122 N          1.1419  -20.8556  -55.1253 N.am      22 UNK        -0.7600 
    123 O          1.9376  -19.2839  -53.8010 O.2       22 UNK        -0.5000 
    124 C124       -0.2430  -17.4772  -54.6046 C.3       23 UNK        -0.0398 
    125 S125       -1.8009  -16.5344  -54.4442 S.3       23 UNK        -0.2404 
    126 C126       -1.3323  -15.2224  -53.2726 C.3       23 UNK        -0.0205 
    127 H127       -3.8019  -17.9202  -44.8726 H         1 UNK         0.0600 
    128 H128       -5.5295  -17.7003  -44.5693 H         1 UNK         0.0600 
    129 H129       -4.9042  -17.6043  -46.2166 H         1 UNK         0.0600 
    130 H130       -3.3977  -15.8108  -46.7190 H         1 UNK         0.3000 
    131 H131       -4.2194  -13.2518  -45.6604 H         1 UNK         0.0600 
    132 H132       -2.0840  -14.0116  -47.7420 H         1 UNK         0.0800 
    133 H133       -2.5077  -12.3826  -47.3278 H         1 UNK         0.0800 
    134 H134       -5.1586  -15.1057  -49.9613 H         1 UNK         0.0800 
    135 H135       -4.6480  -15.7419  -48.4332 H         1 UNK         0.0800 
    136 H136       -3.4823  -14.5472  -51.7514 H         1 UNK         0.1150 
    137 H137        0.1720  -16.7891  -51.6047 H         1 UNK         0.1150 
    138 H138       -2.3661  -16.6086  -48.1645 H         1 UNK         0.1150 
    139 H139        0.9723  -17.5968  -49.4611 H         1 UNK         0.0800 
    140 H140        0.0490  -17.3661  -48.0018 H         1 UNK         0.0800 
    141 H141       -1.6841  -18.7598  -47.0971 H         1 UNK         0.0800 
    142 H142       -2.7934  -19.1544  -48.3938 H         1 UNK         0.0800 
    143 H143       -2.1307  -21.5945  -48.1204 H         1 UNK         0.0600 
    144 H144       -0.2453  -20.6003  -46.2310 H         1 UNK         0.3000 
    145 H145        0.3879  -23.8525  -44.7538 H         1 UNK         0.0600 
    146 H146        1.9408  -21.8217  -46.4406 H         1 UNK         0.0600 
    147 H147        2.6607  -22.9998  -45.3444 H         1 UNK         0.0600 
    148 H148        1.7866  -23.5403  -46.7710 H         1 UNK         0.0600 
    149 H149        1.3991  -21.3385  -43.9750 H         1 UNK         0.3000 
    150 H150       -1.1030  -20.5247  -41.5349 H         1 UNK         0.0600 
    151 H151        0.9504  -20.4638  -40.1431 H         1 UNK         0.0600 
    152 H152        1.8268  -21.4125  -41.3433 H         1 UNK         0.0600 
    153 H153        0.4796  -22.1252  -40.4661 H         1 UNK         0.0600 
    154 H154        1.3088  -19.2371  -42.4233 H         1 UNK         0.3000 
    155 H155       -0.2389  -17.0548  -44.7906 H         1 UNK         0.0600 
    156 H156       -0.4823  -16.0570  -42.5258 H         1 UNK         0.0600 
    157 H157        0.9932  -15.4821  -43.2806 H         1 UNK         0.0600 
    158 H158        1.0693  -16.7187  -42.0303 H         1 UNK         0.0600 
    159 H159        2.4782  -17.4563  -43.9752 H         1 UNK         0.3000 
    160 H160        3.3477  -19.9569  -46.3736 H         1 UNK         0.0600 
    161 H161        3.9360  -16.9486  -46.4540 H         1 UNK         0.0600 
    162 H162        3.2428  -17.8826  -47.7745 H         1 UNK         0.0600 
    163 H163        4.8812  -18.2159  -47.2364 H         1 UNK         0.0600 
    164 H164        4.9873  -18.3740  -44.7147 H         1 UNK         0.3000 
    165 H165        4.3937  -19.6750  -41.5616 H         1 UNK         0.0600 
    166 H166        6.7727  -20.5732  -43.2746 H         1 UNK         0.0600 
    167 H167        6.7145  -20.5411  -41.5113 H         1 UNK         0.0600 
    168 H168        5.6844  -21.6474  -42.4040 H         1 UNK         0.0600 
    169 H169        6.6299  -18.2260  -42.4085 H         1 UNK         0.3000 
    170 H170        6.5062  -15.8450  -41.5844 H         1 UNK         0.0600 
    171 H171        7.2832  -16.5028  -43.8978 H         1 UNK         0.0600 
    172 H172        5.9304  -15.6294  -44.6106 H         1 UNK         0.0600 
    173 H173        7.2026  -14.7577  -43.7617 H         1 UNK         0.0600 
    174 H174        3.9510  -14.8901  -42.4439 H         1 UNK         0.3000 
    175 H175        3.5524  -12.5989  -40.9332 H         1 UNK         0.0600 
    176 H176        3.7209  -10.2533  -41.8003 H         1 UNK         0.0600 
    177 H177        5.1680  -10.7479  -40.9374 H         1 UNK         0.0600 
    178 H178        5.1768  -10.6894  -42.6937 H         1 UNK         0.0600 
    179 H179        2.1894  -12.8789  -42.6565 H         1 UNK         0.3000 
    180 H180        2.1575  -12.1036  -45.9979 H         1 UNK         0.0600 
    181 H181        1.5214  -14.4799  -46.5243 H         1 UNK         0.0600 
    182 H182        3.2633  -14.2675  -46.4490 H         1 UNK         0.0600 
    183 H183        2.4205  -15.0290  -45.1104 H         1 UNK         0.0600 
    184 H184        0.3409  -13.6956  -44.4890 H         1 UNK         0.3000 
    185 H185       -1.0195  -12.7221  -42.6841 H         1 UNK         0.0600 
    186 H186       -2.6043  -10.8902  -42.2022 H         1 UNK         0.0600 
    187 H187       -0.9549  -10.3294  -41.9862 H         1 UNK         0.0600 
    188 H188       -1.8531   -9.8696  -43.4283 H         1 UNK         0.0600 
    189 H189       -2.8324  -11.6981  -44.6828 H         1 UNK         0.3000 
    190 H190       -2.5622  -20.5494  -44.7430 H         1 UNK         0.3000 
    191 H191       -5.4376  -20.5407  -44.8275 H         1 UNK         0.0600 
    192 H192       -5.2390  -20.6303  -42.3411 H         1 UNK         0.0600 
    193 H193       -4.1929  -19.3960  -43.0191 H         1 UNK         0.0600 
    194 H194       -3.5111  -20.9238  -42.4753 H         1 UNK         0.0600 
    195 H195       -3.0147  -23.0303  -43.8804 H         1 UNK         0.3000 
    196 H196       -4.9450  -24.9920  -43.1316 H         1 UNK         0.0600 
    197 H197       -2.9385  -26.4799  -42.9825 H         1 UNK         0.0600 
    198 H198       -2.6702  -24.9369  -42.1857 H         1 UNK         0.0600 
    199 H199       -1.9601  -25.2448  -43.7683 H         1 UNK         0.0600 
    200 H200       -2.8924  -24.6885  -46.0913 H         1 UNK         0.3000 
    201 H201       -4.0627  -27.1406  -47.2233 H         1 UNK         0.0600 
    202 H202       -1.5984  -26.6839  -47.2825 H         1 UNK         0.0600 
    203 H203       -1.8882  -25.2669  -48.2899 H         1 UNK         0.0600 
    204 H204       -2.2746  -26.8715  -48.8926 H         1 UNK         0.0600 
    205 H205       -4.8788  -23.8483  -47.3262 H         1 UNK         0.3000 
    206 H206       -6.1427  -22.5098  -48.5739 H         1 UNK         0.0600 
    207 H207       -7.8094  -24.3859  -48.5575 H         1 UNK         0.0600 
    208 H208       -7.9233  -23.3738  -49.9876 H         1 UNK         0.0600 
    209 H209       -7.1651  -24.9527  -50.0985 H         1 UNK         0.0600 
    210 H210       -3.4020  -23.2465  -49.3706 H         1 UNK         0.3000 
    211 H211       -2.9961  -23.6912  -52.0474 H         1 UNK         0.0600 
    212 H212       -0.6634  -22.9284  -51.6222 H         1 UNK         0.0600 
    213 H213       -1.2523  -23.9380  -50.3138 H         1 UNK         0.0600 
    214 H214       -1.1617  -22.1887  -50.1137 H         1 UNK         0.0600 
    215 H215       -3.8521  -20.6191  -50.6587 H         1 UNK         0.3000 
    216 H216       -3.0466  -18.8040  -52.6707 H         1 UNK         0.0600 
    217 H217       -4.8394  -17.3817  -51.7148 H         1 UNK         0.0600 
    218 H218       -3.9455  -18.1733  -50.4254 H         1 UNK         0.0600 
    219 H219       -5.5396  -18.7664  -50.8821 H         1 UNK         0.0600 
    220 H220       -5.7384  -21.1022  -52.5487 H         1 UNK         0.3000 
    221 H221       -6.7062  -20.2399  -55.2530 H         1 UNK         0.0600 
    222 H222       -8.1471  -21.7694  -53.0197 H         1 UNK         0.0600 
    223 H223       -8.4497  -20.1005  -53.4969 H         1 UNK         0.0600 
    224 H224       -8.8090  -21.4105  -54.6114 H         1 UNK         0.0600 
    225 H225       -5.9558  -23.0702  -53.1483 H         1 UNK         0.3000 
    226 H226       -6.4547  -25.0184  -55.1321 H         1 UNK         0.0600 
    227 H227       -5.5117  -26.5797  -53.4482 H         1 UNK         0.0600 
    228 H228       -4.8405  -25.2364  -52.5355 H         1 UNK         0.0600 
    229 H229       -6.5862  -25.4235  -52.6780 H         1 UNK         0.0600 
    230 H230       -3.4880  -23.2432  -54.4119 H         1 UNK         0.3000 
    231 H231       -2.0189  -24.7916  -56.5091 H         1 UNK         0.0600 
    232 H232        0.0180  -24.4854  -55.1733 H         1 UNK         0.0600 
    233 H233       -1.1799  -25.2889  -54.1722 H         1 UNK         0.0600 
    234 H234       -0.8522  -23.5704  -53.9518 H         1 UNK         0.0600 
    235 H235       -3.6658  -22.1033  -56.1881 H         1 UNK         0.3000 
    236 H236       -3.6639  -19.9813  -56.8474 H         1 UNK         0.0600 
    237 H237       -1.7309  -20.9968  -58.9990 H         1 UNK         0.0600 
    238 H238       -3.4869  -21.1478  -59.0469 H         1 UNK         0.0600 
    239 H239       -2.7408  -19.5599  -59.1079 H         1 UNK         0.0600 
    240 H240       -2.0316  -20.3046  -54.6786 H         1 UNK         0.3000 
    241 H241       -0.7265  -19.1450  -53.3489 H         1 UNK         0.0600 
    242 H242        2.0441  -21.3034  -55.1302 H         1 UNK         0.3800 
    243 H243        0.3906  -21.2501  -55.6814 H         1 UNK         0.3800 
    244 H244        0.1740  -17.2726  -55.5910 H         1 UNK         0.0800 
    245 H245        0.4857  -17.0749  -53.9008 H         1 UNK         0.0800 
    246 H246       -0.2812  -14.9557  -53.3899 H         1 UNK         0.0800 
    247 H247       -1.8944  -14.3222  -53.5261 H         1 UNK         0.0800 
@<TRIPOS>BOND
     1    1    2 1    
     2    1  127 1    
     3    1  128 1    
     4    1  129 1    
     5    2    3 2    
     6    2    4 am   BACKBONE|DICT|INTERRES
     7    4    5 1    
     8    4  130 1    
     9    5    6 1    
    10    5   65 1    
    11    5  131 1    
    12    6    7 1    
    13    6  132 1    
    14    6  133 1    
    15    7    8 1    
    16    8    9 1    
    17    8  134 1    
    18    8  135 1    
    19    9   10 ar   
    20    9   14 ar   
    21   10   11 ar   
    22   10  136 1    
    23   11   12 ar   
    24   11  126 1    
    25   12   13 ar   
    26   12  137 1    
    27   13   14 ar   
    28   13   15 1    
    29   14  138 1    
    30   15   16 1    
    31   15  139 1    
    32   15  140 1    
    33   16   17 1    
    34   17   18 1    
    35   17  141 1    
    36   17  142 1    
    37   18   19 1    
    38   18   67 1    
    39   18  143 1    
    40   19   20 am   BACKBONE|DICT|INTERRES
    41   19  144 1    
    42   20   21 2    
    43   20   22 1    
    44   22   23 1    
    45   22   24 1    
    46   22  145 1    
    47   23  146 1    
    48   23  147 1    
    49   23  148 1    
    50   24   25 am   BACKBONE|DICT|INTERRES
    51   24  149 1    
    52   25   26 2    
    53   25   27 1    
    54   27   28 1    
    55   27   29 1    
    56   27  150 1    
    57   28  151 1    
    58   28  152 1    
    59   28  153 1    
    60   29   30 am   BACKBONE|DICT|INTERRES
    61   29  154 1    
    62   30   31 2    
    63   30   32 1    
    64   32   33 1    
    65   32   34 1    
    66   32  155 1    
    67   33  156 1    
    68   33  157 1    
    69   33  158 1    
    70   34   35 am   BACKBONE|DICT|INTERRES
    71   34  159 1    
    72   35   36 2    
    73   35   37 1    
    74   37   38 1    
    75   37   39 1    
    76   37  160 1    
    77   38  161 1    
    78   38  162 1    
    79   38  163 1    
    80   39   40 am   BACKBONE|DICT|INTERRES
    81   39  164 1    
    82   40   41 2    
    83   40   42 1    
    84   42   43 1    
    85   42   44 1    
    86   42  165 1    
    87   43  166 1    
    88   43  167 1    
    89   43  168 1    
    90   44   45 am   BACKBONE|DICT|INTERRES
    91   44  169 1    
    92   45   46 2    
    93   45   47 1    
    94   47   48 1    
    95   47   49 1    
    96   47  170 1    
    97   48  171 1    
    98   48  172 1    
    99   48  173 1    
   100   49   50 am   BACKBONE|DICT|INTERRES
   101   49  174 1    
   102   50   51 2    
   103   50   52 1    
   104   52   53 1    
   105   52   54 1    
   106   52  175 1    
   107   53  176 1    
   108   53  177 1    
   109   53  178 1    
   110   54   55 am   BACKBONE|DICT|INTERRES
   111   54  179 1    
   112   55   56 2    
   113   55   57 1    
   114   57   58 1    
   115   57   59 1    
   116   57  180 1    
   117   58  181 1    
   118   58  182 1    
   119   58  183 1    
   120   59   60 am   BACKBONE|DICT|INTERRES
   121   59  184 1    
   122   60   61 2    
   123   60   62 1    
   124   62   63 1    
   125   62   64 1    
   126   62  185 1    
   127   63  186 1    
   128   63  187 1    
   129   63  188 1    
   130   64   65 am   BACKBONE|DICT|INTERRES
   131   64  189 1    
   132   65   66 2    
   133   67   68 2    
   134   67   69 am   BACKBONE|DICT|INTERRES
   135   69   70 1    
   136   69  190 1    
   137   70   71 1    
   138   70   72 1    
   139   70  191 1    
   140   71  192 1    
   141   71  193 1    
   142   71  194 1    
   143   72   73 2    
   144   72   74 am   BACKBONE|DICT|INTERRES
   145   74   75 1    
   146   74  195 1    
   147   75   76 1    
   148   75   77 1    
   149   75  196 1    
   150   76  197 1    
   151   76  198 1    
   152   76  199 1    
   153   77   78 2    
   154   77   79 am   BACKBONE|DICT|INTERRES
   155   79   80 1    
   156   79  200 1    
   157   80   81 1    
   158   80   82 1    
   159   80  201 1    
   160   81  202 1    
   161   81  203 1    
   162   81  204 1    
   163   82   83 2    
   164   82   84 am   BACKBONE|DICT|INTERRES
   165   84   85 1    
   166   84  205 1    
   167   85   86 1    
   168   85   87 1    
   169   85  206 1    
   170   86  207 1    
   171   86  208 1    
   172   86  209 1    
   173   87   88 2    
   174   87   89 am   BACKBONE|DICT|INTERRES
   175   89   90 1    
   176   89  210 1    
   177   90   91 1    
   178   90   92 1    
   179   90  211 1    
   180   91  212 1    
   181   91  213 1    
   182   91  214 1    
   183   92   93 2    
   184   92   94 am   BACKBONE|DICT|INTERRES
   185   94   95 1    
   186   94  215 1    
   187   95   96 1    
   188   95   97 1    
   189   95  216 1    
   190   96  217 1    
   191   96  218 1    
   192   96  219 1    
   193   97   98 2    
   194   97   99 am   BACKBONE|DICT|INTERRES
   195   99  100 1    
   196   99  220 1    
   197  100  101 1    
   198  100  102 1    
   199  100  221 1    
   200  101  222 1    
   201  101  223 1    
   202  101  224 1    
   203  102  103 2    
   204  102  104 am   BACKBONE|DICT|INTERRES
   205  104  105 1    
   206  104  225 1    
   207  105  106 1    
   208  105  107 1    
   209  105  226 1    
   210  106  227 1    
   211  106  228 1    
   212  106  229 1    
   213  107  108 2    
   214  107  109 am   BACKBONE|DICT|INTERRES
   215  109  110 1    
   216  109  230 1    
   217  110  111 1    
   218  110  112 1    
   219  110  231 1    
   220  111  232 1    
   221  111  233 1    
   222  111  234 1    
   223  112  113 2    
   224  112  114 am   BACKBONE|DICT|INTERRES
   225  114  115 1    
   226  114  235 1    
   227  115  116 1    
   228  115  117 1    
   229  115  236 1    
   230  116  237 1    
   231  116  238 1    
   232  116  239 1    
   233  117  118 2    
   234  117  119 am   BACKBONE|DICT|INTERRES
   235  119  120 1    
   236  119  240 1    
   237  120  121 1    
   238  120  124 1    
   239  120  241 1    
   240  121  122 am   BACKBONE|DICT|INTERRES
   241  121  123 2    
   242  122  242 1    
   243  122  243 1    
   244  124  125 1    
   245  124  244 1    
   246  124  245 1    
   247  125  126 1    
   248  126  246 1    
   249  126  247 1    
@<TRIPOS>SUBSTRUCTURE
     1 UNK         1 GROUP             0       ****    0 ROOT    
