@<TRIPOS>MOLECULE
3R540
247   249    1
SMALL
USER_CHARGES


@<TRIPOS>ATOM
      1 CA         -0.2393  -12.8609  -42.6807 C.3       0 UNK        -0.1800 
      2 C          -0.5301  -13.2712  -44.1175 C.2       0 UNK         0.5000 
      3 O           0.1702  -14.1179  -44.6661 O.2       0 UNK        -0.5000 
      4 N          -1.5726  -12.6786  -44.7099 N.am      1 UNK        -0.5000 
      5 CA         -2.0502  -12.8965  -46.0830 C.3       1 UNK         0.1400 
      6 C6         -2.5857  -14.3398  -46.3071 C.3       23 UNK        -0.0398 
      7 S7         -3.9311  -14.7943  -45.1579 S.3       23 UNK        -0.2404 
      8 C8         -5.4003  -14.6655  -46.2238 C.3       23 UNK        -0.0205 
      9 C9         -5.4058  -15.7180  -47.3226 C.ar      23 UNK        -0.0193 
     10 C10        -5.1623  -15.3524  -48.6488 C.ar      23 UNK        -0.1150 
     11 C11        -5.1706  -16.3114  -49.6644 C.ar      23 UNK        -0.0193 
     12 C12        -5.4416  -17.6451  -49.3467 C.ar      23 UNK        -0.1150 
     13 C13        -5.6825  -18.0272  -48.0207 C.ar      23 UNK        -0.0193 
     14 C14        -5.6638  -17.0564  -47.0150 C.ar      23 UNK        -0.1150 
     15 C15        -6.0107  -19.4732  -47.6685 C.3       23 UNK        -0.0205 
     16 S16        -4.8378  -20.6688  -48.3785 S.3       23 UNK        -0.2404 
     17 C17        -3.3454  -20.4344  -47.3544 C.3       23 UNK        -0.0398 
     18 CA         -2.5888  -21.7748  -47.1906 C.3       11 UNK         0.1400 
     19 N          -1.1574  -21.6047  -46.9342 N.am      11 UNK        -0.5000 
     20 C          -0.2665  -22.6051  -47.0091 C.2       10 UNK         0.5000 
     21 O          -0.5559  -23.7554  -47.3371 O.2       10 UNK        -0.5000 
     22 CA          1.1814  -22.2874  -46.6058 C.3       10 UNK         0.1400 
     23 CB          1.9270  -21.6033  -47.7610 C.3       10 UNK        -0.1800 
     24 N           1.2583  -21.4688  -45.3957 N.am      10 UNK        -0.5000 
     25 C           0.8135  -21.8563  -44.1910 C.2       9 UNK         0.5000 
     26 O           0.3354  -22.9672  -43.9655 O.2       9 UNK        -0.5000 
     27 CA          0.8595  -20.8165  -43.0579 C.3       9 UNK         0.1400 
     28 CB          2.2733  -20.7104  -42.4691 C.3       9 UNK        -0.1800 
     29 N           0.3986  -19.4952  -43.4836 N.am      9 UNK        -0.5000 
     30 C          -0.8359  -19.2260  -43.9339 C.2       8 UNK         0.5000 
     31 O          -1.7360  -20.0616  -44.0186 O.2       8 UNK        -0.5000 
     32 CA         -1.0922  -17.7890  -44.4174 C.3       8 UNK         0.1400 
     33 CB         -1.3240  -16.8538  -43.2214 C.3       8 UNK        -0.1800 
     34 N          -0.0008  -17.2832  -45.2523 N.am      8 UNK        -0.5000 
     35 C           0.3593  -17.8204  -46.4276 C.2       7 UNK         0.5000 
     36 O          -0.2359  -18.7581  -46.9618 O.2       7 UNK        -0.5000 
     37 CA          1.6294  -17.2546  -47.0872 C.3       7 UNK         0.1400 
     38 CB          1.3487  -15.9052  -47.7604 C.3       7 UNK        -0.1800 
     39 N           2.7314  -17.1090  -46.1348 N.am      7 UNK        -0.5000 
     40 C           3.3771  -18.1390  -45.5659 C.2       6 UNK         0.5000 
     41 O           3.1298  -19.3164  -45.8184 O.2       6 UNK        -0.5000 
     42 CA          4.4534  -17.8147  -44.5087 C.3       6 UNK         0.1400 
     43 CB          5.8274  -17.6506  -45.1746 C.3       6 UNK        -0.1800 
     44 N           4.1552  -16.6167  -43.7263 N.am      6 UNK        -0.5000 
     45 C           3.0457  -16.4287  -43.0009 C.2       5 UNK         0.5000 
     46 O           2.2158  -17.3142  -42.7911 O.2       5 UNK        -0.5000 
     47 CA          2.7846  -15.0123  -42.4533 C.3       5 UNK         0.1400 
     48 CB          3.0455  -14.9663  -40.9407 C.3       5 UNK        -0.1800 
     49 N           3.5124  -13.9043  -43.0907 N.am      5 UNK        -0.5000 
     50 C           3.5995  -13.6154  -44.3980 C.2       4 UNK         0.5000 
     51 O           3.1693  -14.3367  -45.2989 O.2       4 UNK        -0.5000 
     52 CA          4.2843  -12.2805  -44.7447 C.3       4 UNK         0.1400 
     53 CB          4.8071  -12.2515  -46.1918 C.3       4 UNK        -0.1800 
     54 N           3.3606  -11.1645  -44.5619 N.am      4 UNK        -0.5000 
     55 C           2.9899  -10.6216  -43.3982 C.2       3 UNK         0.5000 
     56 O           3.4323  -10.9915  -42.3097 O.2       3 UNK        -0.5000 
     57 CA          1.9442   -9.4853  -43.4442 C.3       3 UNK         0.1400 
     58 CB          2.6121   -8.1355  -43.7684 C.3       3 UNK        -0.1800 
     59 N           0.7816   -9.7293  -44.3159 N.am      3 UNK        -0.5000 
     60 C           0.7435   -9.8696  -45.6484 C.2       2 UNK         0.5000 
     61 O           1.7352   -9.8117  -46.3801 O.2       2 UNK        -0.5000 
     62 CA         -0.6311  -10.1371  -46.2782 C.3       2 UNK         0.1400 
     63 CB         -1.1048   -8.9116  -47.0746 C.3       2 UNK        -0.1800 
     64 N          -0.4717  -11.2637  -47.1937 N.am      2 UNK        -0.5000 
     65 C          -1.0132  -12.4908  -47.1682 C.2       1 UNK         0.5000 
     66 O          -0.6999  -13.3081  -48.0319 O.2       1 UNK        -0.5000 
     67 C          -3.2570  -22.7073  -46.1614 C.2       11 UNK         0.5000 
     68 O          -4.0088  -23.5962  -46.5583 O.2       11 UNK        -0.5000 
     69 N          -2.9354  -22.5320  -44.8728 N.am      12 UNK        -0.5000 
     70 CA         -3.4143  -23.3854  -43.7845 C.3       12 UNK         0.1400 
     71 CB         -2.9902  -22.7815  -42.4371 C.3       12 UNK        -0.1800 
     72 C          -2.9375  -24.8465  -43.9041 C.2       12 UNK         0.5000 
     73 O          -3.7132  -25.7607  -43.6223 O.2       12 UNK        -0.5000 
     74 N          -1.6794  -25.0379  -44.3216 N.am      13 UNK        -0.5000 
     75 CA         -1.0576  -26.3462  -44.5028 C.3       13 UNK         0.1400 
     76 CB          0.4708  -26.1857  -44.5433 C.3       13 UNK        -0.1800 
     77 C          -1.5615  -27.0844  -45.7553 C.2       13 UNK         0.5000 
     78 O          -1.9867  -28.2356  -45.6470 O.2       13 UNK        -0.5000 
     79 N          -1.4679  -26.4341  -46.9228 N.am      14 UNK        -0.5000 
     80 CA         -1.7008  -27.0696  -48.2213 C.3       14 UNK         0.1400 
     81 CB         -0.8396  -26.3709  -49.2859 C.3       14 UNK        -0.1800 
     82 C          -3.1745  -27.0711  -48.6581 C.2       14 UNK         0.5000 
     83 O          -3.5564  -27.9470  -49.4361 O.2       14 UNK        -0.5000 
     84 N          -3.9587  -26.0889  -48.1853 N.am      15 UNK        -0.5000 
     85 CA         -5.3081  -25.7398  -48.6503 C.3       15 UNK         0.1400 
     86 CB         -6.3020  -26.8941  -48.3937 C.3       15 UNK        -0.1800 
     87 C          -5.3110  -25.2573  -50.1193 C.2       15 UNK         0.5000 
     88 O          -4.2455  -25.0249  -50.6972 O.2       15 UNK        -0.5000 
     89 N          -6.5121  -25.0813  -50.6911 N.am      16 UNK        -0.5000 
     90 CA         -6.7772  -24.7552  -52.1002 C.3       16 UNK         0.1400 
     91 CB         -6.5064  -25.9945  -52.9792 C.3       16 UNK        -0.1800 
     92 C          -6.0257  -23.5021  -52.6004 C.2       16 UNK         0.5000 
     93 O          -5.3915  -23.5436  -53.6552 O.2       16 UNK        -0.5000 
     94 N          -6.0736  -22.4236  -51.8042 N.am      17 UNK        -0.5000 
     95 CA         -5.3695  -21.1524  -52.0201 C.3       17 UNK         0.1400 
     96 CB         -5.9283  -20.4145  -53.2542 C.3       17 UNK        -0.1800 
     97 C          -3.8350  -21.3282  -52.0585 C.2       17 UNK         0.5000 
     98 O          -3.1693  -20.7865  -52.9413 O.2       17 UNK        -0.5000 
     99 N          -3.3125  -22.1161  -51.1072 N.am      18 UNK        -0.5000 
    100 CA        -1.9097  -22.5201  -50.9619 C.3       18 UNK         0.1400 
    101 CB        -1.0182  -21.3033  -50.6298 C.3       18 UNK        -0.1800 
    102 C         -1.4213  -23.3186  -52.1857 C.2       18 UNK         0.5000 
    103 O         -0.3782  -23.0018  -52.7563 O.2       18 UNK        -0.5000 
    104 N         -2.2259  -24.3111  -52.5935 N.am      19 UNK        -0.5000 
    105 CA        -2.0852  -25.1145  -53.8134 C.3       19 UNK         0.1400 
    106 CB        -0.8782  -26.0682  -53.7002 C.3       19 UNK        -0.1800 
    107 C         -2.0574  -24.2392  -55.0874 C.2       19 UNK         0.5000 
    108 O         -1.1974  -24.4155  -55.9523 O.2       19 UNK        -0.5000 
    109 N         -3.0005  -23.2891  -55.1480 N.am      20 UNK        -0.5000 
    110 CA        -3.2154  -22.2791  -56.1875 C.3       20 UNK         0.1400 
    111 CB        -3.6000  -22.9472  -57.5241 C.3       20 UNK        -0.1800 
    112 C         -2.0741  -21.2492  -56.3445 C.2       20 UNK         0.5000 
    113 O         -2.0171  -20.5700  -57.3717 O.2       20 UNK        -0.5000 
    114 N         -1.1933  -21.1246  -55.3410 N.am      21 UNK        -0.5000 
    115 CA        -0.1262  -20.1223  -55.3155 C.3       21 UNK         0.1400 
    116 CB         0.9797  -20.5616  -54.3453 C.3       21 UNK        -0.1800 
    117 C         -0.6471  -18.7230  -54.9399 C.2       21 UNK         0.5000 
    118 O         -0.1264  -17.7299  -55.4503 O.2       21 UNK        -0.5000 
    119 N         -1.6557  -18.6664  -54.0617 N.am      22 UNK        -0.5000 
    120 CA        -2.3568  -17.4399  -53.6679 C.3       22 UNK         0.1400 
    121 C         -3.4976  -17.0927  -54.6664 C.2       22 UNK         0.5000 
    122 N         -3.8107  -15.8160  -54.8401 N.am      22 UNK        -0.7600 
    123 O         -4.1193  -17.9647  -55.2693 O.2       22 UNK        -0.5000 
    124 C124       -2.8635  -17.5421  -52.2047 C.3       23 UNK        -0.0398 
    125 S125       -3.1006  -15.8997  -51.4425 S.3       23 UNK        -0.2404 
    126 C126       -4.8881  -15.8925  -51.0986 C.3       23 UNK        -0.0205 
    127 H127       -0.8837  -12.0458  -42.3513 H         1 UNK         0.0600 
    128 H128        0.7952  -12.5338  -42.5842 H         1 UNK         0.0600 
    129 H129       -0.3952  -13.7074  -42.0121 H         1 UNK         0.0600 
    130 H130       -2.1313  -12.0351  -44.1684 H         1 UNK         0.3000 
    131 H131       -2.8936  -12.2183  -46.2209 H         1 UNK         0.0600 
    132 H132       -2.9347  -14.4582  -47.3322 H         1 UNK         0.0800 
    133 H133       -1.7839  -15.0700  -46.1886 H         1 UNK         0.0800 
    134 H134       -6.2931  -14.7861  -45.6086 H         1 UNK         0.0800 
    135 H135       -5.4539  -13.6603  -46.6449 H         1 UNK         0.0800 
    136 H136       -4.9573  -14.3194  -48.8930 H         1 UNK         0.1150 
    137 H137       -5.4614  -18.3860  -50.1319 H         1 UNK         0.1150 
    138 H138       -5.8559  -17.3372  -45.9888 H         1 UNK         0.1150 
    139 H139       -6.0553  -19.6167  -46.5878 H         1 UNK         0.0800 
    140 H140       -7.0075  -19.6994  -48.0486 H         1 UNK         0.0800 
    141 H141       -2.7177  -19.7022  -47.8643 H         1 UNK         0.0800 
    142 H142       -3.5989  -19.9953  -46.3877 H         1 UNK         0.0800 
    143 H143       -2.6472  -22.2964  -48.1463 H         1 UNK         0.0600 
    144 H144       -0.8370  -20.6731  -46.6878 H         1 UNK         0.3000 
    145 H145        1.6812  -23.2354  -46.3963 H         1 UNK         0.0600 
    146 H146        2.9818  -21.4675  -47.5224 H         1 UNK         0.0600 
    147 H147        1.8758  -22.2045  -48.6695 H         1 UNK         0.0600 
    148 H148        1.5065  -20.6239  -47.9903 H         1 UNK         0.0600 
    149 H149        1.6927  -20.5556  -45.4951 H         1 UNK         0.3000 
    150 H150        0.1888  -21.1579  -42.2669 H         1 UNK         0.0600 
    151 H151        2.3051  -20.0019  -41.6411 H         1 UNK         0.0600 
    152 H152        2.6089  -21.6751  -42.0868 H         1 UNK         0.0600 
    153 H153        2.9960  -20.3854  -43.2167 H         1 UNK         0.0600 
    154 H154        1.0669  -18.7326  -43.4106 H         1 UNK         0.3000 
    155 H155       -2.0012  -17.7981  -45.0230 H         1 UNK         0.0600 
    156 H156       -0.4209  -16.7209  -42.6256 H         1 UNK         0.0600 
    157 H157       -2.0992  -17.2467  -42.5624 H         1 UNK         0.0600 
    158 H158       -1.6556  -15.8717  -43.5511 H         1 UNK         0.0600 
    159 H159        0.5212  -16.4933  -44.8953 H         1 UNK         0.3000 
    160 H160        1.9412  -17.9581  -47.8622 H         1 UNK         0.0600 
    161 H161        1.0831  -15.1411  -47.0293 H         1 UNK         0.0600 
    162 H162        0.5227  -15.9828  -48.4687 H         1 UNK         0.0600 
    163 H163        2.2198  -15.5492  -48.3102 H         1 UNK         0.0600 
    164 H164        2.9610  -16.1599  -45.8478 H         1 UNK         0.3000 
    165 H165        4.5070  -18.6568  -43.8169 H         1 UNK         0.0600 
    166 H166        6.6115  -17.5025  -44.4319 H         1 UNK         0.0600 
    167 H167        6.0902  -18.5390  -45.7506 H         1 UNK         0.0600 
    168 H168        5.8441  -16.7996  -45.8569 H         1 UNK         0.0600 
    169 H169        4.7669  -15.8257  -43.8602 H         1 UNK         0.3000 
    170 H170        1.7237  -14.8285  -42.6130 H         1 UNK         0.0600 
    171 H171        2.4953  -15.7526  -40.4218 H         1 UNK         0.0600 
    172 H172        4.1037  -15.0998  -40.7130 H         1 UNK         0.0600 
    173 H173        2.7263  -14.0150  -40.5143 H         1 UNK         0.0600 
    174 H174        3.8670  -13.2022  -42.4535 H         1 UNK         0.3000 
    175 H175        5.1386  -12.1507  -44.0770 H         1 UNK         0.0600 
    176 H176        3.9949  -12.3274  -46.9163 H         1 UNK         0.0600 
    177 H177        5.3497  -11.3281  -46.3953 H         1 UNK         0.0600 
    178 H178        5.4925  -13.0795  -46.3768 H         1 UNK         0.0600 
    179 H179        2.9182  -10.7967  -45.4011 H         1 UNK         0.3000 
    180 H180        1.5364   -9.4069  -42.4350 H         1 UNK         0.0600 
    181 H181        3.0604   -8.1284  -44.7622 H         1 UNK         0.0600 
    182 H182        3.4053   -7.9131  -43.0536 H         1 UNK         0.0600 
    183 H183        1.8926   -7.3181  -43.7194 H         1 UNK         0.0600 
    184 H184       -0.0946   -9.7966  -43.8178 H         1 UNK         0.3000 
    185 H185       -1.3702  -10.3236  -45.5027 H         1 UNK         0.0600 
    186 H186       -1.2183   -8.0437  -46.4238 H         1 UNK         0.0600 
    187 H187       -0.4004   -8.6414  -47.8627 H         1 UNK         0.0600 
    188 H188       -2.0723   -9.0966  -47.5417 H         1 UNK         0.0600 
    189 H189        0.2397  -11.0995  -47.8916 H         1 UNK         0.3000 
    190 H190       -2.3341  -21.7537  -44.6129 H         1 UNK         0.3000 
    191 H191       -4.5055  -23.3906  -43.8242 H         1 UNK         0.0600 
    192 H192       -3.3903  -21.7751  -42.3130 H         1 UNK         0.0600 
    193 H193       -3.3581  -23.3836  -41.6055 H         1 UNK         0.0600 
    194 H194       -1.9053  -22.7227  -42.3461 H         1 UNK         0.0600 
    195 H195       -1.0847  -24.2274  -44.4677 H         1 UNK         0.3000 
    196 H196       -1.3014  -26.9623  -43.6346 H         1 UNK         0.0600 
    197 H197        0.9629  -27.1488  -44.6846 H         1 UNK         0.0600 
    198 H198        0.8456  -25.7630  -43.6110 H         1 UNK         0.0600 
    199 H199        0.7878  -25.5309  -45.3559 H         1 UNK         0.0600 
    200 H200       -1.1245  -25.4757  -46.9422 H         1 UNK         0.3000 
    201 H201       -1.3740  -28.1106  -48.1693 H         1 UNK         0.0600 
    202 H202        0.2155  -26.3800  -49.0123 H         1 UNK         0.0600 
    203 H203       -1.1412  -25.3339  -49.4275 H         1 UNK         0.0600 
    204 H204       -0.9315  -26.8699  -50.2512 H         1 UNK         0.0600 
    205 H205       -3.5496  -25.4132  -47.5505 H         1 UNK         0.3000 
    206 H206       -5.6320  -24.8902  -48.0500 H         1 UNK         0.0600 
    207 H207       -6.1980  -27.2836  -47.3809 H         1 UNK         0.0600 
    208 H208       -7.3341  -26.5599  -48.5006 H         1 UNK         0.0600 
    209 H209       -6.1549  -27.7227  -49.0871 H         1 UNK         0.0600 
    210 H210       -7.3332  -25.2566  -50.1291 H         1 UNK         0.3000 
    211 H211       -7.8404  -24.5227  -52.1745 H         1 UNK         0.0600 
    212 H212       -5.4523  -26.2741  -52.9683 H         1 UNK         0.0600 
    213 H213       -6.7865  -25.8098  -54.0170 H         1 UNK         0.0600 
    214 H214       -7.0832  -26.8537  -52.6371 H         1 UNK         0.0600 
    215 H215       -6.6028  -22.4938  -50.9465 H         1 UNK         0.3000 
    216 H216       -5.5867  -20.5289  -51.1546 H         1 UNK         0.0600 
    217 H217       -5.7039  -20.9398  -54.1822 H         1 UNK         0.0600 
    218 H218       -5.5021  -19.4148  -53.3369 H         1 UNK         0.0600 
    219 H219       -7.0099  -20.2989  -53.1880 H         1 UNK         0.0600 
    220 H220       -3.9574  -22.5660  -50.4733 H         1 UNK         0.3000 
    221 H221       -1.8668  -23.2052  -50.1157 H         1 UNK         0.0600 
    222 H222       -0.9646  -20.5978  -51.4587 H         1 UNK         0.0600 
    223 H223       -1.3907  -20.7620  -49.7613 H         1 UNK         0.0600 
    224 H224        0.0006  -21.6186  -50.4033 H         1 UNK         0.0600 
    225 H225       -3.0524  -24.5068  -52.0309 H         1 UNK         0.3000 
    226 H226       -2.9855  -25.7268  -53.8818 H         1 UNK         0.0600 
    227 H227       -0.9498  -26.6880  -52.8067 H         1 UNK         0.0600 
    228 H228       -0.8305  -26.7402  -54.5578 H         1 UNK         0.0600 
    229 H229        0.0663  -25.5252  -53.6573 H         1 UNK         0.0600 
    230 H230       -3.6932  -23.2716  -54.4024 H         1 UNK         0.3000 
    231 H231       -4.0789  -21.7027  -55.8537 H         1 UNK         0.0600 
    232 H232       -2.7614  -23.4891  -57.9618 H         1 UNK         0.0600 
    233 H233       -3.9263  -22.2060  -58.2545 H         1 UNK         0.0600 
    234 H234       -4.4224  -23.6501  -57.3904 H         1 UNK         0.0600 
    235 H235       -1.2997  -21.7063  -54.5194 H         1 UNK         0.3000 
    236 H236        0.3152  -20.0588  -56.3124 H         1 UNK         0.0600 
    237 H237        1.3540  -21.5546  -54.5948 H         1 UNK         0.0600 
    238 H238        1.8256  -19.8743  -54.3836 H         1 UNK         0.0600 
    239 H239        0.6258  -20.5848  -53.3146 H         1 UNK         0.0600 
    240 H240       -2.0820  -19.5336  -53.7408 H         1 UNK         0.3000 
    241 H241       -1.6294  -16.6263  -53.7075 H         1 UNK         0.0600 
    242 H242       -4.5520  -15.5757  -55.4794 H         1 UNK         0.3800 
    243 H243       -3.3310  -15.0846  -54.3383 H         1 UNK         0.3800 
    244 H244       -3.7723  -18.1406  -52.1391 H         1 UNK         0.0800 
    245 H245       -2.1262  -18.0633  -51.5920 H         1 UNK         0.0800 
    246 H246       -5.4222  -16.5311  -51.8038 H         1 UNK         0.0800 
    247 H247       -5.2687  -14.8835  -51.2648 H         1 UNK         0.0800 
@<TRIPOS>BOND
     1    1    2 1    
     2    1  127 1    
     3    1  128 1    
     4    1  129 1    
     5    2    3 2    
     6    2    4 am   BACKBONE|DICT|INTERRES
     7    4    5 1    
     8    4  130 1    
     9    5    6 1    
    10    5   65 1    
    11    5  131 1    
    12    6    7 1    
    13    6  132 1    
    14    6  133 1    
    15    7    8 1    
    16    8    9 1    
    17    8  134 1    
    18    8  135 1    
    19    9   10 ar   
    20    9   14 ar   
    21   10   11 ar   
    22   10  136 1    
    23   11   12 ar   
    24   11  126 1    
    25   12   13 ar   
    26   12  137 1    
    27   13   14 ar   
    28   13   15 1    
    29   14  138 1    
    30   15   16 1    
    31   15  139 1    
    32   15  140 1    
    33   16   17 1    
    34   17   18 1    
    35   17  141 1    
    36   17  142 1    
    37   18   19 1    
    38   18   67 1    
    39   18  143 1    
    40   19   20 am   BACKBONE|DICT|INTERRES
    41   19  144 1    
    42   20   21 2    
    43   20   22 1    
    44   22   23 1    
    45   22   24 1    
    46   22  145 1    
    47   23  146 1    
    48   23  147 1    
    49   23  148 1    
    50   24   25 am   BACKBONE|DICT|INTERRES
    51   24  149 1    
    52   25   26 2    
    53   25   27 1    
    54   27   28 1    
    55   27   29 1    
    56   27  150 1    
    57   28  151 1    
    58   28  152 1    
    59   28  153 1    
    60   29   30 am   BACKBONE|DICT|INTERRES
    61   29  154 1    
    62   30   31 2    
    63   30   32 1    
    64   32   33 1    
    65   32   34 1    
    66   32  155 1    
    67   33  156 1    
    68   33  157 1    
    69   33  158 1    
    70   34   35 am   BACKBONE|DICT|INTERRES
    71   34  159 1    
    72   35   36 2    
    73   35   37 1    
    74   37   38 1    
    75   37   39 1    
    76   37  160 1    
    77   38  161 1    
    78   38  162 1    
    79   38  163 1    
    80   39   40 am   BACKBONE|DICT|INTERRES
    81   39  164 1    
    82   40   41 2    
    83   40   42 1    
    84   42   43 1    
    85   42   44 1    
    86   42  165 1    
    87   43  166 1    
    88   43  167 1    
    89   43  168 1    
    90   44   45 am   BACKBONE|DICT|INTERRES
    91   44  169 1    
    92   45   46 2    
    93   45   47 1    
    94   47   48 1    
    95   47   49 1    
    96   47  170 1    
    97   48  171 1    
    98   48  172 1    
    99   48  173 1    
   100   49   50 am   BACKBONE|DICT|INTERRES
   101   49  174 1    
   102   50   51 2    
   103   50   52 1    
   104   52   53 1    
   105   52   54 1    
   106   52  175 1    
   107   53  176 1    
   108   53  177 1    
   109   53  178 1    
   110   54   55 am   BACKBONE|DICT|INTERRES
   111   54  179 1    
   112   55   56 2    
   113   55   57 1    
   114   57   58 1    
   115   57   59 1    
   116   57  180 1    
   117   58  181 1    
   118   58  182 1    
   119   58  183 1    
   120   59   60 am   BACKBONE|DICT|INTERRES
   121   59  184 1    
   122   60   61 2    
   123   60   62 1    
   124   62   63 1    
   125   62   64 1    
   126   62  185 1    
   127   63  186 1    
   128   63  187 1    
   129   63  188 1    
   130   64   65 am   BACKBONE|DICT|INTERRES
   131   64  189 1    
   132   65   66 2    
   133   67   68 2    
   134   67   69 am   BACKBONE|DICT|INTERRES
   135   69   70 1    
   136   69  190 1    
   137   70   71 1    
   138   70   72 1    
   139   70  191 1    
   140   71  192 1    
   141   71  193 1    
   142   71  194 1    
   143   72   73 2    
   144   72   74 am   BACKBONE|DICT|INTERRES
   145   74   75 1    
   146   74  195 1    
   147   75   76 1    
   148   75   77 1    
   149   75  196 1    
   150   76  197 1    
   151   76  198 1    
   152   76  199 1    
   153   77   78 2    
   154   77   79 am   BACKBONE|DICT|INTERRES
   155   79   80 1    
   156   79  200 1    
   157   80   81 1    
   158   80   82 1    
   159   80  201 1    
   160   81  202 1    
   161   81  203 1    
   162   81  204 1    
   163   82   83 2    
   164   82   84 am   BACKBONE|DICT|INTERRES
   165   84   85 1    
   166   84  205 1    
   167   85   86 1    
   168   85   87 1    
   169   85  206 1    
   170   86  207 1    
   171   86  208 1    
   172   86  209 1    
   173   87   88 2    
   174   87   89 am   BACKBONE|DICT|INTERRES
   175   89   90 1    
   176   89  210 1    
   177   90   91 1    
   178   90   92 1    
   179   90  211 1    
   180   91  212 1    
   181   91  213 1    
   182   91  214 1    
   183   92   93 2    
   184   92   94 am   BACKBONE|DICT|INTERRES
   185   94   95 1    
   186   94  215 1    
   187   95   96 1    
   188   95   97 1    
   189   95  216 1    
   190   96  217 1    
   191   96  218 1    
   192   96  219 1    
   193   97   98 2    
   194   97   99 am   BACKBONE|DICT|INTERRES
   195   99  100 1    
   196   99  220 1    
   197  100  101 1    
   198  100  102 1    
   199  100  221 1    
   200  101  222 1    
   201  101  223 1    
   202  101  224 1    
   203  102  103 2    
   204  102  104 am   BACKBONE|DICT|INTERRES
   205  104  105 1    
   206  104  225 1    
   207  105  106 1    
   208  105  107 1    
   209  105  226 1    
   210  106  227 1    
   211  106  228 1    
   212  106  229 1    
   213  107  108 2    
   214  107  109 am   BACKBONE|DICT|INTERRES
   215  109  110 1    
   216  109  230 1    
   217  110  111 1    
   218  110  112 1    
   219  110  231 1    
   220  111  232 1    
   221  111  233 1    
   222  111  234 1    
   223  112  113 2    
   224  112  114 am   BACKBONE|DICT|INTERRES
   225  114  115 1    
   226  114  235 1    
   227  115  116 1    
   228  115  117 1    
   229  115  236 1    
   230  116  237 1    
   231  116  238 1    
   232  116  239 1    
   233  117  118 2    
   234  117  119 am   BACKBONE|DICT|INTERRES
   235  119  120 1    
   236  119  240 1    
   237  120  121 1    
   238  120  124 1    
   239  120  241 1    
   240  121  122 am   BACKBONE|DICT|INTERRES
   241  121  123 2    
   242  122  242 1    
   243  122  243 1    
   244  124  125 1    
   245  124  244 1    
   246  124  245 1    
   247  125  126 1    
   248  126  246 1    
   249  126  247 1    
@<TRIPOS>SUBSTRUCTURE
     1 UNK         1 GROUP             0       ****    0 ROOT    
