@<TRIPOS>MOLECULE
3R540
247   249    1
SMALL
USER_CHARGES


@<TRIPOS>ATOM
      1 CA         -1.3326   -9.8846  -45.5386 C.3       0 UNK        -0.1800 
      2 C          -0.4205  -11.0508  -45.8865 C.2       0 UNK         0.5000 
      3 O           0.2015  -11.6267  -44.9942 O.2       0 UNK        -0.5000 
      4 N          -0.3241  -11.3977  -47.1784 N.am      1 UNK        -0.5000 
      5 CA          0.4747  -12.5151  -47.7083 C.3       1 UNK         0.1400 
      6 C6         -0.0477  -13.8893  -47.1982 C.3       23 UNK        -0.0398 
      7 S7          0.3115  -15.2784  -48.3249 S.3       23 UNK        -0.2404 
      8 C8         -1.2783  -15.5071  -49.1759 C.3       23 UNK        -0.0205 
      9 C9         -1.2123  -16.6728  -50.1514 C.ar      23 UNK        -0.0193 
     10 C10        -0.3815  -16.5955  -51.2725 C.ar      23 UNK        -0.1150 
     11 C11        -0.3107  -17.6520  -52.1836 C.ar      23 UNK        -0.0193 
     12 C12        -1.0959  -18.7903  -51.9752 C.ar      23 UNK        -0.1150 
     13 C13        -1.9261  -18.8857  -50.8526 C.ar      23 UNK        -0.0193 
     14 C14        -1.9782  -17.8243  -49.9428 C.ar      23 UNK        -0.1150 
     15 C15        -2.7750  -20.1306  -50.6321 C.3       23 UNK        -0.0205 
     16 S16        -1.7694  -21.5703  -50.1493 S.3       23 UNK        -0.2404 
     17 C17        -1.2616  -21.1105  -48.4573 C.3       23 UNK        -0.0398 
     18 CA         -0.9363  -22.3399  -47.5727 C.3       11 UNK         0.1400 
     19 N          -0.1364  -21.9726  -46.3985 N.am      11 UNK        -0.5000 
     20 C           0.4245  -22.8463  -45.5491 C.2       10 UNK         0.5000 
     21 O           0.3717  -24.0661  -45.6936 O.2       10 UNK        -0.5000 
     22 CA          1.1072  -22.2720  -44.2943 C.3       10 UNK         0.1400 
     23 CB          2.5172  -21.7588  -44.6189 C.3       10 UNK        -0.1800 
     24 N           0.3160  -21.2144  -43.6637 N.am      10 UNK        -0.5000 
     25 C          -0.8982  -21.4033  -43.1257 C.2       9 UNK         0.5000 
     26 O          -1.4408  -22.5042  -43.0417 O.2       9 UNK        -0.5000 
     27 CA         -1.6603  -20.1507  -42.6561 C.3       9 UNK         0.1400 
     28 CB         -1.2181  -19.7316  -41.2465 C.3       9 UNK        -0.1800 
     29 N          -1.5056  -19.0245  -43.5761 N.am      9 UNK        -0.5000 
     30 C          -1.9217  -19.0137  -44.8507 C.2       8 UNK         0.5000 
     31 O          -2.5459  -19.9339  -45.3769 O.2       8 UNK        -0.5000 
     32 CA         -1.5107  -17.7975  -45.6966 C.3       8 UNK         0.1400 
     33 CB         -2.4363  -16.6010  -45.4287 C.3       8 UNK        -0.1800 
     34 N          -0.1165  -17.4265  -45.4498 N.am      8 UNK        -0.5000 
     35 C           0.9332  -18.1664  -45.8377 C.2       7 UNK         0.5000 
     36 O           0.8265  -19.2050  -46.4893 O.2       7 UNK        -0.5000 
     37 CA          2.3288  -17.7059  -45.3747 C.3       7 UNK         0.1400 
     38 CB          2.9849  -16.7797  -46.4067 C.3       7 UNK        -0.1800 
     39 N           2.2972  -17.0380  -44.0735 N.am      7 UNK        -0.5000 
     40 C           2.0924  -17.6685  -42.9096 C.2       6 UNK         0.5000 
     41 O           1.9436  -18.8860  -42.8109 O.2       6 UNK        -0.5000 
     42 CA          1.9774  -16.7771  -41.6588 C.3       6 UNK         0.1400 
     43 CB          3.3667  -16.4393  -41.1007 C.3       6 UNK        -0.1800 
     44 N           1.2343  -15.5383  -41.9120 N.am      6 UNK        -0.5000 
     45 C          -0.0622  -15.4964  -42.2501 C.2       5 UNK         0.5000 
     46 O          -0.7424  -16.5114  -42.3972 O.2       5 UNK        -0.5000 
     47 CA         -0.7150  -14.1289  -42.5335 C.3       5 UNK         0.1400 
     48 CB         -1.9106  -13.8665  -41.5974 C.3       5 UNK        -0.1800 
     49 N           0.2032  -12.9858  -42.5657 N.am      5 UNK        -0.5000 
     50 C           0.8598  -12.3978  -41.5581 C.2       4 UNK         0.5000 
     51 O           0.8284  -12.7845  -40.3890 O.2       4 UNK        -0.5000 
     52 CA          1.7289  -11.1943  -41.9723 C.3       4 UNK         0.1400 
     53 CB          2.3812  -10.4681  -40.7768 C.3       4 UNK        -0.1800 
     54 N           2.7312  -11.5723  -42.9767 N.am      4 UNK        -0.5000 
     55 C           3.7417  -12.4428  -42.8289 C.2       3 UNK         0.5000 
     56 O           3.9614  -13.0565  -41.7846 O.2       3 UNK        -0.5000 
     57 CA          4.6558  -12.6965  -44.0471 C.3       3 UNK         0.1400 
     58 CB          4.8725  -14.2017  -44.2746 C.3       3 UNK        -0.1800 
     59 N           4.1510  -12.1200  -45.2930 N.am      3 UNK        -0.5000 
     60 C           4.3629  -10.8795  -45.7417 C.2       2 UNK         0.5000 
     61 O           4.9781  -10.0243  -45.1049 O.2       2 UNK        -0.5000 
     62 CA          3.7801  -10.5231  -47.1271 C.3       2 UNK         0.1400 
     63 CB          4.7553  -10.9207  -48.2512 C.3       2 UNK        -0.1800 
     64 N           2.4267  -11.0406  -47.3888 N.am      2 UNK        -0.5000 
     65 C           1.9988  -12.3100  -47.4965 C.2       1 UNK         0.5000 
     66 O           2.7478  -13.2822  -47.3997 O.2       1 UNK        -0.5000 
     67 C          -2.2076  -23.1251  -47.1798 C.2       11 UNK         0.5000 
     68 O          -2.5091  -24.1460  -47.7998 O.2       11 UNK        -0.5000 
     69 N          -2.9049  -22.6689  -46.1304 N.am      12 UNK        -0.5000 
     70 CA         -4.0740  -23.3356  -45.5553 C.3       12 UNK         0.1400 
     71 CB         -4.7231  -22.4246  -44.5037 C.3       12 UNK        -0.1800 
     72 C          -3.7596  -24.7230  -44.9667 C.2       12 UNK         0.5000 
     73 O          -4.5863  -25.6265  -45.0826 O.2       12 UNK        -0.5000 
     74 N          -2.5760  -24.8751  -44.3620 N.am      13 UNK        -0.5000 
     75 CA         -2.0983  -26.1338  -43.7987 C.3       13 UNK         0.1400 
     76 CB         -0.9856  -25.8470  -42.7774 C.3       13 UNK        -0.1800 
     77 C          -1.6136  -27.1177  -44.8786 C.2       13 UNK         0.5000 
     78 O          -2.0603  -28.2653  -44.8986 O.2       13 UNK        -0.5000 
     79 N          -0.6859  -26.6672  -45.7329 N.am      14 UNK        -0.5000 
     80 CA          0.0593  -27.5261  -46.6538 C.3       14 UNK         0.1400 
     81 CB          1.4331  -26.8948  -46.9292 C.3       14 UNK        -0.1800 
     82 C          -0.6691  -27.7969  -47.9791 C.2       14 UNK         0.5000 
     83 O          -0.5298  -28.8940  -48.5217 O.2       14 UNK        -0.5000 
     84 N          -1.4025  -26.8010  -48.4910 N.am      15 UNK        -0.5000 
     85 CA         -2.0290  -26.8295  -49.8158 C.3       15 UNK         0.1400 
     86 CB         -1.4200  -25.7026  -50.6708 C.3       15 UNK        -0.1800 
     87 C          -3.5599  -26.7033  -49.7430 C.2       15 UNK         0.5000 
     88 O          -4.1937  -26.5223  -50.7828 O.2       15 UNK        -0.5000 
     89 N          -4.1333  -26.7518  -48.5295 N.am      16 UNK        -0.5000 
     90 CA         -5.5633  -26.5962  -48.2190 C.3       16 UNK         0.1400 
     91 CB         -6.3655  -27.7885  -48.7815 C.3       16 UNK        -0.1800 
     92 C          -6.1561  -25.2365  -48.6601 C.2       16 UNK         0.5000 
     93 O          -7.3733  -25.1234  -48.8120 O.2       16 UNK        -0.5000 
     94 N          -5.2817  -24.2438  -48.8939 N.am      17 UNK        -0.5000 
     95 CA         -5.5454  -22.9455  -49.5227 C.3       17 UNK         0.1400 
     96 CB         -6.3957  -22.0434  -48.6042 C.3       17 UNK        -0.1800 
     97 C          -6.1175  -23.0563  -50.9563 C.2       17 UNK         0.5000 
     98 O          -6.7966  -22.1362  -51.4142 O.2       17 UNK        -0.5000 
     99 N          -5.8330  -24.1708  -51.6506 N.am      18 UNK        -0.5000 
    100 CA        -6.3333  -24.4618  -52.9977 C.3       18 UNK         0.1400 
    101 CB        -6.1311  -25.9531  -53.3037 C.3       18 UNK        -0.1800 
    102 C         -5.6849  -23.5953  -54.0928 C.2       18 UNK         0.5000 
    103 O         -6.2756  -23.4268  -55.1611 O.2       18 UNK        -0.5000 
    104 N         -4.4981  -23.0417  -53.8096 N.am      19 UNK        -0.5000 
    105 CA        -3.7691  -22.1016  -54.6596 C.3       19 UNK         0.1400 
    106 CB        -2.2834  -22.1204  -54.2569 C.3       19 UNK        -0.1800 
    107 C         -4.3892  -20.6899  -54.5945 C.2       19 UNK         0.5000 
    108 O         -3.7442  -19.7460  -54.1344 O.2       19 UNK        -0.5000 
    109 N         -5.6461  -20.5738  -55.0426 N.am      20 UNK        -0.5000 
    110 CA        -6.4026  -19.3267  -55.1461 C.3       20 UNK         0.1400 
    111 CB        -7.8294  -19.6378  -55.6218 C.3       20 UNK        -0.1800 
    112 C         -5.7018  -18.3445  -56.1001 C.2       20 UNK         0.5000 
    113 O         -5.3999  -18.7166  -57.2373 O.2       20 UNK        -0.5000 
    114 N         -5.3892  -17.1433  -55.5924 N.am      21 UNK        -0.5000 
    115 CA        -4.5676  -16.1077  -56.2376 C.3       21 UNK         0.1400 
    116 CB        -5.3248  -15.4791  -57.4262 C.3       21 UNK        -0.1800 
    117 C         -3.1531  -16.6050  -56.6234 C.2       21 UNK         0.5000 
    118 O         -2.5730  -16.1214  -57.5970 O.2       21 UNK        -0.5000 
    119 N         -2.6444  -17.5829  -55.8608 N.am      22 UNK        -0.5000 
    120 CA        -1.4025  -18.3365  -56.0923 C.3       22 UNK         0.1400 
    121 C         -1.4613  -19.3209  -57.3008 C.2       22 UNK         0.5000 
    122 N         -2.6229  -19.6120  -57.8770 N.am      22 UNK        -0.7600 
    123 O         -0.4377  -19.8635  -57.7076 O.2       22 UNK        -0.5000 
    124 C124       -0.1190  -17.4591  -56.0950 C.3       23 UNK        -0.0398 
    125 S125        0.0285  -16.3885  -54.6236 S.3       23 UNK        -0.2404 
    126 C126        0.6368  -17.5621  -53.3709 C.3       23 UNK        -0.0205 
    127 H127       -1.8163   -9.4698  -46.4231 H         1 UNK         0.0600 
    128 H128       -0.7590   -9.0915  -45.0590 H         1 UNK         0.0600 
    129 H129       -2.1087  -10.2116  -44.8467 H         1 UNK         0.0600 
    130 H130       -0.8522  -10.8784  -47.8668 H         1 UNK         0.3000 
    131 H131        0.3236  -12.4826  -48.7883 H         1 UNK         0.0600 
    132 H132       -1.1281  -13.8428  -47.0599 H         1 UNK         0.0800 
    133 H133        0.3615  -14.1215  -46.2137 H         1 UNK         0.0800 
    134 H134       -1.5352  -14.5958  -49.7177 H         1 UNK         0.0800 
    135 H135       -2.0668  -15.6681  -48.4399 H         1 UNK         0.0800 
    136 H136        0.2199  -15.7113  -51.4319 H         1 UNK         0.1150 
    137 H137       -1.0553  -19.6103  -52.6780 H         1 UNK         0.1150 
    138 H138       -2.6207  -17.8920  -49.0765 H         1 UNK         0.1150 
    139 H139       -3.5436  -19.9521  -49.8786 H         1 UNK         0.0800 
    140 H140       -3.3076  -20.3661  -51.5536 H         1 UNK         0.0800 
    141 H141       -2.0272  -20.4869  -47.9933 H         1 UNK         0.0800 
    142 H142       -0.3785  -20.4777  -48.5556 H         1 UNK         0.0800 
    143 H143       -0.3145  -23.0176  -48.1620 H         1 UNK         0.0600 
    144 H144        0.0001  -20.9795  -46.2363 H         1 UNK         0.3000 
    145 H145        1.2061  -23.0838  -43.5707 H         1 UNK         0.0600 
    146 H146        3.0134  -21.3745  -43.7275 H         1 UNK         0.0600 
    147 H147        2.4980  -20.9631  -45.3623 H         1 UNK         0.0600 
    148 H148        3.1390  -22.5613  -45.0173 H         1 UNK         0.0600 
    149 H149        0.7298  -20.2890  -43.6268 H         1 UNK         0.3000 
    150 H150       -2.7219  -20.4023  -42.6170 H         1 UNK         0.0600 
    151 H151       -1.3604  -20.5459  -40.5351 H         1 UNK         0.0600 
    152 H152       -1.7983  -18.8807  -40.8889 H         1 UNK         0.0600 
    153 H153       -0.1652  -19.4516  -41.2191 H         1 UNK         0.0600 
    154 H154       -1.0491  -18.1953  -43.2051 H         1 UNK         0.3000 
    155 H155       -1.6064  -18.0693  -46.7499 H         1 UNK         0.0600 
    156 H156       -2.4494  -16.3184  -44.3767 H         1 UNK         0.0600 
    157 H157       -3.4623  -16.8383  -45.7123 H         1 UNK         0.0600 
    158 H158       -2.1352  -15.7283  -46.0049 H         1 UNK         0.0600 
    159 H159        0.0474  -16.6159  -44.8749 H         1 UNK         0.3000 
    160 H160        2.9526  -18.5976  -45.2878 H         1 UNK         0.0600 
    161 H161        2.4981  -15.8059  -46.4384 H         1 UNK         0.0600 
    162 H162        2.9353  -17.2066  -47.4094 H         1 UNK         0.0600 
    163 H163        4.0376  -16.6173  -46.1755 H         1 UNK         0.0600 
    164 H164        2.3999  -16.0352  -44.0674 H         1 UNK         0.3000 
    165 H165        1.4348  -17.3429  -40.8986 H         1 UNK         0.0600 
    166 H166        3.2922  -15.8524  -40.1850 H         1 UNK         0.0600 
    167 H167        3.9227  -17.3468  -40.8619 H         1 UNK         0.0600 
    168 H168        3.9606  -15.8689  -41.8146 H         1 UNK         0.0600 
    169 H169        1.7269  -14.6669  -41.7715 H         1 UNK         0.3000 
    170 H170       -1.1119  -14.1998  -43.5472 H         1 UNK         0.0600 
    171 H171       -2.6614  -14.6516  -41.6954 H         1 UNK         0.0600 
    172 H172       -1.6100  -13.8363  -40.5500 H         1 UNK         0.0600 
    173 H173       -2.3984  -12.9213  -41.8358 H         1 UNK         0.0600 
    174 H174        0.3086  -12.5575  -43.4860 H         1 UNK         0.3000 
    175 H175        1.0595  -10.4821  -42.4576 H         1 UNK         0.0600 
    176 H176        3.0438  -11.1222  -40.2096 H         1 UNK         0.0600 
    177 H177        2.9633   -9.6086  -41.1091 H         1 UNK         0.0600 
    178 H178        1.6215  -10.0991  -40.0870 H         1 UNK         0.0600 
    179 H179        2.6047  -11.1639  -43.8920 H         1 UNK         0.3000 
    180 H180        5.6244  -12.2479  -43.8176 H         1 UNK         0.0600 
    181 H181        5.5149  -14.3830  -45.1366 H         1 UNK         0.0600 
    182 H182        3.9280  -14.7153  -44.4479 H         1 UNK         0.0600 
    183 H183        5.3531  -14.6676  -43.4139 H         1 UNK         0.0600 
    184 H184        3.6396  -12.7451  -45.9127 H         1 UNK         0.3000 
    185 H185        3.6855   -9.4363  -47.1498 H         1 UNK         0.0600 
    186 H186        4.9212  -11.9977  -48.2869 H         1 UNK         0.0600 
    187 H187        4.3824  -10.6062  -49.2259 H         1 UNK         0.0600 
    188 H188        5.7275  -10.4477  -48.1073 H         1 UNK         0.0600 
    189 H189        1.7131  -10.3279  -47.4501 H         1 UNK         0.3000 
    190 H190       -2.6278  -21.7881  -45.7039 H         1 UNK         0.3000 
    191 H191       -4.7985  -23.4858  -46.3540 H         1 UNK         0.0600 
    192 H192       -5.0045  -21.4636  -44.9346 H         1 UNK         0.0600 
    193 H193       -4.0521  -22.2329  -43.6670 H         1 UNK         0.0600 
    194 H194       -5.6289  -22.8788  -44.1004 H         1 UNK         0.0600 
    195 H195       -1.9806  -24.0625  -44.2428 H         1 UNK         0.3000 
    196 H196       -2.9231  -26.6083  -43.2624 H         1 UNK         0.0600 
    197 H197       -1.3535  -25.2243  -41.9617 H         1 UNK         0.0600 
    198 H198       -0.1395  -25.3311  -43.2322 H         1 UNK         0.0600 
    199 H199       -0.6100  -26.7716  -42.3375 H         1 UNK         0.0600 
    200 H200       -0.3721  -25.6998  -45.6644 H         1 UNK         0.3000 
    201 H201        0.2324  -28.4900  -46.1701 H         1 UNK         0.0600 
    202 H202        1.9848  -26.7301  -46.0035 H         1 UNK         0.0600 
    203 H203        1.3404  -25.9348  -47.4389 H         1 UNK         0.0600 
    204 H204        2.0419  -27.5432  -47.5605 H         1 UNK         0.0600 
    205 H205       -1.4993  -25.9307  -47.9780 H         1 UNK         0.3000 
    206 H206       -1.8272  -27.7759  -50.3206 H         1 UNK         0.0600 
    207 H207       -1.6428  -24.7177  -50.2605 H         1 UNK         0.0600 
    208 H208       -0.3363  -25.7996  -50.7351 H         1 UNK         0.0600 
    209 H209       -1.8064  -25.7266  -51.6905 H         1 UNK         0.0600 
    210 H210       -3.5234  -26.8720  -47.7332 H         1 UNK         0.3000 
    211 H211       -5.6546  -26.6327  -47.1351 H         1 UNK         0.0600 
    212 H212       -6.3978  -27.7781  -49.8715 H         1 UNK         0.0600 
    213 H213       -7.3960  -27.7711  -48.4252 H         1 UNK         0.0600 
    214 H214       -5.9326  -28.7383  -48.4674 H         1 UNK         0.0600 
    215 H215       -4.3037  -24.4342  -48.6972 H         1 UNK         0.3000 
    216 H216       -4.5723  -22.4678  -49.6319 H         1 UNK         0.0600 
    217 H217       -6.5080  -21.0453  -49.0291 H         1 UNK         0.0600 
    218 H218       -5.9304  -21.9182  -47.6277 H         1 UNK         0.0600 
    219 H219       -7.3967  -22.4473  -48.4521 H         1 UNK         0.0600 
    220 H220       -5.2722  -24.8983  -51.2163 H         1 UNK         0.3000 
    221 H221       -7.4058  -24.2569  -53.0107 H         1 UNK         0.0600 
    222 H222       -5.0731  -26.2158  -53.3397 H         1 UNK         0.0600 
    223 H223       -6.6068  -26.5799  -52.5490 H         1 UNK         0.0600 
    224 H224       -6.5669  -26.2167  -54.2682 H         1 UNK         0.0600 
    225 H225       -4.1031  -23.2230  -52.8990 H         1 UNK         0.3000 
    226 H226       -3.8344  -22.4372  -55.6967 H         1 UNK         0.0600 
    227 H227       -1.8589  -23.1184  -54.3669 H         1 UNK         0.0600 
    228 H228       -1.6982  -21.4502  -54.8869 H         1 UNK         0.0600 
    229 H229       -2.1400  -21.8101  -53.2222 H         1 UNK         0.0600 
    230 H230       -6.1025  -21.4149  -55.3780 H         1 UNK         0.3000 
    231 H231       -6.4589  -18.8856  -54.1488 H         1 UNK         0.0600 
    232 H232       -8.4241  -18.7263  -55.6933 H         1 UNK         0.0600 
    233 H233       -8.3393  -20.3058  -54.9273 H         1 UNK         0.0600 
    234 H234       -7.8320  -20.1106  -56.6049 H         1 UNK         0.0600 
    235 H235       -5.6590  -16.9444  -54.6388 H         1 UNK         0.3000 
    236 H236       -4.4173  -15.3262  -55.4915 H         1 UNK         0.0600 
    237 H237       -5.4529  -16.1875  -58.2452 H         1 UNK         0.0600 
    238 H238       -6.3132  -15.1322  -57.1249 H         1 UNK         0.0600 
    239 H239       -4.7869  -14.6167  -57.8215 H         1 UNK         0.0600 
    240 H240       -3.2105  -17.9468  -55.1028 H         1 UNK         0.3000 
    241 H241       -1.3220  -18.9941  -55.2271 H         1 UNK         0.0600 
    242 H242       -2.6360  -20.2544  -58.6529 H         1 UNK         0.3800 
    243 H243       -3.4904  -19.1812  -57.5744 H         1 UNK         0.3800 
    244 H244       -0.0966  -16.8228  -56.9804 H         1 UNK         0.0800 
    245 H245        0.7753  -18.0812  -56.1573 H         1 UNK         0.0800 
    246 H246        1.6166  -17.2300  -53.0245 H         1 UNK         0.0800 
    247 H247        0.7913  -18.5494  -53.8083 H         1 UNK         0.0800 
@<TRIPOS>BOND
     1    1    2 1    
     2    1  127 1    
     3    1  128 1    
     4    1  129 1    
     5    2    3 2    
     6    2    4 am   BACKBONE|DICT|INTERRES
     7    4    5 1    
     8    4  130 1    
     9    5    6 1    
    10    5   65 1    
    11    5  131 1    
    12    6    7 1    
    13    6  132 1    
    14    6  133 1    
    15    7    8 1    
    16    8    9 1    
    17    8  134 1    
    18    8  135 1    
    19    9   10 ar   
    20    9   14 ar   
    21   10   11 ar   
    22   10  136 1    
    23   11   12 ar   
    24   11  126 1    
    25   12   13 ar   
    26   12  137 1    
    27   13   14 ar   
    28   13   15 1    
    29   14  138 1    
    30   15   16 1    
    31   15  139 1    
    32   15  140 1    
    33   16   17 1    
    34   17   18 1    
    35   17  141 1    
    36   17  142 1    
    37   18   19 1    
    38   18   67 1    
    39   18  143 1    
    40   19   20 am   BACKBONE|DICT|INTERRES
    41   19  144 1    
    42   20   21 2    
    43   20   22 1    
    44   22   23 1    
    45   22   24 1    
    46   22  145 1    
    47   23  146 1    
    48   23  147 1    
    49   23  148 1    
    50   24   25 am   BACKBONE|DICT|INTERRES
    51   24  149 1    
    52   25   26 2    
    53   25   27 1    
    54   27   28 1    
    55   27   29 1    
    56   27  150 1    
    57   28  151 1    
    58   28  152 1    
    59   28  153 1    
    60   29   30 am   BACKBONE|DICT|INTERRES
    61   29  154 1    
    62   30   31 2    
    63   30   32 1    
    64   32   33 1    
    65   32   34 1    
    66   32  155 1    
    67   33  156 1    
    68   33  157 1    
    69   33  158 1    
    70   34   35 am   BACKBONE|DICT|INTERRES
    71   34  159 1    
    72   35   36 2    
    73   35   37 1    
    74   37   38 1    
    75   37   39 1    
    76   37  160 1    
    77   38  161 1    
    78   38  162 1    
    79   38  163 1    
    80   39   40 am   BACKBONE|DICT|INTERRES
    81   39  164 1    
    82   40   41 2    
    83   40   42 1    
    84   42   43 1    
    85   42   44 1    
    86   42  165 1    
    87   43  166 1    
    88   43  167 1    
    89   43  168 1    
    90   44   45 am   BACKBONE|DICT|INTERRES
    91   44  169 1    
    92   45   46 2    
    93   45   47 1    
    94   47   48 1    
    95   47   49 1    
    96   47  170 1    
    97   48  171 1    
    98   48  172 1    
    99   48  173 1    
   100   49   50 am   BACKBONE|DICT|INTERRES
   101   49  174 1    
   102   50   51 2    
   103   50   52 1    
   104   52   53 1    
   105   52   54 1    
   106   52  175 1    
   107   53  176 1    
   108   53  177 1    
   109   53  178 1    
   110   54   55 am   BACKBONE|DICT|INTERRES
   111   54  179 1    
   112   55   56 2    
   113   55   57 1    
   114   57   58 1    
   115   57   59 1    
   116   57  180 1    
   117   58  181 1    
   118   58  182 1    
   119   58  183 1    
   120   59   60 am   BACKBONE|DICT|INTERRES
   121   59  184 1    
   122   60   61 2    
   123   60   62 1    
   124   62   63 1    
   125   62   64 1    
   126   62  185 1    
   127   63  186 1    
   128   63  187 1    
   129   63  188 1    
   130   64   65 am   BACKBONE|DICT|INTERRES
   131   64  189 1    
   132   65   66 2    
   133   67   68 2    
   134   67   69 am   BACKBONE|DICT|INTERRES
   135   69   70 1    
   136   69  190 1    
   137   70   71 1    
   138   70   72 1    
   139   70  191 1    
   140   71  192 1    
   141   71  193 1    
   142   71  194 1    
   143   72   73 2    
   144   72   74 am   BACKBONE|DICT|INTERRES
   145   74   75 1    
   146   74  195 1    
   147   75   76 1    
   148   75   77 1    
   149   75  196 1    
   150   76  197 1    
   151   76  198 1    
   152   76  199 1    
   153   77   78 2    
   154   77   79 am   BACKBONE|DICT|INTERRES
   155   79   80 1    
   156   79  200 1    
   157   80   81 1    
   158   80   82 1    
   159   80  201 1    
   160   81  202 1    
   161   81  203 1    
   162   81  204 1    
   163   82   83 2    
   164   82   84 am   BACKBONE|DICT|INTERRES
   165   84   85 1    
   166   84  205 1    
   167   85   86 1    
   168   85   87 1    
   169   85  206 1    
   170   86  207 1    
   171   86  208 1    
   172   86  209 1    
   173   87   88 2    
   174   87   89 am   BACKBONE|DICT|INTERRES
   175   89   90 1    
   176   89  210 1    
   177   90   91 1    
   178   90   92 1    
   179   90  211 1    
   180   91  212 1    
   181   91  213 1    
   182   91  214 1    
   183   92   93 2    
   184   92   94 am   BACKBONE|DICT|INTERRES
   185   94   95 1    
   186   94  215 1    
   187   95   96 1    
   188   95   97 1    
   189   95  216 1    
   190   96  217 1    
   191   96  218 1    
   192   96  219 1    
   193   97   98 2    
   194   97   99 am   BACKBONE|DICT|INTERRES
   195   99  100 1    
   196   99  220 1    
   197  100  101 1    
   198  100  102 1    
   199  100  221 1    
   200  101  222 1    
   201  101  223 1    
   202  101  224 1    
   203  102  103 2    
   204  102  104 am   BACKBONE|DICT|INTERRES
   205  104  105 1    
   206  104  225 1    
   207  105  106 1    
   208  105  107 1    
   209  105  226 1    
   210  106  227 1    
   211  106  228 1    
   212  106  229 1    
   213  107  108 2    
   214  107  109 am   BACKBONE|DICT|INTERRES
   215  109  110 1    
   216  109  230 1    
   217  110  111 1    
   218  110  112 1    
   219  110  231 1    
   220  111  232 1    
   221  111  233 1    
   222  111  234 1    
   223  112  113 2    
   224  112  114 am   BACKBONE|DICT|INTERRES
   225  114  115 1    
   226  114  235 1    
   227  115  116 1    
   228  115  117 1    
   229  115  236 1    
   230  116  237 1    
   231  116  238 1    
   232  116  239 1    
   233  117  118 2    
   234  117  119 am   BACKBONE|DICT|INTERRES
   235  119  120 1    
   236  119  240 1    
   237  120  121 1    
   238  120  124 1    
   239  120  241 1    
   240  121  122 am   BACKBONE|DICT|INTERRES
   241  121  123 2    
   242  122  242 1    
   243  122  243 1    
   244  124  125 1    
   245  124  244 1    
   246  124  245 1    
   247  125  126 1    
   248  126  246 1    
   249  126  247 1    
@<TRIPOS>SUBSTRUCTURE
     1 UNK         1 GROUP             0       ****    0 ROOT    
