@<TRIPOS>MOLECULE
3R540
247   249    1
SMALL
USER_CHARGES


@<TRIPOS>ATOM
      1 CA          1.5678  -16.0734  -47.2222 C.3       0 UNK        -0.1800 
      2 C           1.7276  -15.1360  -48.4096 C.2       0 UNK         0.5000 
      3 O           0.8345  -14.3339  -48.6796 O.2       0 UNK        -0.5000 
      4 N           2.8616  -15.2330  -49.1169 N.am      1 UNK        -0.5000 
      5 CA          3.1609  -14.4438  -50.3199 C.3       1 UNK         0.1400 
      6 C6          4.3079  -15.0794  -51.1535 C.3       23 UNK        -0.0398 
      7 S7          3.9699  -14.9889  -52.9444 S.3       23 UNK        -0.2404 
      8 C8          3.4738  -16.7048  -53.3229 C.3       23 UNK        -0.0205 
      9 C9          2.3683  -17.2296  -52.4125 C.ar      23 UNK        -0.0193 
     10 C10         1.1427  -16.5657  -52.3265 C.ar      23 UNK        -0.1150 
     11 C11         0.1296  -17.0415  -51.4895 C.ar      23 UNK        -0.0193 
     12 C12         0.3426  -18.2099  -50.7496 C.ar      23 UNK        -0.1150 
     13 C13         1.5667  -18.8866  -50.8220 C.ar      23 UNK        -0.0193 
     14 C14         2.5723  -18.3869  -51.6558 C.ar      23 UNK        -0.1150 
     15 C15         1.8160  -20.1752  -50.0420 C.3       23 UNK        -0.0205 
     16 S16         1.3766  -20.0643  -48.2728 S.3       23 UNK        -0.2404 
     17 C17        -0.2918  -20.8018  -48.2584 C.3       23 UNK        -0.0398 
     18 CA         -0.3660  -22.0888  -47.3967 C.3       11 UNK         0.1400 
     19 N          -0.3093  -21.8265  -45.9529 N.am      11 UNK        -0.5000 
     20 C          -0.2892  -22.7731  -45.0003 C.2       10 UNK         0.5000 
     21 O          -0.2096  -23.9786  -45.2365 O.2       10 UNK        -0.5000 
     22 CA         -0.4615  -22.3079  -43.5416 C.3       10 UNK         0.1400 
     23 CB          0.8734  -21.8477  -42.9378 C.3       10 UNK        -0.1800 
     24 N          -1.4737  -21.2567  -43.4099 N.am      10 UNK        -0.5000 
     25 C          -2.7803  -21.4429  -43.6511 C.2       9 UNK         0.5000 
     26 O          -3.2670  -22.5377  -43.9296 O.2       9 UNK        -0.5000 
     27 CA         -3.6924  -20.2015  -43.6282 C.3       9 UNK         0.1400 
     28 CB         -4.1704  -19.8982  -42.2011 C.3       9 UNK        -0.1800 
     29 N          -3.0472  -19.0180  -44.1955 N.am      9 UNK        -0.5000 
     30 C          -2.6764  -18.8952  -45.4773 C.2       8 UNK         0.5000 
     31 O          -2.9259  -19.7397  -46.3371 O.2       8 UNK        -0.5000 
     32 CA         -1.8254  -17.6613  -45.8415 C.3       8 UNK         0.1400 
     33 CB         -2.7017  -16.4353  -46.1317 C.3       8 UNK        -0.1800 
     34 N          -0.8510  -17.3393  -44.7958 N.am      8 UNK        -0.5000 
     35 C           0.1767  -18.1356  -44.4680 C.2       7 UNK         0.5000 
     36 O           0.4399  -19.1774  -45.0641 O.2       7 UNK        -0.5000 
     37 CA          1.0101  -17.7412  -43.2381 C.3       7 UNK         0.1400 
     38 CB          2.1470  -16.7864  -43.6227 C.3       7 UNK        -0.1800 
     39 N           0.1787  -17.1317  -42.2012 N.am      7 UNK        -0.5000 
     40 C          -0.6250  -17.8286  -41.3854 C.2       6 UNK         0.5000 
     41 O          -0.7005  -19.0570  -41.3965 O.2       6 UNK        -0.5000 
     42 CA         -1.5225  -17.0223  -40.4249 C.3       6 UNK         0.1400 
     43 CB         -0.7784  -16.7257  -39.1146 C.3       6 UNK        -0.1800 
     44 N          -1.9977  -15.7641  -41.0034 N.am      6 UNK        -0.5000 
     45 C          -2.8066  -15.6737  -42.0684 C.2       5 UNK         0.5000 
     46 O          -3.2984  -16.6512  -42.6290 O.2       5 UNK        -0.5000 
     47 CA         -3.0698  -14.2663  -42.6414 C.3       5 UNK         0.1400 
     48 CB         -4.3870  -13.7025  -42.0891 C.3       5 UNK        -0.1800 
     49 N          -1.9931  -13.2986  -42.4012 N.am      5 UNK        -0.5000 
     50 C          -0.7155  -13.4445  -42.7791 C.2       4 UNK         0.5000 
     51 O          -0.2859  -14.4527  -43.3452 O.2       4 UNK        -0.5000 
     52 CA          0.2355  -12.2955  -42.3881 C.3       4 UNK         0.1400 
     53 CB          0.4573  -12.2828  -40.8657 C.3       4 UNK        -0.1800 
     54 N           1.5454  -12.3738  -43.0365 N.am      4 UNK        -0.5000 
     55 C           1.7807  -12.2322  -44.3461 C.2       3 UNK         0.5000 
     56 O           0.9070  -11.9952  -45.1853 O.2       3 UNK        -0.5000 
     57 CA          3.2519  -12.3516  -44.7763 C.3       3 UNK         0.1400 
     58 CB          3.8189  -13.7618  -44.5277 C.3       3 UNK        -0.1800 
     59 N           3.3782  -12.0337  -46.1934 N.am      3 UNK        -0.5000 
     60 C           4.4561  -11.5036  -46.7792 C.2       2 UNK         0.5000 
     61 O           5.4768  -11.1779  -46.1701 O.2       2 UNK        -0.5000 
     62 CA          4.3891  -11.3922  -48.3098 C.3       2 UNK         0.1400 
     63 CB          5.6954  -10.8782  -48.9478 C.3       2 UNK        -0.1800 
     64 N           4.0529  -12.7106  -48.8388 N.am      2 UNK        -0.5000 
     65 C           3.4469  -12.9596  -50.0040 C.2       1 UNK         0.5000 
     66 O           3.1096  -12.0834  -50.8014 O.2       1 UNK        -0.5000 
     67 C          -1.6116  -22.9191  -47.7655 C.2       11 UNK         0.5000 
     68 O          -1.4724  -23.9339  -48.4460 O.2       11 UNK        -0.5000 
     69 N          -2.7887  -22.5157  -47.2648 N.am      12 UNK        -0.5000 
     70 CA         -4.0559  -23.2240  -47.4567 C.3       12 UNK         0.1400 
     71 CB         -5.2039  -22.4090  -46.8447 C.3       12 UNK        -0.1800 
     72 C          -4.0450  -24.6534  -46.8846 C.2       12 UNK         0.5000 
     73 O          -4.4884  -25.5774  -47.5654 O.2       12 UNK        -0.5000 
     74 N          -3.5066  -24.8165  -45.6678 N.am      13 UNK        -0.5000 
     75 CA         -3.3533  -26.1037  -44.9847 C.3       13 UNK         0.1400 
     76 CB         -2.8845  -25.8650  -43.5416 C.3       13 UNK        -0.1800 
     77 C          -2.3982  -27.0668  -45.7154 C.2       13 UNK         0.5000 
     78 O          -2.6722  -28.2659  -45.7758 O.2       13 UNK        -0.5000 
     79 N          -1.3149  -26.5219  -46.2841 N.am      14 UNK        -0.5000 
     80 CA         -0.3553  -27.2460  -47.1207 C.3       14 UNK         0.1400 
     81 CB          0.9504  -26.4362  -47.1766 C.3       14 UNK        -0.1800 
     82 C          -0.8702  -27.5207  -48.5497 C.2       14 UNK         0.5000 
     83 O          -0.2520  -28.3076  -49.2673 O.2       14 UNK        -0.5000 
     84 N          -1.9585  -26.8428  -48.9455 N.am      15 UNK        -0.5000 
     85 CA         -2.5380  -26.7636  -50.2910 C.3       15 UNK         0.1400 
     86 CB         -3.0583  -28.1362  -50.7628 C.3       15 UNK        -0.1800 
     87 C          -1.5985  -26.0900  -51.3159 C.2       15 UNK         0.5000 
     88 O          -1.7414  -26.3055  -52.5214 O.2       15 UNK        -0.5000 
     89 N          -0.6735  -25.2547  -50.8261 N.am      16 UNK        -0.5000 
     90 CA          0.2372  -24.4373  -51.6176 C.3       16 UNK         0.1400 
     91 CB          1.3726  -23.9296  -50.7156 C.3       16 UNK        -0.1800 
     92 C          -0.5586  -23.2845  -52.2458 C.2       16 UNK         0.5000 
     93 O          -1.0591  -22.4263  -51.5180 O.2       16 UNK        -0.5000 
     94 N          -0.7209  -23.3440  -53.5747 N.am      17 UNK        -0.5000 
     95 CA         -1.6279  -22.5188  -54.3823 C.3       17 UNK         0.1400 
     96 CB         -1.2269  -21.0313  -54.3341 C.3       17 UNK        -0.1800 
     97 C          -3.1180  -22.7602  -54.0439 C.2       17 UNK         0.5000 
     98 O          -3.9432  -21.8621  -54.2131 O.2       17 UNK        -0.5000 
     99 N          -3.4296  -23.9821  -53.5837 N.am      18 UNK        -0.5000 
    100 CA        -4.7376  -24.5494  -53.2357 C.3       18 UNK         0.1400 
    101 CB        -5.6853  -24.5541  -54.4501 C.3       18 UNK        -0.1800 
    102 C         -5.4303  -23.9391  -52.0010 C.2       18 UNK         0.5000 
    103 O         -6.0159  -24.6918  -51.2221 O.2       18 UNK        -0.5000 
    104 N         -5.3768  -22.6145  -51.8361 N.am      19 UNK        -0.5000 
    105 CA        -6.0766  -21.8699  -50.7935 C.3       19 UNK         0.1400 
    106 CB        -7.5118  -21.5679  -51.2640 C.3       19 UNK        -0.1800 
    107 C         -5.3265  -20.5734  -50.4613 C.2       19 UNK         0.5000 
    108 O         -4.4428  -20.1573  -51.2126 O.2       19 UNK        -0.5000 
    109 N         -5.7368  -19.9326  -49.3577 N.am      20 UNK        -0.5000 
    110 CA        -5.1765  -18.6842  -48.8264 C.3       20 UNK         0.1400 
    111 CB        -5.8604  -18.3661  -47.4854 C.3       20 UNK        -0.1800 
    112 C         -5.3051  -17.4802  -49.7791 C.2       20 UNK         0.5000 
    113 O         -4.4875  -16.5632  -49.7105 O.2       20 UNK        -0.5000 
    114 N         -6.3216  -17.5119  -50.6524 N.am      21 UNK        -0.5000 
    115 CA        -6.5476  -16.5264  -51.7102 C.3       21 UNK         0.1400 
    116 CB        -7.9708  -16.7093  -52.2604 C.3       21 UNK        -0.1800 
    117 C         -5.5135  -16.6103  -52.8516 C.2       21 UNK         0.5000 
    118 O         -5.3196  -15.6139  -53.5475 O.2       21 UNK        -0.5000 
    119 N         -4.8910  -17.7888  -53.0148 N.am      22 UNK        -0.5000 
    120 CA        -3.8025  -18.1401  -53.9457 C.3       22 UNK         0.1400 
    121 C         -3.9820  -17.7769  -55.4532 C.2       22 UNK         0.5000 
    122 N         -5.1976  -17.5582  -55.9387 N.am      22 UNK        -0.7600 
    123 O         -3.0167  -17.7385  -56.2117 O.2       22 UNK        -0.5000 
    124 C124       -2.3891  -17.8428  -53.3700 C.3       23 UNK        -0.0398 
    125 S125       -2.0281  -16.0980  -52.9783 S.3       23 UNK        -0.2404 
    126 C126       -1.1841  -16.2779  -51.3727 C.3       23 UNK        -0.0205 
    127 H127        1.1400  -15.5368  -46.3753 H         1 UNK         0.0600 
    128 H128        2.5215  -16.4994  -46.9105 H         1 UNK         0.0600 
    129 H129        0.8973  -16.8923  -47.4822 H         1 UNK         0.0600 
    130 H130        3.5521  -15.9206  -48.8519 H         1 UNK         0.3000 
    131 H131        2.2478  -14.4526  -50.9181 H         1 UNK         0.0600 
    132 H132        5.2717  -14.6079  -50.9519 H         1 UNK         0.0800 
    133 H133        4.4485  -16.1276  -50.8870 H         1 UNK         0.0800 
    134 H134        4.3573  -17.3424  -53.2646 H         1 UNK         0.0800 
    135 H135        3.1305  -16.7523  -54.3571 H         1 UNK         0.0800 
    136 H136        0.9808  -15.6664  -52.9041 H         1 UNK         0.1150 
    137 H137       -0.4423  -18.5883  -50.1113 H         1 UNK         0.1150 
    138 H138        3.5177  -18.9067  -51.7234 H         1 UNK         0.1150 
    139 H139        1.2768  -20.9882  -50.5268 H         1 UNK         0.0800 
    140 H140        2.8714  -20.4459  -50.0959 H         1 UNK         0.0800 
    141 H141       -0.5962  -21.0074  -49.2857 H         1 UNK         0.0800 
    142 H142       -0.9902  -20.0495  -47.8991 H         1 UNK         0.0800 
    143 H143        0.5010  -22.7072  -47.6368 H         1 UNK         0.0600 
    144 H144       -0.2887  -20.8508  -45.6692 H         1 UNK         0.3000 
    145 H145       -0.8054  -23.1663  -42.9608 H         1 UNK         0.0600 
    146 H146        0.7479  -21.5145  -41.9074 H         1 UNK         0.0600 
    147 H147        1.5942  -22.6660  -42.9299 H         1 UNK         0.0600 
    148 H148        1.3195  -21.0313  -43.5032 H         1 UNK         0.0600 
    149 H149       -1.1508  -20.3381  -43.1339 H         1 UNK         0.3000 
    150 H150       -4.5703  -20.4248  -44.2379 H         1 UNK         0.0600 
    151 H151       -4.6891  -20.7569  -41.7732 H         1 UNK         0.0600 
    152 H152       -4.8652  -19.0583  -42.1888 H         1 UNK         0.0600 
    153 H153       -3.3393  -19.6539  -41.5400 H         1 UNK         0.0600 
    154 H154       -2.8871  -18.2382  -43.5634 H         1 UNK         0.3000 
    155 H155       -1.2694  -17.8960  -46.7512 H         1 UNK         0.0600 
    156 H156       -3.3914  -16.2243  -45.3148 H         1 UNK         0.0600 
    157 H157       -3.2955  -16.5934  -47.0317 H         1 UNK         0.0600 
    158 H158       -2.0947  -15.5455  -46.3010 H         1 UNK         0.0600 
    159 H159       -0.9929  -16.4877  -44.2689 H         1 UNK         0.3000 
    160 H160        1.4627  -18.6494  -42.8348 H         1 UNK         0.0600 
    161 H161        2.7646  -16.5392  -42.7593 H         1 UNK         0.0600 
    162 H162        1.7636  -15.8560  -44.0378 H         1 UNK         0.0600 
    163 H163        2.7984  -17.2372  -44.3724 H         1 UNK         0.0600 
    164 H164        0.1297  -16.1196  -42.2028 H         1 UNK         0.3000 
    165 H165       -2.3946  -17.6368  -40.1921 H         1 UNK         0.0600 
    166 H166       -1.4285  -16.2263  -38.3960 H         1 UNK         0.0600 
    167 H167       -0.4275  -17.6472  -38.6481 H         1 UNK         0.0600 
    168 H168        0.0919  -16.0892  -39.2803 H         1 UNK         0.0600 
    169 H169       -1.6395  -14.9116  -40.6000 H         1 UNK         0.3000 
    170 H170       -3.1725  -14.3725  -43.7227 H         1 UNK         0.0600 
    171 H171       -5.2147  -14.3883  -42.2759 H         1 UNK         0.0600 
    172 H172       -4.3339  -13.5376  -41.0122 H         1 UNK         0.0600 
    173 H173       -4.6408  -12.7542  -42.5631 H         1 UNK         0.0600 
    174 H174       -2.2616  -12.4497  -41.9245 H         1 UNK         0.3000 
    175 H175       -0.2323  -11.3548  -42.6853 H         1 UNK         0.0600 
    176 H176        0.9148  -13.2104  -40.5185 H         1 UNK         0.0600 
    177 H177        1.1061  -11.4584  -40.5688 H         1 UNK         0.0600 
    178 H178       -0.4819  -12.1582  -40.3255 H         1 UNK         0.0600 
    179 H179        2.3228  -12.5856  -42.4291 H         1 UNK         0.3000 
    180 H180        3.8177  -11.6265  -44.1873 H         1 UNK         0.0600 
    181 H181        3.3287  -14.5027  -45.1589 H         1 UNK         0.0600 
    182 H182        3.6942  -14.0714  -43.4898 H         1 UNK         0.0600 
    183 H183        4.8863  -13.7986  -44.7455 H         1 UNK         0.0600 
    184 H184        2.5436  -12.2101  -46.7392 H         1 UNK         0.3000 
    185 H185        3.5855  -10.6911  -48.5445 H         1 UNK         0.0600 
    186 H186        5.9630   -9.8969  -48.5543 H         1 UNK         0.0600 
    187 H187        6.5297  -11.5526  -48.7518 H         1 UNK         0.0600 
    188 H188        5.5953  -10.7758  -50.0284 H         1 UNK         0.0600 
    189 H189        4.2633  -13.4893  -48.2295 H         1 UNK         0.3000 
    190 H190       -2.8231  -21.6480  -46.7370 H         1 UNK         0.3000 
    191 H191       -4.2222  -23.2963  -48.5334 H         1 UNK         0.0600 
    192 H192       -5.1684  -22.4079  -45.7557 H         1 UNK         0.0600 
    193 H193       -6.1711  -22.8178  -47.1388 H         1 UNK         0.0600 
    194 H194       -5.1681  -21.3733  -47.1719 H         1 UNK         0.0600 
    195 H195       -3.2155  -23.9906  -45.1504 H         1 UNK         0.3000 
    196 H196       -4.3362  -26.5778  -44.9480 H         1 UNK         0.0600 
    197 H197       -2.7926  -26.8068  -42.9994 H         1 UNK         0.0600 
    198 H198       -3.5927  -25.2421  -42.9949 H         1 UNK         0.0600 
    199 H199       -1.9127  -25.3718  -43.5112 H         1 UNK         0.0600 
    200 H200       -1.1284  -25.5347  -46.1331 H         1 UNK         0.3000 
    201 H201       -0.1413  -28.2105  -46.6557 H         1 UNK         0.0600 
    202 H202        1.3601  -26.2795  -46.1785 H         1 UNK         0.0600 
    203 H203        0.7959  -25.4566  -47.6311 H         1 UNK         0.0600 
    204 H204        1.7108  -26.9540  -47.7625 H         1 UNK         0.0600 
    205 H205       -2.3735  -26.2121  -48.2712 H         1 UNK         0.3000 
    206 H206       -3.4004  -26.1014  -50.2015 H         1 UNK         0.0600 
    207 H207       -3.7145  -28.5854  -50.0173 H         1 UNK         0.0600 
    208 H208       -3.6343  -28.0391  -51.6838 H         1 UNK         0.0600 
    209 H209       -2.2445  -28.8342  -50.9603 H         1 UNK         0.0600 
    210 H210       -0.7451  -25.0113  -49.8421 H         1 UNK         0.3000 
    211 H211        0.6754  -25.0556  -52.4039 H         1 UNK         0.0600 
    212 H212        0.9936  -23.3260  -49.8917 H         1 UNK         0.0600 
    213 H213        2.0746  -23.3156  -51.2808 H         1 UNK         0.0600 
    214 H214        1.9353  -24.7594  -50.2876 H         1 UNK         0.0600 
    215 H215       -0.2768  -24.1039  -54.0722 H         1 UNK         0.3000 
    216 H216       -1.5013  -22.8540  -55.4126 H         1 UNK         0.0600 
    217 H217       -1.7938  -20.4533  -55.0645 H         1 UNK         0.0600 
    218 H218       -0.1702  -20.8973  -54.5650 H         1 UNK         0.0600 
    219 H219       -1.4133  -20.5961  -53.3525 H         1 UNK         0.0600 
    220 H220       -2.6591  -24.6273  -53.4492 H         1 UNK         0.3000 
    221 H221       -4.5351  -25.5920  -52.9850 H         1 UNK         0.0600 
    222 H222       -5.9553  -23.5446  -54.7612 H         1 UNK         0.0600 
    223 H223       -5.2317  -25.0590  -55.3030 H         1 UNK         0.0600 
    224 H224       -6.6122  -25.0796  -54.2170 H         1 UNK         0.0600 
    225 H225       -4.8411  -22.0560  -52.4969 H         1 UNK         0.3000 
    226 H226       -6.1150  -22.4700  -49.8824 H         1 UNK         0.0600 
    227 H227       -8.0769  -21.0272  -50.5041 H         1 UNK         0.0600 
    228 H228       -7.5157  -20.9624  -52.1714 H         1 UNK         0.0600 
    229 H229       -8.0599  -22.4863  -51.4751 H         1 UNK         0.0600 
    230 H230       -6.4913  -20.3339  -48.8203 H         1 UNK         0.3000 
    231 H231       -4.1116  -18.8451  -48.6469 H         1 UNK         0.0600 
    232 H232       -5.6589  -19.1348  -46.7403 H         1 UNK         0.0600 
    233 H233       -6.9419  -18.2816  -47.5965 H         1 UNK         0.0600 
    234 H234       -5.5039  -17.4223  -47.0725 H         1 UNK         0.0600 
    235 H235       -6.9551  -18.2964  -50.6194 H         1 UNK         0.3000 
    236 H236       -6.4745  -15.5291  -51.2711 H         1 UNK         0.0600 
    237 H237       -8.7168  -16.5813  -51.4758 H         1 UNK         0.0600 
    238 H238       -8.1875  -15.9731  -53.0356 H         1 UNK         0.0600 
    239 H239       -8.1093  -17.6985  -52.6987 H         1 UNK         0.0600 
    240 H240       -5.1100  -18.5254  -52.3556 H         1 UNK         0.3000 
    241 H241       -3.8601  -19.2276  -53.9757 H         1 UNK         0.0600 
    242 H242       -5.3099  -17.3375  -56.9156 H         1 UNK         0.3800 
    243 H243       -6.0000  -17.5698  -55.3303 H         1 UNK         0.3800 
    244 H244       -1.6102  -18.1958  -54.0464 H         1 UNK         0.0800 
    245 H245       -2.2662  -18.4335  -52.4611 H         1 UNK         0.0800 
    246 H246       -0.9779  -15.2862  -50.9674 H         1 UNK         0.0800 
    247 H247       -1.8590  -16.7631  -50.6657 H         1 UNK         0.0800 
@<TRIPOS>BOND
     1    1    2 1    
     2    1  127 1    
     3    1  128 1    
     4    1  129 1    
     5    2    3 2    
     6    2    4 am   BACKBONE|DICT|INTERRES
     7    4    5 1    
     8    4  130 1    
     9    5    6 1    
    10    5   65 1    
    11    5  131 1    
    12    6    7 1    
    13    6  132 1    
    14    6  133 1    
    15    7    8 1    
    16    8    9 1    
    17    8  134 1    
    18    8  135 1    
    19    9   10 ar   
    20    9   14 ar   
    21   10   11 ar   
    22   10  136 1    
    23   11   12 ar   
    24   11  126 1    
    25   12   13 ar   
    26   12  137 1    
    27   13   14 ar   
    28   13   15 1    
    29   14  138 1    
    30   15   16 1    
    31   15  139 1    
    32   15  140 1    
    33   16   17 1    
    34   17   18 1    
    35   17  141 1    
    36   17  142 1    
    37   18   19 1    
    38   18   67 1    
    39   18  143 1    
    40   19   20 am   BACKBONE|DICT|INTERRES
    41   19  144 1    
    42   20   21 2    
    43   20   22 1    
    44   22   23 1    
    45   22   24 1    
    46   22  145 1    
    47   23  146 1    
    48   23  147 1    
    49   23  148 1    
    50   24   25 am   BACKBONE|DICT|INTERRES
    51   24  149 1    
    52   25   26 2    
    53   25   27 1    
    54   27   28 1    
    55   27   29 1    
    56   27  150 1    
    57   28  151 1    
    58   28  152 1    
    59   28  153 1    
    60   29   30 am   BACKBONE|DICT|INTERRES
    61   29  154 1    
    62   30   31 2    
    63   30   32 1    
    64   32   33 1    
    65   32   34 1    
    66   32  155 1    
    67   33  156 1    
    68   33  157 1    
    69   33  158 1    
    70   34   35 am   BACKBONE|DICT|INTERRES
    71   34  159 1    
    72   35   36 2    
    73   35   37 1    
    74   37   38 1    
    75   37   39 1    
    76   37  160 1    
    77   38  161 1    
    78   38  162 1    
    79   38  163 1    
    80   39   40 am   BACKBONE|DICT|INTERRES
    81   39  164 1    
    82   40   41 2    
    83   40   42 1    
    84   42   43 1    
    85   42   44 1    
    86   42  165 1    
    87   43  166 1    
    88   43  167 1    
    89   43  168 1    
    90   44   45 am   BACKBONE|DICT|INTERRES
    91   44  169 1    
    92   45   46 2    
    93   45   47 1    
    94   47   48 1    
    95   47   49 1    
    96   47  170 1    
    97   48  171 1    
    98   48  172 1    
    99   48  173 1    
   100   49   50 am   BACKBONE|DICT|INTERRES
   101   49  174 1    
   102   50   51 2    
   103   50   52 1    
   104   52   53 1    
   105   52   54 1    
   106   52  175 1    
   107   53  176 1    
   108   53  177 1    
   109   53  178 1    
   110   54   55 am   BACKBONE|DICT|INTERRES
   111   54  179 1    
   112   55   56 2    
   113   55   57 1    
   114   57   58 1    
   115   57   59 1    
   116   57  180 1    
   117   58  181 1    
   118   58  182 1    
   119   58  183 1    
   120   59   60 am   BACKBONE|DICT|INTERRES
   121   59  184 1    
   122   60   61 2    
   123   60   62 1    
   124   62   63 1    
   125   62   64 1    
   126   62  185 1    
   127   63  186 1    
   128   63  187 1    
   129   63  188 1    
   130   64   65 am   BACKBONE|DICT|INTERRES
   131   64  189 1    
   132   65   66 2    
   133   67   68 2    
   134   67   69 am   BACKBONE|DICT|INTERRES
   135   69   70 1    
   136   69  190 1    
   137   70   71 1    
   138   70   72 1    
   139   70  191 1    
   140   71  192 1    
   141   71  193 1    
   142   71  194 1    
   143   72   73 2    
   144   72   74 am   BACKBONE|DICT|INTERRES
   145   74   75 1    
   146   74  195 1    
   147   75   76 1    
   148   75   77 1    
   149   75  196 1    
   150   76  197 1    
   151   76  198 1    
   152   76  199 1    
   153   77   78 2    
   154   77   79 am   BACKBONE|DICT|INTERRES
   155   79   80 1    
   156   79  200 1    
   157   80   81 1    
   158   80   82 1    
   159   80  201 1    
   160   81  202 1    
   161   81  203 1    
   162   81  204 1    
   163   82   83 2    
   164   82   84 am   BACKBONE|DICT|INTERRES
   165   84   85 1    
   166   84  205 1    
   167   85   86 1    
   168   85   87 1    
   169   85  206 1    
   170   86  207 1    
   171   86  208 1    
   172   86  209 1    
   173   87   88 2    
   174   87   89 am   BACKBONE|DICT|INTERRES
   175   89   90 1    
   176   89  210 1    
   177   90   91 1    
   178   90   92 1    
   179   90  211 1    
   180   91  212 1    
   181   91  213 1    
   182   91  214 1    
   183   92   93 2    
   184   92   94 am   BACKBONE|DICT|INTERRES
   185   94   95 1    
   186   94  215 1    
   187   95   96 1    
   188   95   97 1    
   189   95  216 1    
   190   96  217 1    
   191   96  218 1    
   192   96  219 1    
   193   97   98 2    
   194   97   99 am   BACKBONE|DICT|INTERRES
   195   99  100 1    
   196   99  220 1    
   197  100  101 1    
   198  100  102 1    
   199  100  221 1    
   200  101  222 1    
   201  101  223 1    
   202  101  224 1    
   203  102  103 2    
   204  102  104 am   BACKBONE|DICT|INTERRES
   205  104  105 1    
   206  104  225 1    
   207  105  106 1    
   208  105  107 1    
   209  105  226 1    
   210  106  227 1    
   211  106  228 1    
   212  106  229 1    
   213  107  108 2    
   214  107  109 am   BACKBONE|DICT|INTERRES
   215  109  110 1    
   216  109  230 1    
   217  110  111 1    
   218  110  112 1    
   219  110  231 1    
   220  111  232 1    
   221  111  233 1    
   222  111  234 1    
   223  112  113 2    
   224  112  114 am   BACKBONE|DICT|INTERRES
   225  114  115 1    
   226  114  235 1    
   227  115  116 1    
   228  115  117 1    
   229  115  236 1    
   230  116  237 1    
   231  116  238 1    
   232  116  239 1    
   233  117  118 2    
   234  117  119 am   BACKBONE|DICT|INTERRES
   235  119  120 1    
   236  119  240 1    
   237  120  121 1    
   238  120  124 1    
   239  120  241 1    
   240  121  122 am   BACKBONE|DICT|INTERRES
   241  121  123 2    
   242  122  242 1    
   243  122  243 1    
   244  124  125 1    
   245  124  244 1    
   246  124  245 1    
   247  125  126 1    
   248  126  246 1    
   249  126  247 1    
@<TRIPOS>SUBSTRUCTURE
     1 UNK         1 GROUP             0       ****    0 ROOT    
