@<TRIPOS>MOLECULE
3R540
247   249    1
SMALL
USER_CHARGES


@<TRIPOS>ATOM
      1 CA          4.6128  -18.8583  -46.9782 C.3       0 UNK        -0.1800 
      2 C           4.3225  -17.4397  -47.4498 C.2       0 UNK         0.5000 
      3 O           5.0604  -16.9083  -48.2797 O.2       0 UNK        -0.5000 
      4 N           3.2444  -16.8401  -46.9282 N.am      1 UNK        -0.5000 
      5 CA          2.7821  -15.4723  -47.1991 C.3       1 UNK         0.1400 
      6 C6          2.4426  -15.2511  -48.7008 C.3       23 UNK        -0.0398 
      7 S7          1.0805  -14.0615  -48.9617 S.3       23 UNK        -0.2404 
      8 C8          0.4508  -14.5739  -50.5917 C.3       23 UNK        -0.0205 
      9 C9         -0.3301  -15.8744  -50.5036 C.ar      23 UNK        -0.0193 
     10 C10        -1.6460  -15.8684  -50.0376 C.ar      23 UNK        -0.1150 
     11 C11        -2.3666  -17.0602  -49.9222 C.ar      23 UNK        -0.0193 
     12 C12        -1.7506  -18.2693  -50.2643 C.ar      23 UNK        -0.1150 
     13 C13        -0.4291  -18.2883  -50.7243 C.ar      23 UNK        -0.0193 
     14 C14         0.2651  -17.0846  -50.8662 C.ar      23 UNK        -0.1150 
     15 C15         0.2636  -19.6086  -51.0370 C.3       23 UNK        -0.0205 
     16 S16         1.7435  -19.8971  -50.0005 S.3       23 UNK        -0.2404 
     17 C17         1.0754  -19.7760  -48.3040 C.3       23 UNK        -0.0398 
     18 CA          0.7655  -21.1397  -47.6435 C.3       11 UNK         0.1400 
     19 N           0.5210  -21.0002  -46.2050 N.am      11 UNK        -0.5000 
     20 C           0.3234  -22.0163  -45.3519 C.2       10 UNK         0.5000 
     21 O           0.4057  -23.2021  -45.6674 O.2       10 UNK        -0.5000 
     22 CA         -0.0914  -21.6496  -43.9158 C.3       10 UNK         0.1400 
     23 CB          1.1390  -21.2964  -43.0684 C.3       10 UNK        -0.1800 
     24 N          -1.0632  -20.5546  -43.8740 N.am      10 UNK        -0.5000 
     25 C          -2.2962  -20.6169  -44.3993 C.2       9 UNK         0.5000 
     26 O          -2.7635  -21.6305  -44.9177 O.2       9 UNK        -0.5000 
     27 CA         -3.1277  -19.3200  -44.3944 C.3       9 UNK         0.1400 
     28 CB         -3.8073  -19.1059  -43.0342 C.3       9 UNK        -0.1800 
     29 N          -2.3314  -18.1418  -44.7409 N.am      9 UNK        -0.5000 
     30 C          -1.7386  -17.9506  -45.9279 C.2       8 UNK         0.5000 
     31 O          -1.8617  -18.7228  -46.8781 O.2       8 UNK        -0.5000 
     32 CA         -0.7938  -16.7383  -46.0447 C.3       8 UNK         0.1400 
     33 CB         -1.5657  -15.4374  -46.3063 C.3       8 UNK        -0.1800 
     34 N           0.0314  -16.5819  -44.8448 N.am      8 UNK        -0.5000 
     35 C           1.0072  -17.4276  -44.4883 C.2       7 UNK         0.5000 
     36 O           1.3906  -18.3547  -45.2010 O.2       7 UNK        -0.5000 
     37 CA          1.6623  -17.2114  -43.1139 C.3       7 UNK         0.1400 
     38 CB          2.8787  -16.2805  -43.2266 C.3       7 UNK        -0.1800 
     39 N           0.7142  -16.6824  -42.1333 N.am      7 UNK        -0.5000 
     40 C          -0.2624  -17.4106  -41.5720 C.2       6 UNK         0.5000 
     41 O          -0.4309  -18.6075  -41.7989 O.2       6 UNK        -0.5000 
     42 CA         -1.2426  -16.6717  -40.6409 C.3       6 UNK         0.1400 
     43 CB         -0.6888  -16.6174  -39.2096 C.3       6 UNK        -0.1800 
     44 N          -1.5379  -15.3129  -41.0962 N.am      6 UNK        -0.5000 
     45 C          -2.1669  -15.0101  -42.2414 C.2       5 UNK         0.5000 
     46 O          -2.6380  -15.8553  -43.0005 O.2       5 UNK        -0.5000 
     47 CA         -2.2146  -13.5194  -42.6348 C.3       5 UNK         0.1400 
     48 CB         -3.5041  -12.8658  -42.1177 C.3       5 UNK        -0.1800 
     49 N          -1.0551  -12.7671  -42.1429 N.am      5 UNK        -0.5000 
     50 C           0.2106  -13.0040  -42.5121 C.2       4 UNK         0.5000 
     51 O           0.5274  -13.8240  -43.3793 O.2       4 UNK        -0.5000 
     52 CA          1.2983  -12.2757  -41.7121 C.3       4 UNK         0.1400 
     53 CB          1.3822  -12.8694  -40.2884 C.3       4 UNK        -0.1800 
     54 N           2.5752  -12.4301  -42.4023 N.am      4 UNK        -0.5000 
     55 C           3.7218  -11.8182  -42.0847 C.2       3 UNK         0.5000 
     56 O           3.8326  -10.9942  -41.1758 O.2       3 UNK        -0.5000 
     57 CA          4.9592  -12.1859  -42.9224 C.3       3 UNK         0.1400 
     58 CB          5.6524  -13.4297  -42.3460 C.3       3 UNK        -0.1800 
     59 N           4.6629  -12.4160  -44.3362 N.am      3 UNK        -0.5000 
     60 C           4.3127  -11.4681  -45.2116 C.2       2 UNK         0.5000 
     61 O           4.1231  -10.2918  -44.8994 O.2       2 UNK        -0.5000 
     62 CA          4.1736  -11.8818  -46.6899 C.3       2 UNK         0.1400 
     63 CB          5.5504  -11.9111  -47.3802 C.3       2 UNK        -0.1800 
     64 N           3.4338  -13.1247  -46.9480 N.am      2 UNK        -0.5000 
     65 C           3.7340  -14.3913  -46.6276 C.2       1 UNK         0.5000 
     66 O           4.6822  -14.7071  -45.9041 O.2       1 UNK        -0.5000 
     67 C          -0.4033  -21.8606  -48.3441 C.2       11 UNK         0.5000 
     68 O          -0.1692  -22.8332  -49.0609 O.2       11 UNK        -0.5000 
     69 N          -1.6382  -21.4011  -48.0915 N.am      12 UNK        -0.5000 
     70 CA         -2.8660  -22.0025  -48.6143 C.3       12 UNK         0.1400 
     71 CB         -4.0776  -21.1610  -48.1930 C.3       12 UNK        -0.1800 
     72 C          -3.0502  -23.4671  -48.1812 C.2       12 UNK         0.5000 
     73 O          -3.3985  -24.3021  -49.0160 O.2       12 UNK        -0.5000 
     74 N          -2.7796  -23.7550  -46.9007 N.am      13 UNK        -0.5000 
     75 CA         -2.8137  -25.0980  -46.3243 C.3       13 UNK         0.1400 
     76 CB         -2.6561  -25.0113  -44.7988 C.3       13 UNK        -0.1800 
     77 C          -1.7555  -26.0330  -46.9365 C.2       13 UNK         0.5000 
     78 O          -2.0916  -27.1554  -47.3144 O.2       13 UNK        -0.5000 
     79 N          -0.5121  -25.5465  -47.0615 N.am      14 UNK        -0.5000 
     80 CA          0.6113  -26.2678  -47.6662 C.3       14 UNK         0.1400 
     81 CB          1.9092  -25.4756  -47.4479 C.3       14 UNK        -0.1800 
     82 C           0.4024  -26.5627  -49.1627 C.2       14 UNK         0.5000 
     83 O           0.7510  -27.6501  -49.6238 O.2       14 UNK        -0.5000 
     84 N          -0.1919  -25.6037  -49.8840 N.am      15 UNK        -0.5000 
     85 CA         -0.5721  -25.7303  -51.2905 C.3       15 UNK         0.1400 
     86 CB         -0.7863  -24.3244  -51.8734 C.3       15 UNK        -0.1800 
     87 C          -1.8341  -26.5859  -51.5140 C.2       15 UNK         0.5000 
     88 O          -2.1388  -26.8998  -52.6635 O.2       15 UNK        -0.5000 
     89 N          -2.5754  -26.9035  -50.4409 N.am      16 UNK        -0.5000 
     90 CA         -3.8872  -27.5636  -50.4374 C.3       16 UNK         0.1400 
     91 CB         -3.7559  -29.0409  -50.8606 C.3       16 UNK        -0.1800 
     92 C          -4.9304  -26.7815  -51.2670 C.2       16 UNK         0.5000 
     93 O          -5.7033  -27.3736  -52.0216 O.2       16 UNK        -0.5000 
     94 N          -4.8822  -25.4480  -51.1334 N.am      17 UNK        -0.5000 
     95 CA         -5.6494  -24.4220  -51.8461 C.3       17 UNK         0.1400 
     96 CB         -7.1619  -24.5801  -51.5910 C.3       17 UNK        -0.1800 
     97 C          -5.3264  -24.2840  -53.3513 C.2       17 UNK         0.5000 
     98 O          -5.9329  -23.4385  -54.0108 O.2       17 UNK        -0.5000 
     99 N          -4.3631  -25.0523  -53.8821 N.am      18 UNK        -0.5000 
    100 CA        -3.9144  -24.9861  -55.2761 C.3       18 UNK         0.1400 
    101 CB        -3.4364  -26.3780  -55.7269 C.3       18 UNK        -0.1800 
    102 C         -2.8426  -23.8917  -55.4597 C.2       18 UNK         0.5000 
    103 O         -1.7242  -24.1743  -55.8936 O.2       18 UNK        -0.5000 
    104 N         -3.2066  -22.6572  -55.1042 N.am      19 UNK        -0.5000 
    105 CA        -2.3879  -21.4556  -55.2073 C.3       19 UNK         0.1400 
    106 CB        -1.4843  -21.3206  -53.9614 C.3       19 UNK        -0.1800 
    107 C         -3.3311  -20.2658  -55.4515 C.2       19 UNK         0.5000 
    108 O         -4.1500  -20.3274  -56.3715 O.2       19 UNK        -0.5000 
    109 N         -3.2183  -19.2136  -54.6325 N.am      20 UNK        -0.5000 
    110 CA        -4.1233  -18.0657  -54.6131 C.3       20 UNK         0.1400 
    111 CB        -3.4970  -16.9726  -53.7345 C.3       20 UNK        -0.1800 
    112 C         -5.5243  -18.4490  -54.0947 C.2       20 UNK         0.5000 
    113 O         -5.6654  -19.4347  -53.3657 O.2       20 UNK        -0.5000 
    114 N         -6.5315  -17.6390  -54.4508 N.am      21 UNK        -0.5000 
    115 CA        -7.9511  -17.8429  -54.1256 C.3       21 UNK         0.1400 
    116 CB        -8.7791  -16.7419  -54.8063 C.3       21 UNK        -0.1800 
    117 C         -8.2719  -17.9022  -52.6168 C.2       21 UNK         0.5000 
    118 O         -9.2833  -18.4908  -52.2327 O.2       21 UNK        -0.5000 
    119 N         -7.3965  -17.3135  -51.7955 N.am      22 UNK        -0.5000 
    120 CA        -7.3699  -17.4403  -50.3319 C.3       22 UNK         0.1400 
    121 C         -6.9683  -18.8496  -49.7997 C.2       22 UNK         0.5000 
    122 N         -6.4350  -19.7544  -50.6128 N.am      22 UNK        -0.7600 
    123 O         -7.1573  -19.1308  -48.6199 O.2       22 UNK        -0.5000 
    124 C124       -6.5175  -16.3168  -49.6813 C.3       23 UNK        -0.0398 
    125 S125       -4.8907  -16.0613  -50.4768 S.3       23 UNK        -0.2404 
    126 C126       -3.7969  -17.0378  -49.4011 C.3       23 UNK        -0.0205 
    127 H127        5.6273  -18.9231  -46.5852 H         1 UNK         0.0600 
    128 H128        3.9251  -19.1746  -46.1931 H         1 UNK         0.0600 
    129 H129        4.5222  -19.5557  -47.8111 H         1 UNK         0.0600 
    130 H130        2.6821  -17.3615  -46.2638 H         1 UNK         0.3000 
    131 H131        1.8598  -15.3758  -46.6266 H         1 UNK         0.0600 
    132 H132        3.3188  -14.9348  -49.2700 H         1 UNK         0.0800 
    133 H133        2.1403  -16.2016  -49.1375 H         1 UNK         0.0800 
    134 H134       -0.1976  -13.7886  -50.9830 H         1 UNK         0.0800 
    135 H135        1.2802  -14.6642  -51.2950 H         1 UNK         0.0800 
    136 H136       -2.1098  -14.9332  -49.7569 H         1 UNK         0.1150 
    137 H137       -2.2933  -19.1970  -50.1528 H         1 UNK         0.1150 
    138 H138        1.2856  -17.0977  -51.2226 H         1 UNK         0.1150 
    139 H139       -0.4253  -20.4465  -50.9230 H         1 UNK         0.0800 
    140 H140        0.5684  -19.6063  -52.0840 H         1 UNK         0.0800 
    141 H141        0.2065  -19.1217  -48.2861 H         1 UNK         0.0800 
    142 H142        1.8304  -19.2598  -47.7143 H         1 UNK         0.0800 
    143 H143        1.6494  -21.7722  -47.7496 H         1 UNK         0.0600 
    144 H144        0.4843  -20.0537  -45.8433 H         1 UNK         0.3000 
    145 H145       -0.5652  -22.5275  -43.4722 H         1 UNK         0.0600 
    146 H146        0.8598  -21.0717  -42.0389 H         1 UNK         0.0600 
    147 H147        1.8423  -22.1295  -43.0397 H         1 UNK         0.0600 
    148 H148        1.6716  -20.4348  -43.4692 H         1 UNK         0.0600 
    149 H149       -0.7805  -19.7109  -43.3856 H         1 UNK         0.3000 
    150 H150       -3.9092  -19.4249  -45.1498 H         1 UNK         0.0600 
    151 H151       -4.4434  -19.9543  -42.7792 H         1 UNK         0.0600 
    152 H152       -4.4380  -18.2167  -43.0446 H         1 UNK         0.0600 
    153 H153       -3.0792  -18.9892  -42.2319 H         1 UNK         0.0600 
    154 H154       -2.2408  -17.4242  -44.0274 H         1 UNK         0.3000 
    155 H155       -0.1336  -16.9122  -46.8974 H         1 UNK         0.0600 
    156 H156       -0.8902  -14.5839  -46.3684 H         1 UNK         0.0600 
    157 H157       -2.2971  -15.2309  -45.5263 H         1 UNK         0.0600 
    158 H158       -2.1055  -15.4891  -47.2499 H         1 UNK         0.0600 
    159 H159       -0.1909  -15.8106  -44.2287 H         1 UNK         0.3000 
    160 H160        2.0184  -18.1794  -42.7567 H         1 UNK         0.0600 
    161 H161        2.6188  -15.3124  -43.6523 H         1 UNK         0.0600 
    162 H162        3.6446  -16.7186  -43.8682 H         1 UNK         0.0600 
    163 H163        3.3336  -16.1090  -42.2512 H         1 UNK         0.0600 
    164 H164        0.7590  -15.6915  -41.9471 H         1 UNK         0.3000 
    165 H165       -2.1780  -17.2347  -40.6262 H         1 UNK         0.0600 
    166 H166        0.2371  -16.0431  -39.1556 H         1 UNK         0.0600 
    167 H167       -1.4063  -16.1630  -38.5261 H         1 UNK         0.0600 
    168 H168       -0.4758  -17.6198  -38.8358 H         1 UNK         0.0600 
    169 H169       -1.1975  -14.5571  -40.5217 H         1 UNK         0.3000 
    170 H170       -2.2147  -13.4643  -43.7253 H         1 UNK         0.0600 
    171 H171       -4.3841  -13.3938  -42.4877 H         1 UNK         0.0600 
    172 H172       -3.5513  -12.8723  -41.0280 H         1 UNK         0.0600 
    173 H173       -3.5834  -11.8312  -42.4519 H         1 UNK         0.0600 
    174 H174       -1.2376  -12.0778  -41.4275 H         1 UNK         0.3000 
    175 H175        1.0451  -11.2149  -41.6636 H         1 UNK         0.0600 
    176 H176        2.1089  -12.3408  -39.6722 H         1 UNK         0.0600 
    177 H177        0.4262  -12.7995  -39.7686 H         1 UNK         0.0600 
    178 H178        1.6697  -13.9214  -40.3093 H         1 UNK         0.0600 
    179 H179        2.5454  -13.0624  -43.1919 H         1 UNK         0.3000 
    180 H180        5.6592  -11.3501  -42.8578 H         1 UNK         0.0600 
    181 H181        5.0192  -14.3138  -42.4199 H         1 UNK         0.0600 
    182 H182        5.8993  -13.2883  -41.2930 H         1 UNK         0.0600 
    183 H183        6.5833  -13.6409  -42.8725 H         1 UNK         0.0600 
    184 H184        4.7986  -13.3574  -44.6995 H         1 UNK         0.3000 
    185 H185        3.5897  -11.0962  -47.1721 H         1 UNK         0.0600 
    186 H186        5.4511  -12.1023  -48.4487 H         1 UNK         0.0600 
    187 H187        6.0634  -10.9551  -47.2677 H         1 UNK         0.0600 
    188 H188        6.2001  -12.6801  -46.9612 H         1 UNK         0.0600 
    189 H189        2.6007  -12.9947  -47.5090 H         1 UNK         0.3000 
    190 H190       -1.7456  -20.5755  -47.5083 H         1 UNK         0.3000 
    191 H191       -2.8016  -21.9851  -49.7042 H         1 UNK         0.0600 
    192 H192       -3.9913  -20.1394  -48.5554 H         1 UNK         0.0600 
    193 H193       -5.0017  -21.5753  -48.5970 H         1 UNK         0.0600 
    194 H194       -4.1866  -21.1184  -47.1097 H         1 UNK         0.0600 
    195 H195       -2.5509  -22.9926  -46.2683 H         1 UNK         0.3000 
    196 H196       -3.7961  -25.5243  -46.5379 H         1 UNK         0.0600 
    197 H197       -2.7048  -26.0014  -44.3441 H         1 UNK         0.0600 
    198 H198       -3.4494  -24.4095  -44.3550 H         1 UNK         0.0600 
    199 H199       -1.7024  -24.5660  -44.5157 H         1 UNK         0.0600 
    200 H200       -0.3070  -24.6191  -46.6968 H         1 UNK         0.3000 
    201 H201        0.7073  -27.2256  -47.1509 H         1 UNK         0.0600 
    202 H202        2.1153  -25.3430  -46.3857 H         1 UNK         0.0600 
    203 H203        1.8574  -24.4863  -47.9042 H         1 UNK         0.0600 
    204 H204        2.7639  -25.9952  -47.8828 H         1 UNK         0.0600 
    205 H205       -0.3817  -24.7064  -49.4441 H         1 UNK         0.3000 
    206 H206        0.2477  -26.2050  -51.8335 H         1 UNK         0.0600 
    207 H207        0.1108  -23.7130  -51.7742 H         1 UNK         0.0600 
    208 H208       -1.0281  -24.3762  -52.9354 H         1 UNK         0.0600 
    209 H209       -1.6043  -23.8023  -51.3751 H         1 UNK         0.0600 
    210 H210       -2.2514  -26.5845  -49.5367 H         1 UNK         0.3000 
    211 H211       -4.2380  -27.5431  -49.4046 H         1 UNK         0.0600 
    212 H212       -3.4554  -29.1399  -51.9041 H         1 UNK         0.0600 
    213 H213       -4.7042  -29.5664  -50.7423 H         1 UNK         0.0600 
    214 H214       -3.0187  -29.5605  -50.2485 H         1 UNK         0.0600 
    215 H215       -4.2200  -25.0805  -50.4510 H         1 UNK         0.3000 
    216 H216       -5.3446  -23.4758  -51.3966 H         1 UNK         0.0600 
    217 H217       -7.3775  -24.6445  -50.5245 H         1 UNK         0.0600 
    218 H218       -7.5645  -25.4723  -52.0709 H         1 UNK         0.0600 
    219 H219       -7.7153  -23.7250  -51.9809 H         1 UNK         0.0600 
    220 H220       -3.8677  -25.7060  -53.2875 H         1 UNK         0.3000 
    221 H221       -4.7600  -24.7181  -55.9130 H         1 UNK         0.0600 
    222 H222       -2.5342  -26.6899  -55.2017 H         1 UNK         0.0600 
    223 H223       -4.2028  -27.1341  -55.5558 H         1 UNK         0.0600 
    224 H224       -3.2079  -26.3820  -56.7933 H         1 UNK         0.0600 
    225 H225       -4.1634  -22.5120  -54.7986 H         1 UNK         0.3000 
    226 H226       -1.7506  -21.5281  -56.0910 H         1 UNK         0.0600 
    227 H227       -0.7992  -22.1642  -53.8866 H         1 UNK         0.0600 
    228 H228       -0.8664  -20.4237  -54.0131 H         1 UNK         0.0600 
    229 H229       -2.0652  -21.2826  -53.0387 H         1 UNK         0.0600 
    230 H230       -2.5440  -19.2596  -53.8836 H         1 UNK         0.3000 
    231 H231       -4.2227  -17.6858  -55.6320 H         1 UNK         0.0600 
    232 H232       -4.1371  -16.0914  -53.6780 H         1 UNK         0.0600 
    233 H233       -2.5351  -16.6486  -54.1321 H         1 UNK         0.0600 
    234 H234       -3.3326  -17.3260  -52.7165 H         1 UNK         0.0600 
    235 H235       -6.3247  -16.8394  -55.0321 H         1 UNK         0.3000 
    236 H236       -8.2463  -18.8041  -54.5514 H         1 UNK         0.0600 
    237 H237       -9.8442  -16.8766  -54.6131 H         1 UNK         0.0600 
    238 H238       -8.5028  -15.7507  -54.4447 H         1 UNK         0.0600 
    239 H239       -8.6435  -16.7563  -55.8879 H         1 UNK         0.0600 
    240 H240       -6.5911  -16.8601  -52.2013 H         1 UNK         0.3000 
    241 H241       -8.3956  -17.2943  -49.9878 H         1 UNK         0.0600 
    242 H242       -6.2506  -19.5498  -51.5921 H         1 UNK         0.3800 
    243 H243       -6.2091  -20.6625  -50.2471 H         1 UNK         0.3800 
    244 H244       -7.0601  -15.3745  -49.7653 H         1 UNK         0.0800 
    245 H245       -6.3896  -16.4779  -48.6093 H         1 UNK         0.0800 
    246 H246       -3.8125  -16.6277  -48.3914 H         1 UNK         0.0800 
    247 H247       -4.1894  -18.0502  -49.3304 H         1 UNK         0.0800 
@<TRIPOS>BOND
     1    1    2 1    
     2    1  127 1    
     3    1  128 1    
     4    1  129 1    
     5    2    3 2    
     6    2    4 am   BACKBONE|DICT|INTERRES
     7    4    5 1    
     8    4  130 1    
     9    5    6 1    
    10    5   65 1    
    11    5  131 1    
    12    6    7 1    
    13    6  132 1    
    14    6  133 1    
    15    7    8 1    
    16    8    9 1    
    17    8  134 1    
    18    8  135 1    
    19    9   10 ar   
    20    9   14 ar   
    21   10   11 ar   
    22   10  136 1    
    23   11   12 ar   
    24   11  126 1    
    25   12   13 ar   
    26   12  137 1    
    27   13   14 ar   
    28   13   15 1    
    29   14  138 1    
    30   15   16 1    
    31   15  139 1    
    32   15  140 1    
    33   16   17 1    
    34   17   18 1    
    35   17  141 1    
    36   17  142 1    
    37   18   19 1    
    38   18   67 1    
    39   18  143 1    
    40   19   20 am   BACKBONE|DICT|INTERRES
    41   19  144 1    
    42   20   21 2    
    43   20   22 1    
    44   22   23 1    
    45   22   24 1    
    46   22  145 1    
    47   23  146 1    
    48   23  147 1    
    49   23  148 1    
    50   24   25 am   BACKBONE|DICT|INTERRES
    51   24  149 1    
    52   25   26 2    
    53   25   27 1    
    54   27   28 1    
    55   27   29 1    
    56   27  150 1    
    57   28  151 1    
    58   28  152 1    
    59   28  153 1    
    60   29   30 am   BACKBONE|DICT|INTERRES
    61   29  154 1    
    62   30   31 2    
    63   30   32 1    
    64   32   33 1    
    65   32   34 1    
    66   32  155 1    
    67   33  156 1    
    68   33  157 1    
    69   33  158 1    
    70   34   35 am   BACKBONE|DICT|INTERRES
    71   34  159 1    
    72   35   36 2    
    73   35   37 1    
    74   37   38 1    
    75   37   39 1    
    76   37  160 1    
    77   38  161 1    
    78   38  162 1    
    79   38  163 1    
    80   39   40 am   BACKBONE|DICT|INTERRES
    81   39  164 1    
    82   40   41 2    
    83   40   42 1    
    84   42   43 1    
    85   42   44 1    
    86   42  165 1    
    87   43  166 1    
    88   43  167 1    
    89   43  168 1    
    90   44   45 am   BACKBONE|DICT|INTERRES
    91   44  169 1    
    92   45   46 2    
    93   45   47 1    
    94   47   48 1    
    95   47   49 1    
    96   47  170 1    
    97   48  171 1    
    98   48  172 1    
    99   48  173 1    
   100   49   50 am   BACKBONE|DICT|INTERRES
   101   49  174 1    
   102   50   51 2    
   103   50   52 1    
   104   52   53 1    
   105   52   54 1    
   106   52  175 1    
   107   53  176 1    
   108   53  177 1    
   109   53  178 1    
   110   54   55 am   BACKBONE|DICT|INTERRES
   111   54  179 1    
   112   55   56 2    
   113   55   57 1    
   114   57   58 1    
   115   57   59 1    
   116   57  180 1    
   117   58  181 1    
   118   58  182 1    
   119   58  183 1    
   120   59   60 am   BACKBONE|DICT|INTERRES
   121   59  184 1    
   122   60   61 2    
   123   60   62 1    
   124   62   63 1    
   125   62   64 1    
   126   62  185 1    
   127   63  186 1    
   128   63  187 1    
   129   63  188 1    
   130   64   65 am   BACKBONE|DICT|INTERRES
   131   64  189 1    
   132   65   66 2    
   133   67   68 2    
   134   67   69 am   BACKBONE|DICT|INTERRES
   135   69   70 1    
   136   69  190 1    
   137   70   71 1    
   138   70   72 1    
   139   70  191 1    
   140   71  192 1    
   141   71  193 1    
   142   71  194 1    
   143   72   73 2    
   144   72   74 am   BACKBONE|DICT|INTERRES
   145   74   75 1    
   146   74  195 1    
   147   75   76 1    
   148   75   77 1    
   149   75  196 1    
   150   76  197 1    
   151   76  198 1    
   152   76  199 1    
   153   77   78 2    
   154   77   79 am   BACKBONE|DICT|INTERRES
   155   79   80 1    
   156   79  200 1    
   157   80   81 1    
   158   80   82 1    
   159   80  201 1    
   160   81  202 1    
   161   81  203 1    
   162   81  204 1    
   163   82   83 2    
   164   82   84 am   BACKBONE|DICT|INTERRES
   165   84   85 1    
   166   84  205 1    
   167   85   86 1    
   168   85   87 1    
   169   85  206 1    
   170   86  207 1    
   171   86  208 1    
   172   86  209 1    
   173   87   88 2    
   174   87   89 am   BACKBONE|DICT|INTERRES
   175   89   90 1    
   176   89  210 1    
   177   90   91 1    
   178   90   92 1    
   179   90  211 1    
   180   91  212 1    
   181   91  213 1    
   182   91  214 1    
   183   92   93 2    
   184   92   94 am   BACKBONE|DICT|INTERRES
   185   94   95 1    
   186   94  215 1    
   187   95   96 1    
   188   95   97 1    
   189   95  216 1    
   190   96  217 1    
   191   96  218 1    
   192   96  219 1    
   193   97   98 2    
   194   97   99 am   BACKBONE|DICT|INTERRES
   195   99  100 1    
   196   99  220 1    
   197  100  101 1    
   198  100  102 1    
   199  100  221 1    
   200  101  222 1    
   201  101  223 1    
   202  101  224 1    
   203  102  103 2    
   204  102  104 am   BACKBONE|DICT|INTERRES
   205  104  105 1    
   206  104  225 1    
   207  105  106 1    
   208  105  107 1    
   209  105  226 1    
   210  106  227 1    
   211  106  228 1    
   212  106  229 1    
   213  107  108 2    
   214  107  109 am   BACKBONE|DICT|INTERRES
   215  109  110 1    
   216  109  230 1    
   217  110  111 1    
   218  110  112 1    
   219  110  231 1    
   220  111  232 1    
   221  111  233 1    
   222  111  234 1    
   223  112  113 2    
   224  112  114 am   BACKBONE|DICT|INTERRES
   225  114  115 1    
   226  114  235 1    
   227  115  116 1    
   228  115  117 1    
   229  115  236 1    
   230  116  237 1    
   231  116  238 1    
   232  116  239 1    
   233  117  118 2    
   234  117  119 am   BACKBONE|DICT|INTERRES
   235  119  120 1    
   236  119  240 1    
   237  120  121 1    
   238  120  124 1    
   239  120  241 1    
   240  121  122 am   BACKBONE|DICT|INTERRES
   241  121  123 2    
   242  122  242 1    
   243  122  243 1    
   244  124  125 1    
   245  124  244 1    
   246  124  245 1    
   247  125  126 1    
   248  126  246 1    
   249  126  247 1    
@<TRIPOS>SUBSTRUCTURE
     1 UNK         1 GROUP             0       ****    0 ROOT    
