@<TRIPOS>MOLECULE
3R540
247   249    1
SMALL
USER_CHARGES


@<TRIPOS>ATOM
      1 CA          3.6258  -18.7353  -43.2021 C.3       0 UNK        -0.1800 
      2 C           3.3841  -17.3016  -43.6448 C.2       0 UNK         0.5000 
      3 O           3.1300  -16.4391  -42.8059 O.2       0 UNK        -0.5000 
      4 N           3.4929  -17.0335  -44.9540 N.am      1 UNK        -0.5000 
      5 CA          3.2865  -15.7184  -45.5840 C.3       1 UNK         0.1400 
      6 C6          3.2690  -15.8431  -47.1298 C.3       23 UNK        -0.0398 
      7 S7          2.2942  -14.5313  -47.9416 S.3       23 UNK        -0.2404 
      8 C8          2.8940  -14.6373  -49.6562 C.3       23 UNK        -0.0205 
      9 C9          2.3293  -15.8516  -50.3774 C.ar      23 UNK        -0.0193 
     10 C10         1.1253  -15.7560  -51.0823 C.ar      23 UNK        -0.1150 
     11 C11         0.6008  -16.8699  -51.7451 C.ar      23 UNK        -0.0193 
     12 C12         1.2892  -18.0858  -51.6977 C.ar      23 UNK        -0.1150 
     13 C13         2.4954  -18.1917  -50.9992 C.ar      23 UNK        -0.0193 
     14 C14         3.0132  -17.0699  -50.3469 C.ar      23 UNK        -0.1150 
     15 C15         3.2481  -19.5126  -50.9530 C.3       23 UNK        -0.0205 
     16 S16         2.9991  -20.3740  -49.3692 S.3       23 UNK        -0.2404 
     17 C17         1.2356  -20.8225  -49.4894 C.3       23 UNK        -0.0398 
     18 CA          0.8639  -22.0235  -48.5897 C.3       11 UNK         0.1400 
     19 N           1.1827  -21.7910  -47.1805 N.am      11 UNK        -0.5000 
     20 C           1.2371  -22.7435  -46.2424 C.2       10 UNK         0.5000 
     21 O           1.0365  -23.9378  -46.4646 O.2       10 UNK        -0.5000 
     22 CA          1.5339  -22.2696  -44.8086 C.3       10 UNK         0.1400 
     23 CB          3.0455  -22.0952  -44.6029 C.3       10 UNK        -0.1800 
     24 N           0.8412  -21.0228  -44.4674 N.am      10 UNK        -0.5000 
     25 C          -0.4873  -20.9323  -44.3198 C.2       9 UNK         0.5000 
     26 O          -1.2553  -21.8800  -44.4819 O.2       9 UNK        -0.5000 
     27 CA         -1.0661  -19.5536  -43.9515 C.3       9 UNK         0.1400 
     28 CB         -0.8231  -19.2405  -42.4670 C.3       9 UNK        -0.1800 
     29 N          -0.6227  -18.4124  -44.7596 N.am      9 UNK        -0.5000 
     30 C          -0.5125  -18.3531  -46.0959 C.2       8 UNK         0.5000 
     31 O          -0.4996  -19.3351  -46.8363 O.2       8 UNK        -0.5000 
     32 CA         -0.4640  -16.9324  -46.6931 C.3       8 UNK         0.1400 
     33 CB         -0.5724  -16.9184  -48.2310 C.3       8 UNK        -0.1800 
     34 N          -1.4717  -16.0608  -46.0768 N.am      8 UNK        -0.5000 
     35 C          -2.8032  -16.2383  -46.0786 C.2       7 UNK         0.5000 
     36 O          -3.3873  -17.0980  -46.7376 O.2       7 UNK        -0.5000 
     37 CA         -3.6268  -15.3312  -45.1518 C.3       7 UNK         0.1400 
     38 CB         -3.7097  -15.9613  -43.7519 C.3       7 UNK        -0.1800 
     39 N          -3.0576  -13.9886  -45.0317 N.am      7 UNK        -0.5000 
     40 C          -3.5647  -12.8939  -45.6154 C.2       6 UNK         0.5000 
     41 O          -4.5467  -12.9074  -46.3588 O.2       6 UNK        -0.5000 
     42 CA         -2.8841  -11.5458  -45.3032 C.3       6 UNK         0.1400 
     43 CB         -3.6566  -10.8003  -44.2038 C.3       6 UNK        -0.1800 
     44 N          -1.4893  -11.6848  -44.8855 N.am      6 UNK        -0.5000 
     45 C          -0.4751  -11.9600  -45.7154 C.2       5 UNK         0.5000 
     46 O          -0.6034  -12.0751  -46.9341 O.2       5 UNK        -0.5000 
     47 CA          0.9129  -12.1520  -45.0749 C.3       5 UNK         0.1400 
     48 CB          1.7081  -10.8385  -45.1176 C.3       5 UNK        -0.1800 
     49 N           0.8909  -12.6500  -43.6948 N.am      5 UNK        -0.5000 
     50 C           0.3611  -13.8125  -43.2935 C.2       4 UNK         0.5000 
     51 O          -0.2535  -14.5746  -44.0425 O.2       4 UNK        -0.5000 
     52 CA          0.5755  -14.1808  -41.8165 C.3       4 UNK         0.1400 
     53 CB         -0.0606  -15.5334  -41.4481 C.3       4 UNK        -0.1800 
     54 N           2.0054  -14.2511  -41.5332 N.am      4 UNK        -0.5000 
     55 C           2.7390  -13.2904  -40.9603 C.2       3 UNK         0.5000 
     56 O           2.2893  -12.1898  -40.6401 O.2       3 UNK        -0.5000 
     57 CA          4.2240  -13.6048  -40.7255 C.3       3 UNK         0.1400 
     58 CB          4.3911  -14.6499  -39.6101 C.3       3 UNK        -0.1800 
     59 N           4.8519  -14.1030  -41.9490 N.am      3 UNK        -0.5000 
     60 C           5.8694  -13.5066  -42.5868 C.2       2 UNK         0.5000 
     61 O           6.4052  -12.4675  -42.1988 O.2       2 UNK        -0.5000 
     62 CA          6.3942  -14.1785  -43.8747 C.3       2 UNK         0.1400 
     63 CB          7.6620  -14.9931  -43.5749 C.3       2 UNK        -0.1800 
     64 N           5.4154  -15.0533  -44.5220 N.am      2 UNK        -0.5000 
     65 C           4.2836  -14.6336  -45.1047 C.2       1 UNK         0.5000 
     66 O           4.0009  -13.4439  -45.2340 O.2       1 UNK        -0.5000 
     67 C          -0.6229  -22.3847  -48.7528 C.2       11 UNK         0.5000 
     68 O          -0.9469  -23.3100  -49.4950 O.2       11 UNK        -0.5000 
     69 N          -1.4926  -21.6759  -48.0209 N.am      12 UNK        -0.5000 
     70 CA         -2.9313  -21.9137  -47.9544 C.3       12 UNK         0.1400 
     71 CB         -3.5932  -20.8016  -47.1266 C.3       12 UNK        -0.1800 
     72 C          -3.2769  -23.3047  -47.3943 C.2       12 UNK         0.5000 
     73 O          -4.1360  -23.9855  -47.9553 O.2       12 UNK        -0.5000 
     74 N          -2.5725  -23.7193  -46.3314 N.am      13 UNK        -0.5000 
     75 CA         -2.6786  -25.0502  -45.7335 C.3       13 UNK         0.1400 
     76 CB         -1.8890  -25.0922  -44.4168 C.3       13 UNK        -0.1800 
     77 C          -2.2130  -26.1675  -46.6841 C.2       13 UNK         0.5000 
     78 O          -2.8744  -27.2028  -46.7636 O.2       13 UNK        -0.5000 
     79 N          -1.1100  -25.9290  -47.4092 N.am      14 UNK        -0.5000 
     80 CA         -0.5756  -26.8393  -48.4248 C.3       14 UNK         0.1400 
     81 CB          0.8246  -26.3724  -48.8507 C.3       14 UNK        -0.1800 
     82 C          -1.5034  -26.9799  -49.6469 C.2       14 UNK         0.5000 
     83 O          -1.6723  -28.0881  -50.1572 O.2       14 UNK        -0.5000 
     84 N          -2.1055  -25.8623  -50.0768 N.am      15 UNK        -0.5000 
     85 CA         -3.0877  -25.8020  -51.1608 C.3       15 UNK         0.1400 
     86 CB         -3.2701  -24.3378  -51.5866 C.3       15 UNK        -0.1800 
     87 C          -4.4488  -26.4223  -50.7900 C.2       15 UNK         0.5000 
     88 O          -5.1962  -26.8107  -51.6880 O.2       15 UNK        -0.5000 
     89 N          -4.7574  -26.4747  -49.4858 N.am      16 UNK        -0.5000 
     90 CA         -5.9520  -27.0126  -48.8196 C.3       16 UNK         0.1400 
     91 CB         -6.1540  -28.5053  -49.1394 C.3       16 UNK        -0.1800 
     92 C          -7.2405  -26.2044  -49.0705 C.2       16 UNK         0.5000 
     93 O          -8.0040  -25.9755  -48.1323 O.2       16 UNK        -0.5000 
     94 N          -7.4444  -25.7526  -50.3132 N.am      17 UNK        -0.5000 
     95 CA         -8.5328  -24.8692  -50.7392 C.3       17 UNK         0.1400 
     96 CB         -8.7452  -25.0533  -52.2499 C.3       17 UNK        -0.1800 
     97 C          -8.2803  -23.3845  -50.3974 C.2       17 UNK         0.5000 
     98 O          -9.1479  -22.5501  -50.6592 O.2       17 UNK        -0.5000 
     99 N          -7.0999  -23.0798  -49.8384 N.am      18 UNK        -0.5000 
    100 CA        -6.5898  -21.7770  -49.4072 C.3       18 UNK         0.1400 
    101 CB        -7.4793  -21.1318  -48.3267 C.3       18 UNK        -0.1800 
    102 C         -6.2956  -20.8189  -50.5716 C.2       18 UNK         0.5000 
    103 O         -5.1307  -20.5098  -50.8195 O.2       18 UNK        -0.5000 
    104 N         -7.3452  -20.3930  -51.2850 N.am      19 UNK        -0.5000 
    105 CA        -7.2850  -19.4478  -52.4045 C.3       19 UNK         0.1400 
    106 CB        -8.7160  -19.0884  -52.8308 C.3       19 UNK        -0.1800 
    107 C         -6.4773  -19.9650  -53.6101 C.2       19 UNK         0.5000 
    108 O         -5.9072  -19.1642  -54.3519 O.2       19 UNK        -0.5000 
    109 N         -6.4143  -21.2956  -53.7595 N.am      20 UNK        -0.5000 
    110 CA        -5.6649  -22.0017  -54.7987 C.3       20 UNK         0.1400 
    111 CB        -6.0386  -23.4909  -54.7573 C.3       20 UNK        -0.1800 
    112 C         -4.1354  -21.8190  -54.7153 C.2       20 UNK         0.5000 
    113 O         -3.4600  -22.0391  -55.7212 O.2       20 UNK        -0.5000 
    114 N         -3.6154  -21.3854  -53.5546 N.am      21 UNK        -0.5000 
    115 CA        -2.1947  -21.1059  -53.3107 C.3       21 UNK         0.1400 
    116 CB        -2.0138  -20.6880  -51.8441 C.3       21 UNK        -0.1800 
    117 C         -1.5908  -20.0351  -54.2426 C.2       21 UNK         0.5000 
    118 O         -0.3947  -20.0886  -54.5289 O.2       21 UNK        -0.5000 
    119 N         -2.4346  -19.1066  -54.7050 N.am      22 UNK        -0.5000 
    120 CA        -2.1265  -18.0733  -55.7036 C.3       22 UNK         0.1400 
    121 C         -3.1296  -18.1232  -56.8955 C.2       22 UNK         0.5000 
    122 N         -3.7317  -19.2683  -57.1989 N.am      22 UNK        -0.7600 
    123 O         -3.3552  -17.1263  -57.5762 O.2       22 UNK        -0.5000 
    124 C124       -1.9968  -16.6694  -55.0462 C.3       23 UNK        -0.0398 
    125 S125       -0.3594  -16.4281  -54.2786 S.3       23 UNK        -0.2404 
    126 C126       -0.6998  -16.7616  -52.5247 C.3       23 UNK        -0.0205 
    127 H127        2.7002  -19.1785  -42.8368 H         1 UNK         0.0600 
    128 H128        4.0102  -19.3472  -44.0170 H         1 UNK         0.0600 
    129 H129        4.3553  -18.7572  -42.3925 H         1 UNK         0.0600 
    130 H130        3.7435  -17.7822  -45.5840 H         1 UNK         0.3000 
    131 H131        2.2989  -15.3855  -45.2578 H         1 UNK         0.0600 
    132 H132        2.8146  -16.7902  -47.4245 H         1 UNK         0.0800 
    133 H133        4.2831  -15.8597  -47.5333 H         1 UNK         0.0800 
    134 H134        2.6018  -13.7284  -50.1842 H         1 UNK         0.0800 
    135 H135        3.9847  -14.6561  -49.6694 H         1 UNK         0.0800 
    136 H136        0.5958  -14.8142  -51.1138 H         1 UNK         0.1150 
    137 H137        0.8897  -18.9457  -52.2168 H         1 UNK         0.1150 
    138 H138        3.9466  -17.1501  -49.8080 H         1 UNK         0.1150 
    139 H139        2.9468  -20.1607  -51.7775 H         1 UNK         0.0800 
    140 H140        4.3144  -19.3259  -51.0884 H         1 UNK         0.0800 
    141 H141        1.0171  -21.0636  -50.5304 H         1 UNK         0.0800 
    142 H142        0.6385  -19.9432  -49.2406 H         1 UNK         0.0800 
    143 H143        1.4462  -22.8845  -48.9254 H         1 UNK         0.0600 
    144 H144        1.2769  -20.8247  -46.9014 H         1 UNK         0.3000 
    145 H145        1.1877  -23.0477  -44.1247 H         1 UNK         0.0600 
    146 H146        3.2751  -21.8113  -43.5758 H         1 UNK         0.0600 
    147 H147        3.5744  -23.0273  -44.8061 H         1 UNK         0.0600 
    148 H148        3.4580  -21.3356  -45.2677 H         1 UNK         0.0600 
    149 H149        1.4026  -20.1951  -44.3445 H         1 UNK         0.3000 
    150 H150       -2.1457  -19.6232  -44.0974 H         1 UNK         0.0600 
    151 H151       -1.1390  -20.0702  -41.8330 H         1 UNK         0.0600 
    152 H152       -1.3879  -18.3627  -42.1520 H         1 UNK         0.0600 
    153 H153        0.2309  -19.0519  -42.2610 H         1 UNK         0.0600 
    154 H154       -0.5976  -17.5298  -44.2703 H         1 UNK         0.3000 
    155 H155        0.5052  -16.5174  -46.4226 H         1 UNK         0.0600 
    156 H156       -1.4863  -17.3966  -48.5841 H         1 UNK         0.0600 
    157 H157        0.2668  -17.4495  -48.6813 H         1 UNK         0.0600 
    158 H158       -0.5556  -15.8993  -48.6164 H         1 UNK         0.0600 
    159 H159       -1.0914  -15.3512  -45.4549 H         1 UNK         0.3000 
    160 H160       -4.6407  -15.2817  -45.5546 H         1 UNK         0.0600 
    161 H161       -4.3250  -15.3585  -43.0838 H         1 UNK         0.0600 
    162 H162       -2.7242  -16.0658  -43.2981 H         1 UNK         0.0600 
    163 H163       -4.1559  -16.9557  -43.7967 H         1 UNK         0.0600 
    164 H164       -2.2135  -13.9013  -44.4805 H         1 UNK         0.3000 
    165 H165       -2.9175  -10.9407  -46.2118 H         1 UNK         0.0600 
    166 H166       -3.2269   -9.8157  -44.0177 H         1 UNK         0.0600 
    167 H167       -4.6979  -10.6494  -44.4914 H         1 UNK         0.0600 
    168 H168       -3.6529  -11.3527  -43.2633 H         1 UNK         0.0600 
    169 H169       -1.2936  -11.5916  -43.8997 H         1 UNK         0.3000 
    170 H170        1.4395  -12.8913  -45.6776 H         1 UNK         0.0600 
    171 H171        1.7800  -10.4586  -46.1376 H         1 UNK         0.0600 
    172 H172        1.2397  -10.0642  -44.5090 H         1 UNK         0.0600 
    173 H173        2.7262  -10.9821  -44.7550 H         1 UNK         0.0600 
    174 H174        1.3849  -12.0943  -43.0102 H         1 UNK         0.3000 
    175 H175        0.1013  -13.4082  -41.2081 H         1 UNK         0.0600 
    176 H176        0.3452  -16.3475  -42.0499 H         1 UNK         0.0600 
    177 H177        0.1136  -15.7767  -40.3999 H         1 UNK         0.0600 
    178 H178       -1.1399  -15.5127  -41.5990 H         1 UNK         0.0600 
    179 H179        2.4627  -15.1061  -41.8451 H         1 UNK         0.3000 
    180 H180        4.7012  -12.6810  -40.3923 H         1 UNK         0.0600 
    181 H181        3.9538  -15.6108  -39.8849 H         1 UNK         0.0600 
    182 H182        3.9097  -14.3195  -38.6887 H         1 UNK         0.0600 
    183 H183        5.4446  -14.8161  -39.3850 H         1 UNK         0.0600 
    184 H184        4.4458  -14.9384  -42.3549 H         1 UNK         0.3000 
    185 H185        6.6557  -13.3835  -44.5762 H         1 UNK         0.0600 
    186 H186        8.4302  -14.3671  -43.1188 H         1 UNK         0.0600 
    187 H187        7.4586  -15.8155  -42.8879 H         1 UNK         0.0600 
    188 H188        8.0869  -15.4129  -44.4868 H         1 UNK         0.0600 
    189 H189        5.5783  -16.0468  -44.4513 H         1 UNK         0.3000 
    190 H190       -1.1345  -20.9000  -47.4662 H         1 UNK         0.3000 
    191 H191       -3.3171  -21.8602  -48.9734 H         1 UNK         0.0600 
    192 H192       -3.1756  -20.7450  -46.1218 H         1 UNK         0.0600 
    193 H193       -4.6658  -20.9647  -47.0232 H         1 UNK         0.0600 
    194 H194       -3.4548  -19.8284  -47.5985 H         1 UNK         0.0600 
    195 H195       -1.9269  -23.0733  -45.8865 H         1 UNK         0.3000 
    196 H196       -3.7310  -25.2288  -45.5031 H         1 UNK         0.0600 
    197 H197       -0.8329  -24.8697  -44.5727 H         1 UNK         0.0600 
    198 H198       -1.9535  -26.0770  -43.9524 H         1 UNK         0.0600 
    199 H199       -2.2803  -24.3695  -43.7006 H         1 UNK         0.0600 
    200 H200       -0.5966  -25.0689  -47.2534 H         1 UNK         0.3000 
    201 H201       -0.4768  -27.8269  -47.9694 H         1 UNK         0.0600 
    202 H202        0.8012  -25.3788  -49.2981 H         1 UNK         0.0600 
    203 H203        1.2562  -27.0531  -49.5855 H         1 UNK         0.0600 
    204 H204        1.5045  -26.3390  -47.9992 H         1 UNK         0.0600 
    205 H205       -1.8421  -24.9751  -49.6552 H         1 UNK         0.3000 
    206 H206       -2.6919  -26.3594  -52.0122 H         1 UNK         0.0600 
    207 H207       -3.9572  -24.2573  -52.4276 H         1 UNK         0.0600 
    208 H208       -3.6665  -23.7259  -50.7754 H         1 UNK         0.0600 
    209 H209       -2.3223  -23.9026  -51.9023 H         1 UNK         0.0600 
    210 H210       -4.0975  -26.0356  -48.8553 H         1 UNK         0.3000 
    211 H211       -5.7415  -26.9350  -47.7517 H         1 UNK         0.0600 
    212 H212       -6.3957  -28.6707  -50.1895 H         1 UNK         0.0600 
    213 H213       -5.2582  -29.0809  -48.9058 H         1 UNK         0.0600 
    214 H214       -6.9713  -28.9209  -48.5489 H         1 UNK         0.0600 
    215 H215       -6.7665  -26.0261  -51.0203 H         1 UNK         0.3000 
    216 H216       -9.4500  -25.1665  -50.2270 H         1 UNK         0.0600 
    217 H217       -9.5578  -24.4245  -52.6161 H         1 UNK         0.0600 
    218 H218       -9.0041  -26.0854  -52.4869 H         1 UNK         0.0600 
    219 H219       -7.8492  -24.7970  -52.8139 H         1 UNK         0.0600 
    220 H220       -6.4664  -23.8508  -49.6811 H         1 UNK         0.3000 
    221 H221       -5.6329  -21.9918  -48.9392 H         1 UNK         0.0600 
    222 H222       -8.4777  -20.8958  -48.6948 H         1 UNK         0.0600 
    223 H223       -7.5887  -21.7920  -47.4663 H         1 UNK         0.0600 
    224 H224       -7.0383  -20.2012  -47.9674 H         1 UNK         0.0600 
    225 H225       -8.2550  -20.7787  -51.0528 H         1 UNK         0.3000 
    226 H226       -6.7935  -18.5402  -52.0481 H         1 UNK         0.0600 
    227 H227       -9.2712  -18.6379  -52.0078 H         1 UNK         0.0600 
    228 H228       -8.7116  -18.3692  -53.6509 H         1 UNK         0.0600 
    229 H229       -9.2677  -19.9676  -53.1665 H         1 UNK         0.0600 
    230 H230       -6.9147  -21.8656  -53.0944 H         1 UNK         0.3000 
    231 H231       -5.9805  -21.6000  -55.7638 H         1 UNK         0.0600 
    232 H232       -7.1024  -23.6341  -54.9477 H         1 UNK         0.0600 
    233 H233       -5.8067  -23.9386  -53.7915 H         1 UNK         0.0600 
    234 H234       -5.4969  -24.0538  -55.5187 H         1 UNK         0.0600 
    235 H235       -4.2429  -21.1985  -52.7821 H         1 UNK         0.3000 
    236 H236       -1.6422  -22.0327  -53.4766 H         1 UNK         0.0600 
    237 H237       -0.9668  -20.4909  -51.6189 H         1 UNK         0.0600 
    238 H238       -2.5740  -19.7818  -51.6112 H         1 UNK         0.0600 
    239 H239       -2.3515  -21.4710  -51.1670 H         1 UNK         0.0600 
    240 H240       -3.4082  -19.1655  -54.4354 H         1 UNK         0.3000 
    241 H241       -1.1715  -18.3065  -56.1778 H         1 UNK         0.0600 
    242 H242       -4.3739  -19.2940  -57.9751 H         1 UNK         0.3800 
    243 H243       -3.5194  -20.1191  -56.6945 H         1 UNK         0.3800 
    244 H244       -2.0958  -15.8734  -55.7854 H         1 UNK         0.0800 
    245 H245       -2.7913  -16.5004  -54.3179 H         1 UNK         0.0800 
    246 H246       -1.3265  -15.9673  -52.1164 H         1 UNK         0.0800 
    247 H247       -1.2671  -17.6867  -52.4237 H         1 UNK         0.0800 
@<TRIPOS>BOND
     1    1    2 1    
     2    1  127 1    
     3    1  128 1    
     4    1  129 1    
     5    2    3 2    
     6    2    4 am   BACKBONE|DICT|INTERRES
     7    4    5 1    
     8    4  130 1    
     9    5    6 1    
    10    5   65 1    
    11    5  131 1    
    12    6    7 1    
    13    6  132 1    
    14    6  133 1    
    15    7    8 1    
    16    8    9 1    
    17    8  134 1    
    18    8  135 1    
    19    9   10 ar   
    20    9   14 ar   
    21   10   11 ar   
    22   10  136 1    
    23   11   12 ar   
    24   11  126 1    
    25   12   13 ar   
    26   12  137 1    
    27   13   14 ar   
    28   13   15 1    
    29   14  138 1    
    30   15   16 1    
    31   15  139 1    
    32   15  140 1    
    33   16   17 1    
    34   17   18 1    
    35   17  141 1    
    36   17  142 1    
    37   18   19 1    
    38   18   67 1    
    39   18  143 1    
    40   19   20 am   BACKBONE|DICT|INTERRES
    41   19  144 1    
    42   20   21 2    
    43   20   22 1    
    44   22   23 1    
    45   22   24 1    
    46   22  145 1    
    47   23  146 1    
    48   23  147 1    
    49   23  148 1    
    50   24   25 am   BACKBONE|DICT|INTERRES
    51   24  149 1    
    52   25   26 2    
    53   25   27 1    
    54   27   28 1    
    55   27   29 1    
    56   27  150 1    
    57   28  151 1    
    58   28  152 1    
    59   28  153 1    
    60   29   30 am   BACKBONE|DICT|INTERRES
    61   29  154 1    
    62   30   31 2    
    63   30   32 1    
    64   32   33 1    
    65   32   34 1    
    66   32  155 1    
    67   33  156 1    
    68   33  157 1    
    69   33  158 1    
    70   34   35 am   BACKBONE|DICT|INTERRES
    71   34  159 1    
    72   35   36 2    
    73   35   37 1    
    74   37   38 1    
    75   37   39 1    
    76   37  160 1    
    77   38  161 1    
    78   38  162 1    
    79   38  163 1    
    80   39   40 am   BACKBONE|DICT|INTERRES
    81   39  164 1    
    82   40   41 2    
    83   40   42 1    
    84   42   43 1    
    85   42   44 1    
    86   42  165 1    
    87   43  166 1    
    88   43  167 1    
    89   43  168 1    
    90   44   45 am   BACKBONE|DICT|INTERRES
    91   44  169 1    
    92   45   46 2    
    93   45   47 1    
    94   47   48 1    
    95   47   49 1    
    96   47  170 1    
    97   48  171 1    
    98   48  172 1    
    99   48  173 1    
   100   49   50 am   BACKBONE|DICT|INTERRES
   101   49  174 1    
   102   50   51 2    
   103   50   52 1    
   104   52   53 1    
   105   52   54 1    
   106   52  175 1    
   107   53  176 1    
   108   53  177 1    
   109   53  178 1    
   110   54   55 am   BACKBONE|DICT|INTERRES
   111   54  179 1    
   112   55   56 2    
   113   55   57 1    
   114   57   58 1    
   115   57   59 1    
   116   57  180 1    
   117   58  181 1    
   118   58  182 1    
   119   58  183 1    
   120   59   60 am   BACKBONE|DICT|INTERRES
   121   59  184 1    
   122   60   61 2    
   123   60   62 1    
   124   62   63 1    
   125   62   64 1    
   126   62  185 1    
   127   63  186 1    
   128   63  187 1    
   129   63  188 1    
   130   64   65 am   BACKBONE|DICT|INTERRES
   131   64  189 1    
   132   65   66 2    
   133   67   68 2    
   134   67   69 am   BACKBONE|DICT|INTERRES
   135   69   70 1    
   136   69  190 1    
   137   70   71 1    
   138   70   72 1    
   139   70  191 1    
   140   71  192 1    
   141   71  193 1    
   142   71  194 1    
   143   72   73 2    
   144   72   74 am   BACKBONE|DICT|INTERRES
   145   74   75 1    
   146   74  195 1    
   147   75   76 1    
   148   75   77 1    
   149   75  196 1    
   150   76  197 1    
   151   76  198 1    
   152   76  199 1    
   153   77   78 2    
   154   77   79 am   BACKBONE|DICT|INTERRES
   155   79   80 1    
   156   79  200 1    
   157   80   81 1    
   158   80   82 1    
   159   80  201 1    
   160   81  202 1    
   161   81  203 1    
   162   81  204 1    
   163   82   83 2    
   164   82   84 am   BACKBONE|DICT|INTERRES
   165   84   85 1    
   166   84  205 1    
   167   85   86 1    
   168   85   87 1    
   169   85  206 1    
   170   86  207 1    
   171   86  208 1    
   172   86  209 1    
   173   87   88 2    
   174   87   89 am   BACKBONE|DICT|INTERRES
   175   89   90 1    
   176   89  210 1    
   177   90   91 1    
   178   90   92 1    
   179   90  211 1    
   180   91  212 1    
   181   91  213 1    
   182   91  214 1    
   183   92   93 2    
   184   92   94 am   BACKBONE|DICT|INTERRES
   185   94   95 1    
   186   94  215 1    
   187   95   96 1    
   188   95   97 1    
   189   95  216 1    
   190   96  217 1    
   191   96  218 1    
   192   96  219 1    
   193   97   98 2    
   194   97   99 am   BACKBONE|DICT|INTERRES
   195   99  100 1    
   196   99  220 1    
   197  100  101 1    
   198  100  102 1    
   199  100  221 1    
   200  101  222 1    
   201  101  223 1    
   202  101  224 1    
   203  102  103 2    
   204  102  104 am   BACKBONE|DICT|INTERRES
   205  104  105 1    
   206  104  225 1    
   207  105  106 1    
   208  105  107 1    
   209  105  226 1    
   210  106  227 1    
   211  106  228 1    
   212  106  229 1    
   213  107  108 2    
   214  107  109 am   BACKBONE|DICT|INTERRES
   215  109  110 1    
   216  109  230 1    
   217  110  111 1    
   218  110  112 1    
   219  110  231 1    
   220  111  232 1    
   221  111  233 1    
   222  111  234 1    
   223  112  113 2    
   224  112  114 am   BACKBONE|DICT|INTERRES
   225  114  115 1    
   226  114  235 1    
   227  115  116 1    
   228  115  117 1    
   229  115  236 1    
   230  116  237 1    
   231  116  238 1    
   232  116  239 1    
   233  117  118 2    
   234  117  119 am   BACKBONE|DICT|INTERRES
   235  119  120 1    
   236  119  240 1    
   237  120  121 1    
   238  120  124 1    
   239  120  241 1    
   240  121  122 am   BACKBONE|DICT|INTERRES
   241  121  123 2    
   242  122  242 1    
   243  122  243 1    
   244  124  125 1    
   245  124  244 1    
   246  124  245 1    
   247  125  126 1    
   248  126  246 1    
   249  126  247 1    
@<TRIPOS>SUBSTRUCTURE
     1 UNK         1 GROUP             0       ****    0 ROOT    
