@<TRIPOS>MOLECULE
3R540
247   249    1
SMALL
USER_CHARGES


@<TRIPOS>ATOM
      1 CA          1.8502  -16.9169  -47.9693 C.3       0 UNK        -0.1800 
      2 C           0.3337  -16.8875  -47.8982 C.2       0 UNK         0.5000 
      3 O          -0.2182  -16.1311  -47.1051 O.2       0 UNK        -0.5000 
      4 N          -0.3515  -17.6697  -48.7445 N.am      1 UNK        -0.5000 
      5 CA         -1.8213  -17.7583  -48.8092 C.3       1 UNK         0.1400 
      6 C6         -2.3019  -18.8587  -49.7839 C.3       23 UNK        -0.0398 
      7 S7         -1.9201  -20.5330  -49.1616 S.3       23 UNK        -0.2404 
      8 C8         -0.7907  -21.2095  -50.4141 C.3       23 UNK        -0.0205 
      9 C9          0.5054  -20.4246  -50.4950 C.ar      23 UNK        -0.0193 
     10 C10         0.7149  -19.5439  -51.5554 C.ar      23 UNK        -0.1150 
     11 C11         1.8825  -18.7810  -51.6295 C.ar      23 UNK        -0.0193 
     12 C12         2.8735  -18.9541  -50.6578 C.ar      23 UNK        -0.1150 
     13 C13         2.6832  -19.8463  -49.5958 C.ar      23 UNK        -0.0193 
     14 C14         1.4885  -20.5681  -49.5129 C.ar      23 UNK        -0.1150 
     15 C15         3.7554  -19.9996  -48.5251 C.3       23 UNK        -0.0205 
     16 S16         4.9549  -21.3023  -48.9448 S.3       23 UNK        -0.2404 
     17 C17         4.0976  -22.8014  -48.3499 C.3       23 UNK        -0.0398 
     18 CA          4.7271  -23.3841  -47.0585 C.3       11 UNK         0.1400 
     19 N           4.7291  -22.4043  -45.9664 N.am      11 UNK        -0.5000 
     20 C           5.7790  -22.0963  -45.1940 C.2       10 UNK         0.5000 
     21 O           6.9070  -22.5644  -45.3503 O.2       10 UNK        -0.5000 
     22 CA          5.5208  -21.1203  -44.0264 C.3       10 UNK         0.1400 
     23 CB          5.9055  -19.6909  -44.4357 C.3       10 UNK        -0.1800 
     24 N           4.1318  -21.1321  -43.5545 N.am      10 UNK        -0.5000 
     25 C           3.5330  -22.1871  -42.9781 C.2       9 UNK         0.5000 
     26 O           4.1197  -23.2385  -42.7237 O.2       9 UNK        -0.5000 
     27 CA          2.0187  -22.0990  -42.6984 C.3       9 UNK         0.1400 
     28 CB          1.7676  -21.7413  -41.2264 C.3       9 UNK        -0.1800 
     29 N           1.3006  -21.1481  -43.5449 N.am      9 UNK        -0.5000 
     30 C           1.2778  -21.1315  -44.8852 C.2       8 UNK         0.5000 
     31 O           1.8434  -21.9656  -45.5966 O.2       8 UNK        -0.5000 
     32 CA          0.5525  -19.9399  -45.5354 C.3       8 UNK         0.1400 
     33 CB         -0.9122  -20.3026  -45.7808 C.3       8 UNK        -0.1800 
     34 N           0.6075  -18.7085  -44.7388 N.am      8 UNK        -0.5000 
     35 C           1.7276  -18.0876  -44.3385 C.2       7 UNK         0.5000 
     36 O           2.8589  -18.4817  -44.6212 O.2       7 UNK        -0.5000 
     37 CA          1.5655  -16.8602  -43.4272 C.3       7 UNK         0.1400 
     38 CB          1.3618  -15.5801  -44.2423 C.3       7 UNK        -0.1800 
     39 N           0.4388  -17.0207  -42.5120 N.am      7 UNK        -0.5000 
     40 C           0.5387  -17.5103  -41.2702 C.2       6 UNK         0.5000 
     41 O           1.6032  -17.8370  -40.7444 O.2       6 UNK        -0.5000 
     42 CA         -0.7743  -17.6742  -40.4813 C.3       6 UNK         0.1400 
     43 CB         -1.0919  -16.3941  -39.6938 C.3       6 UNK        -0.1800 
     44 N          -1.9229  -18.0145  -41.3225 N.am      6 UNK        -0.5000 
     45 C          -2.0476  -19.1522  -42.0187 C.2       5 UNK         0.5000 
     46 O          -1.1961  -20.0407  -42.0392 O.2       5 UNK        -0.5000 
     47 CA         -3.3316  -19.3117  -42.8527 C.3       5 UNK         0.1400 
     48 CB         -4.4485  -19.9303  -41.9997 C.3       5 UNK        -0.1800 
     49 N          -3.8308  -18.0795  -43.4731 N.am      5 UNK        -0.5000 
     50 C          -3.1476  -17.2472  -44.2734 C.2       4 UNK         0.5000 
     51 O          -1.9366  -17.3439  -44.4840 O.2       4 UNK        -0.5000 
     52 CA         -3.9946  -16.1740  -44.9926 C.3       4 UNK         0.1400 
     53 CB         -5.0358  -15.5098  -44.0638 C.3       4 UNK        -0.1800 
     54 N          -3.2110  -15.1573  -45.7003 N.am      4 UNK        -0.5000 
     55 C          -2.4117  -14.2160  -45.1743 C.2       3 UNK         0.5000 
     56 O          -2.1879  -14.1021  -43.9678 O.2       3 UNK        -0.5000 
     57 CA         -1.8001  -13.2016  -46.1661 C.3       3 UNK         0.1400 
     58 CB         -0.4002  -12.7157  -45.7511 C.3       3 UNK        -0.1800 
     59 N          -1.7235  -13.7574  -47.5166 N.am      3 UNK        -0.5000 
     60 C          -2.3532  -13.2875  -48.6012 C.2       2 UNK         0.5000 
     61 O          -3.0604  -12.2797  -48.5961 O.2       2 UNK        -0.5000 
     62 CA         -2.1820  -14.0746  -49.9199 C.3       2 UNK         0.1400 
     63 CB         -1.1463  -13.3842  -50.8215 C.3       2 UNK        -0.1800 
     64 N          -1.7877  -15.4738  -49.7418 N.am      2 UNK        -0.5000 
     65 C          -2.5121  -16.4085  -49.1096 C.2       1 UNK         0.5000 
     66 O          -3.6551  -16.2107  -48.6963 O.2       1 UNK        -0.5000 
     67 C           3.9875  -24.6736  -46.6303 C.2       11 UNK         0.5000 
     68 O           3.7774  -25.5518  -47.4678 O.2       11 UNK        -0.5000 
     69 N           3.5820  -24.7561  -45.3514 N.am      12 UNK        -0.5000 
     70 CA          2.7521  -25.7959  -44.7323 C.3       12 UNK         0.1400 
     71 CB          3.4987  -27.1457  -44.6981 C.3       12 UNK        -0.1800 
     72 C           1.3370  -25.9045  -45.3455 C.2       12 UNK         0.5000 
     73 O           0.7314  -26.9771  -45.2987 O.2       12 UNK        -0.5000 
     74 N           0.8310  -24.7985  -45.9064 N.am      13 UNK        -0.5000 
     75 CA         -0.4923  -24.7045  -46.5162 C.3       13 UNK         0.1400 
     76 CB         -0.3967  -23.7975  -47.7512 C.3       13 UNK        -0.1800 
     77 C          -1.5240  -24.1699  -45.5075 C.2       13 UNK         0.5000 
     78 O          -1.1598  -23.4803  -44.5533 O.2       13 UNK        -0.5000 
     79 N          -2.7994  -24.4987  -45.7444 N.am      14 UNK        -0.5000 
     80 CA         -3.9224  -24.1596  -44.8643 C.3       14 UNK         0.1400 
     81 CB         -4.9067  -25.3415  -44.8655 C.3       14 UNK        -0.1800 
     82 C          -4.6544  -22.8632  -45.2648 C.2       14 UNK         0.5000 
     83 O          -5.5125  -22.4116  -44.5063 O.2       14 UNK        -0.5000 
     84 N          -4.3345  -22.3096  -46.4454 N.am      15 UNK        -0.5000 
     85 CA         -4.9990  -21.1690  -47.0910 C.3       15 UNK         0.1400 
     86 CB         -4.7918  -19.8636  -46.2977 C.3       15 UNK        -0.1800 
     87 C          -6.4796  -21.4548  -47.4146 C.2       15 UNK         0.5000 
     88 O          -7.3619  -20.6596  -47.0857 O.2       15 UNK        -0.5000 
     89 N          -6.7192  -22.5975  -48.0763 N.am      16 UNK        -0.5000 
     90 CA         -8.0264  -22.9922  -48.6158 C.3       16 UNK         0.1400 
     91 CB         -7.9637  -24.4636  -49.0526 C.3       16 UNK        -0.1800 
     92 C          -8.4885  -22.0951  -49.7852 C.2       16 UNK         0.5000 
     93 O          -9.6907  -21.9618  -50.0174 O.2       16 UNK        -0.5000 
     94 N          -7.5210  -21.4776  -50.4701 N.am      17 UNK        -0.5000 
     95 CA         -7.6849  -20.3643  -51.3953 C.3       17 UNK         0.1400 
     96 CB         -7.3119  -20.8254  -52.8133 C.3       17 UNK        -0.1800 
     97 C          -6.7597  -19.2331  -50.9165 C.2       17 UNK         0.5000 
     98 O          -5.8183  -19.4958  -50.1629 O.2       17 UNK        -0.5000 
     99 N          -7.0524  -18.0011  -51.3473 N.am      18 UNK        -0.5000 
    100 CA        -6.3114  -16.7929  -50.9822 C.3       18 UNK         0.1400 
    101 CB        -7.3026  -15.6132  -50.9107 C.3       18 UNK        -0.1800 
    102 C         -5.1230  -16.5497  -51.9397 C.2       18 UNK         0.5000 
    103 O         -4.4314  -17.4969  -52.3177 O.2       18 UNK        -0.5000 
    104 N         -4.9061  -15.2858  -52.3349 N.am      19 UNK        -0.5000 
    105 CA        -3.8050  -14.8270  -53.1912 C.3       19 UNK         0.1400 
    106 CB        -3.8707  -13.2970  -53.3170 C.3       19 UNK        -0.1800 
    107 C         -3.7584  -15.4737  -54.5878 C.2       19 UNK         0.5000 
    108 O         -2.6866  -15.5273  -55.1902 O.2       19 UNK        -0.5000 
    109 N         -4.9010  -15.9957  -55.0564 N.am      20 UNK        -0.5000 
    110 CA        -5.0364  -16.7803  -56.2852 C.3       20 UNK         0.1400 
    111 CB        -6.5142  -17.1522  -56.4788 C.3       20 UNK        -0.1800 
    112 C         -4.1565  -18.0469  -56.3085 C.2       20 UNK         0.5000 
    113 O         -3.7213  -18.4578  -57.3851 O.2       20 UNK        -0.5000 
    114 N         -3.8623  -18.6126  -55.1270 N.am      21 UNK        -0.5000 
    115 CA        -2.9568  -19.7503  -54.9560 C.3       21 UNK         0.1400 
    116 CB        -3.0797  -20.2804  -53.5213 C.3       21 UNK        -0.1800 
    117 C         -1.4859  -19.4200  -55.2842 C.2       21 UNK         0.5000 
    118 O         -0.7225  -20.3367  -55.5896 O.2       21 UNK        -0.5000 
    119 N         -1.1190  -18.1317  -55.2370 N.am      22 UNK        -0.5000 
    120 CA         0.1958  -17.6186  -55.6519 C.3       22 UNK         0.1400 
    121 C          0.2866  -17.2988  -57.1742 C.2       22 UNK         0.5000 
    122 N         -0.7621  -17.4852  -57.9692 N.am      22 UNK        -0.7600 
    123 O          1.3399  -16.8867  -57.6522 O.2       22 UNK        -0.5000 
    124 C124        0.6618  -16.4095  -54.7920 C.3       23 UNK        -0.0398 
    125 S125        0.6094  -16.7143  -52.9918 S.3       23 UNK        -0.2404 
    126 C126        2.0718  -17.7880  -52.7686 C.3       23 UNK        -0.0205 
    127 H127        2.2719  -16.0417  -47.4753 H         1 UNK         0.0600 
    128 H128        2.1898  -16.9074  -49.0034 H         1 UNK         0.0600 
    129 H129        2.2361  -17.8039  -47.4701 H         1 UNK         0.0600 
    130 H130        0.1512  -18.2827  -49.3731 H         1 UNK         0.3000 
    131 H131       -2.1627  -18.0297  -47.8090 H         1 UNK         0.0600 
    132 H132       -1.8790  -18.7056  -50.7763 H         1 UNK         0.0800 
    133 H133       -3.3832  -18.8106  -49.9123 H         1 UNK         0.0800 
    134 H134       -0.5667  -22.2481  -50.1709 H         1 UNK         0.0800 
    135 H135       -1.2948  -21.2299  -51.3795 H         1 UNK         0.0800 
    136 H136       -0.0436  -19.4341  -52.3180 H         1 UNK         0.1150 
    137 H137        3.7898  -18.3835  -50.7174 H         1 UNK         0.1150 
    138 H138        1.3165  -21.2384  -48.6842 H         1 UNK         0.1150 
    139 H139        4.2947  -19.0583  -48.4100 H         1 UNK         0.0800 
    140 H140        3.3048  -20.2059  -47.5531 H         1 UNK         0.0800 
    141 H141        3.0406  -22.5904  -48.1911 H         1 UNK         0.0800 
    142 H142        4.1381  -23.5340  -49.1578 H         1 UNK         0.0800 
    143 H143        5.7507  -23.6819  -47.2937 H         1 UNK         0.0600 
    144 H144        3.8260  -21.9918  -45.7559 H         1 UNK         0.3000 
    145 H145        6.1596  -21.4223  -43.1939 H         1 UNK         0.0600 
    146 H146        5.7412  -18.9864  -43.6202 H         1 UNK         0.0600 
    147 H147        5.3274  -19.3507  -45.2959 H         1 UNK         0.0600 
    148 H148        6.9600  -19.6342  -44.7083 H         1 UNK         0.0600 
    149 H149        3.5814  -20.3057  -43.7612 H         1 UNK         0.3000 
    150 H150        1.5933  -23.0859  -42.8911 H         1 UNK         0.0600 
    151 H151        2.2815  -22.4349  -40.5596 H         1 UNK         0.0600 
    152 H152        0.7055  -21.7885  -40.9854 H         1 UNK         0.0600 
    153 H153        2.1197  -20.7357  -40.9925 H         1 UNK         0.0600 
    154 H154        0.7426  -20.4557  -43.0601 H         1 UNK         0.3000 
    155 H155        1.0267  -19.7376  -46.4966 H         1 UNK         0.0600 
    156 H156       -1.0027  -21.1313  -46.4784 H         1 UNK         0.0600 
    157 H157       -1.4595  -19.4607  -46.1971 H         1 UNK         0.0600 
    158 H158       -1.4010  -20.6122  -44.8600 H         1 UNK         0.0600 
    159 H159       -0.2868  -18.2778  -44.5179 H         1 UNK         0.3000 
    160 H160        2.4944  -16.7475  -42.8640 H         1 UNK         0.0600 
    161 H161        0.3788  -15.5707  -44.7105 H         1 UNK         0.0600 
    162 H162        2.1115  -15.4819  -45.0279 H         1 UNK         0.0600 
    163 H163        1.4319  -14.6963  -43.6083 H         1 UNK         0.0600 
    164 H164       -0.4803  -16.8227  -42.8891 H         1 UNK         0.3000 
    165 H165       -0.6296  -18.4884  -39.7680 H         1 UNK         0.0600 
    166 H166       -1.9722  -16.5256  -39.0643 H         1 UNK         0.0600 
    167 H167       -0.2629  -16.1227  -39.0387 H         1 UNK         0.0600 
    168 H168       -1.2760  -15.5486  -40.3581 H         1 UNK         0.0600 
    169 H169       -2.6646  -17.3324  -41.3818 H         1 UNK         0.3000 
    170 H170       -3.1185  -20.0118  -43.6589 H         1 UNK         0.0600 
    171 H171       -4.1192  -20.8647  -41.5431 H         1 UNK         0.0600 
    172 H172       -4.7599  -19.2622  -41.1959 H         1 UNK         0.0600 
    173 H173       -5.3252  -20.1616  -42.6053 H         1 UNK         0.0600 
    174 H174       -4.8176  -17.9062  -43.3513 H         1 UNK         0.3000 
    175 H175       -4.5423  -16.7034  -45.7735 H         1 UNK         0.0600 
    176 H176       -4.5713  -15.0773  -43.1769 H         1 UNK         0.0600 
    177 H177       -5.5711  -14.7130  -44.5805 H         1 UNK         0.0600 
    178 H178       -5.7868  -16.2241  -43.7259 H         1 UNK         0.0600 
    179 H179       -3.2890  -15.1876  -46.7088 H         1 UNK         0.3000 
    180 H180       -2.4670  -12.3376  -46.1489 H         1 UNK         0.0600 
    181 H181       -0.3874  -12.3503  -44.7237 H         1 UNK         0.0600 
    182 H182       -0.0713  -11.8948  -46.3883 H         1 UNK         0.0600 
    183 H183        0.3401  -13.5100  -45.8337 H         1 UNK         0.0600 
    184 H184       -1.1787  -14.6153  -47.5861 H         1 UNK         0.3000 
    185 H185       -3.1496  -14.0654  -50.4218 H         1 UNK         0.0600 
    186 H186       -1.4403  -12.3564  -51.0382 H         1 UNK         0.0600 
    187 H187       -0.1638  -13.3515  -50.3487 H         1 UNK         0.0600 
    188 H188       -1.0377  -13.8980  -51.7764 H         1 UNK         0.0600 
    189 H189       -0.8516  -15.7176  -50.0314 H         1 UNK         0.3000 
    190 H190        3.8473  -24.0023  -44.7305 H         1 UNK         0.3000 
    191 H191        2.6022  -25.4820  -43.6986 H         1 UNK         0.0600 
    192 H192        2.9567  -27.8781  -44.0988 H         1 UNK         0.0600 
    193 H193        4.4888  -27.0369  -44.2554 H         1 UNK         0.0600 
    194 H194        3.6211  -27.5677  -45.6959 H         1 UNK         0.0600 
    195 H195        1.3460  -23.9276  -45.8329 H         1 UNK         0.3000 
    196 H196       -0.8202  -25.6918  -46.8486 H         1 UNK         0.0600 
    197 H197        0.0284  -22.8262  -47.5062 H         1 UNK         0.0600 
    198 H198        0.2377  -24.2473  -48.5152 H         1 UNK         0.0600 
    199 H199       -1.3763  -23.6298  -48.1999 H         1 UNK         0.0600 
    200 H200       -3.0177  -25.0742  -46.5455 H         1 UNK         0.3000 
    201 H201       -3.5625  -24.0240  -43.8419 H         1 UNK         0.0600 
    202 H202       -5.7418  -25.1585  -44.1879 H         1 UNK         0.0600 
    203 H203       -4.4205  -26.2598  -44.5356 H         1 UNK         0.0600 
    204 H204       -5.3233  -25.5190  -45.8579 H         1 UNK         0.0600 
    205 H205       -3.6027  -22.7511  -46.9818 H         1 UNK         0.3000 
    206 H206       -4.5134  -21.0359  -48.0570 H         1 UNK         0.0600 
    207 H207       -3.7354  -19.6796  -46.1178 H         1 UNK         0.0600 
    208 H208       -5.1774  -19.0085  -46.8541 H         1 UNK         0.0600 
    209 H209       -5.3009  -19.8852  -45.3343 H         1 UNK         0.0600 
    210 H210       -5.9432  -23.2085  -48.2842 H         1 UNK         0.3000 
    211 H211       -8.7662  -22.9020  -47.8176 H         1 UNK         0.0600 
    212 H212       -7.2286  -24.6182  -49.8434 H         1 UNK         0.0600 
    213 H213       -8.9296  -24.7991  -49.4324 H         1 UNK         0.0600 
    214 H214       -7.7012  -25.1127  -48.2169 H         1 UNK         0.0600 
    215 H215       -6.5707  -21.5930  -50.1449 H         1 UNK         0.3000 
    216 H216       -8.7142  -19.9995  -51.3852 H         1 UNK         0.0600 
    217 H217       -7.9941  -21.6002  -53.1633 H         1 UNK         0.0600 
    218 H218       -6.3015  -21.2322  -52.8501 H         1 UNK         0.0600 
    219 H219       -7.3627  -20.0004  -53.5249 H         1 UNK         0.0600 
    220 H220       -7.8233  -17.8768  -51.9870 H         1 UNK         0.3000 
    221 H221       -5.8883  -16.9232  -49.9845 H         1 UNK         0.0600 
    222 H222       -6.8260  -14.7136  -50.5193 H         1 UNK         0.0600 
    223 H223       -7.7256  -15.3759  -51.8879 H         1 UNK         0.0600 
    224 H224       -8.1312  -15.8428  -50.2403 H         1 UNK         0.0600 
    225 H225       -5.5348  -14.5702  -51.9999 H         1 UNK         0.3000 
    226 H226       -2.8731  -15.0978  -52.6926 H         1 UNK         0.0600 
    227 H227       -3.8358  -12.8105  -52.3426 H         1 UNK         0.0600 
    228 H228       -3.0282  -12.9170  -53.8966 H         1 UNK         0.0600 
    229 H229       -4.7848  -12.9754  -53.8177 H         1 UNK         0.0600 
    230 H230       -5.7294  -15.9009  -54.4887 H         1 UNK         0.3000 
    231 H231       -4.7256  -16.1478  -57.1191 H         1 UNK         0.0600 
    232 H232       -6.6570  -17.7185  -57.4002 H         1 UNK         0.0600 
    233 H233       -7.1403  -16.2623  -56.5460 H         1 UNK         0.0600 
    234 H234       -6.8858  -17.7646  -55.6561 H         1 UNK         0.0600 
    235 H235       -4.2203  -18.1942  -54.2746 H         1 UNK         0.3000 
    236 H236       -3.2785  -20.5393  -55.6389 H         1 UNK         0.0600 
    237 H237       -4.1146  -20.5018  -53.2650 H         1 UNK         0.0600 
    238 H238       -2.5097  -21.2017  -53.4003 H         1 UNK         0.0600 
    239 H239       -2.7050  -19.5586  -52.7964 H         1 UNK         0.0600 
    240 H240       -1.8091  -17.4249  -55.0127 H         1 UNK         0.3000 
    241 H241        0.9258  -18.4138  -55.4992 H         1 UNK         0.0600 
    242 H242       -1.6395  -17.8359  -57.6083 H         1 UNK         0.3800 
    243 H243       -0.6772  -17.2778  -58.9518 H         1 UNK         0.3800 
    244 H244        0.0355  -15.5404  -54.9986 H         1 UNK         0.0800 
    245 H245        1.6791  -16.1174  -55.0581 H         1 UNK         0.0800 
    246 H246        2.9441  -17.1564  -52.5943 H         1 UNK         0.0800 
    247 H247        2.2764  -18.3544  -53.6763 H         1 UNK         0.0800 
@<TRIPOS>BOND
     1    1    2 1    
     2    1  127 1    
     3    1  128 1    
     4    1  129 1    
     5    2    3 2    
     6    2    4 am   BACKBONE|DICT|INTERRES
     7    4    5 1    
     8    4  130 1    
     9    5    6 1    
    10    5   65 1    
    11    5  131 1    
    12    6    7 1    
    13    6  132 1    
    14    6  133 1    
    15    7    8 1    
    16    8    9 1    
    17    8  134 1    
    18    8  135 1    
    19    9   10 ar   
    20    9   14 ar   
    21   10   11 ar   
    22   10  136 1    
    23   11   12 ar   
    24   11  126 1    
    25   12   13 ar   
    26   12  137 1    
    27   13   14 ar   
    28   13   15 1    
    29   14  138 1    
    30   15   16 1    
    31   15  139 1    
    32   15  140 1    
    33   16   17 1    
    34   17   18 1    
    35   17  141 1    
    36   17  142 1    
    37   18   19 1    
    38   18   67 1    
    39   18  143 1    
    40   19   20 am   BACKBONE|DICT|INTERRES
    41   19  144 1    
    42   20   21 2    
    43   20   22 1    
    44   22   23 1    
    45   22   24 1    
    46   22  145 1    
    47   23  146 1    
    48   23  147 1    
    49   23  148 1    
    50   24   25 am   BACKBONE|DICT|INTERRES
    51   24  149 1    
    52   25   26 2    
    53   25   27 1    
    54   27   28 1    
    55   27   29 1    
    56   27  150 1    
    57   28  151 1    
    58   28  152 1    
    59   28  153 1    
    60   29   30 am   BACKBONE|DICT|INTERRES
    61   29  154 1    
    62   30   31 2    
    63   30   32 1    
    64   32   33 1    
    65   32   34 1    
    66   32  155 1    
    67   33  156 1    
    68   33  157 1    
    69   33  158 1    
    70   34   35 am   BACKBONE|DICT|INTERRES
    71   34  159 1    
    72   35   36 2    
    73   35   37 1    
    74   37   38 1    
    75   37   39 1    
    76   37  160 1    
    77   38  161 1    
    78   38  162 1    
    79   38  163 1    
    80   39   40 am   BACKBONE|DICT|INTERRES
    81   39  164 1    
    82   40   41 2    
    83   40   42 1    
    84   42   43 1    
    85   42   44 1    
    86   42  165 1    
    87   43  166 1    
    88   43  167 1    
    89   43  168 1    
    90   44   45 am   BACKBONE|DICT|INTERRES
    91   44  169 1    
    92   45   46 2    
    93   45   47 1    
    94   47   48 1    
    95   47   49 1    
    96   47  170 1    
    97   48  171 1    
    98   48  172 1    
    99   48  173 1    
   100   49   50 am   BACKBONE|DICT|INTERRES
   101   49  174 1    
   102   50   51 2    
   103   50   52 1    
   104   52   53 1    
   105   52   54 1    
   106   52  175 1    
   107   53  176 1    
   108   53  177 1    
   109   53  178 1    
   110   54   55 am   BACKBONE|DICT|INTERRES
   111   54  179 1    
   112   55   56 2    
   113   55   57 1    
   114   57   58 1    
   115   57   59 1    
   116   57  180 1    
   117   58  181 1    
   118   58  182 1    
   119   58  183 1    
   120   59   60 am   BACKBONE|DICT|INTERRES
   121   59  184 1    
   122   60   61 2    
   123   60   62 1    
   124   62   63 1    
   125   62   64 1    
   126   62  185 1    
   127   63  186 1    
   128   63  187 1    
   129   63  188 1    
   130   64   65 am   BACKBONE|DICT|INTERRES
   131   64  189 1    
   132   65   66 2    
   133   67   68 2    
   134   67   69 am   BACKBONE|DICT|INTERRES
   135   69   70 1    
   136   69  190 1    
   137   70   71 1    
   138   70   72 1    
   139   70  191 1    
   140   71  192 1    
   141   71  193 1    
   142   71  194 1    
   143   72   73 2    
   144   72   74 am   BACKBONE|DICT|INTERRES
   145   74   75 1    
   146   74  195 1    
   147   75   76 1    
   148   75   77 1    
   149   75  196 1    
   150   76  197 1    
   151   76  198 1    
   152   76  199 1    
   153   77   78 2    
   154   77   79 am   BACKBONE|DICT|INTERRES
   155   79   80 1    
   156   79  200 1    
   157   80   81 1    
   158   80   82 1    
   159   80  201 1    
   160   81  202 1    
   161   81  203 1    
   162   81  204 1    
   163   82   83 2    
   164   82   84 am   BACKBONE|DICT|INTERRES
   165   84   85 1    
   166   84  205 1    
   167   85   86 1    
   168   85   87 1    
   169   85  206 1    
   170   86  207 1    
   171   86  208 1    
   172   86  209 1    
   173   87   88 2    
   174   87   89 am   BACKBONE|DICT|INTERRES
   175   89   90 1    
   176   89  210 1    
   177   90   91 1    
   178   90   92 1    
   179   90  211 1    
   180   91  212 1    
   181   91  213 1    
   182   91  214 1    
   183   92   93 2    
   184   92   94 am   BACKBONE|DICT|INTERRES
   185   94   95 1    
   186   94  215 1    
   187   95   96 1    
   188   95   97 1    
   189   95  216 1    
   190   96  217 1    
   191   96  218 1    
   192   96  219 1    
   193   97   98 2    
   194   97   99 am   BACKBONE|DICT|INTERRES
   195   99  100 1    
   196   99  220 1    
   197  100  101 1    
   198  100  102 1    
   199  100  221 1    
   200  101  222 1    
   201  101  223 1    
   202  101  224 1    
   203  102  103 2    
   204  102  104 am   BACKBONE|DICT|INTERRES
   205  104  105 1    
   206  104  225 1    
   207  105  106 1    
   208  105  107 1    
   209  105  226 1    
   210  106  227 1    
   211  106  228 1    
   212  106  229 1    
   213  107  108 2    
   214  107  109 am   BACKBONE|DICT|INTERRES
   215  109  110 1    
   216  109  230 1    
   217  110  111 1    
   218  110  112 1    
   219  110  231 1    
   220  111  232 1    
   221  111  233 1    
   222  111  234 1    
   223  112  113 2    
   224  112  114 am   BACKBONE|DICT|INTERRES
   225  114  115 1    
   226  114  235 1    
   227  115  116 1    
   228  115  117 1    
   229  115  236 1    
   230  116  237 1    
   231  116  238 1    
   232  116  239 1    
   233  117  118 2    
   234  117  119 am   BACKBONE|DICT|INTERRES
   235  119  120 1    
   236  119  240 1    
   237  120  121 1    
   238  120  124 1    
   239  120  241 1    
   240  121  122 am   BACKBONE|DICT|INTERRES
   241  121  123 2    
   242  122  242 1    
   243  122  243 1    
   244  124  125 1    
   245  124  244 1    
   246  124  245 1    
   247  125  126 1    
   248  126  246 1    
   249  126  247 1    
@<TRIPOS>SUBSTRUCTURE
     1 UNK         1 GROUP             0       ****    0 ROOT    
