@<TRIPOS>MOLECULE
3R540
247   249    1
SMALL
USER_CHARGES


@<TRIPOS>ATOM
      1 CA         -0.7441  -11.5528  -50.5098 C.3       0 UNK        -0.1800 
      2 C          -0.6338  -12.5495  -49.3661 C.2       0 UNK         0.5000 
      3 O          -0.8319  -12.1796  -48.2091 O.2       0 UNK        -0.5000 
      4 N          -0.3381  -13.8173  -49.6809 N.am      1 UNK        -0.5000 
      5 CA         -0.1583  -14.9118  -48.7166 C.3       1 UNK         0.1400 
      6 C6          0.2922  -16.2205  -49.4047 C.3       23 UNK        -0.0398 
      7 S7          1.9237  -16.0398  -50.1958 S.3       23 UNK        -0.2404 
      8 C8          2.7078  -17.6317  -49.7682 C.3       23 UNK        -0.0205 
      9 C9          2.2863  -18.8451  -50.6004 C.ar      23 UNK        -0.0193 
     10 C10         1.3068  -18.7990  -51.6032 C.ar      23 UNK        -0.1150 
     11 C11         1.0131  -19.9311  -52.3705 C.ar      23 UNK        -0.0193 
     12 C12         1.6837  -21.1294  -52.1086 C.ar      23 UNK        -0.1150 
     13 C13         2.6404  -21.2007  -51.0928 C.ar      23 UNK        -0.0193 
     14 C14         2.9392  -20.0549  -50.3523 C.ar      23 UNK        -0.1150 
     15 C15         3.3679  -22.5075  -50.8077 C.3       23 UNK        -0.0205 
     16 S16         2.3384  -23.6757  -49.8637 S.3       23 UNK        -0.2404 
     17 C17         2.1789  -22.8402  -48.2465 C.3       23 UNK        -0.0398 
     18 CA          2.7202  -23.6726  -47.0632 C.3       11 UNK         0.1400 
     19 N           2.8217  -22.8688  -45.8457 N.am      11 UNK        -0.5000 
     20 C           3.6098  -23.1638  -44.8028 C.2       10 UNK         0.5000 
     21 O           4.4134  -24.0970  -44.7965 O.2       10 UNK        -0.5000 
     22 CA          3.4798  -22.2765  -43.5495 C.3       10 UNK         0.1400 
     23 CB          4.5185  -21.1452  -43.5856 C.3       10 UNK        -0.1800 
     24 N           2.1440  -21.7024  -43.3805 N.am      10 UNK        -0.5000 
     25 C           1.0354  -22.4084  -43.1153 C.2       9 UNK         0.5000 
     26 O           1.0302  -23.6229  -42.9132 O.2       9 UNK        -0.5000 
     27 CA         -0.2958  -21.6333  -43.1034 C.3       9 UNK         0.1400 
     28 CB         -0.5715  -21.0558  -41.7077 C.3       9 UNK        -0.1800 
     29 N          -0.3580  -20.5550  -44.0930 N.am      9 UNK        -0.5000 
     30 C          -0.2556  -20.7163  -45.4202 C.2       8 UNK         0.5000 
     31 O          -0.0683  -21.8005  -45.9714 O.2       8 UNK        -0.5000 
     32 CA         -0.3243  -19.4366  -46.2691 C.3       8 UNK         0.1400 
     33 CB         -1.7507  -18.8688  -46.3000 C.3       8 UNK        -0.1800 
     34 N           0.5967  -18.4166  -45.7767 N.am      8 UNK        -0.5000 
     35 C           1.9327  -18.5098  -45.8375 C.2       7 UNK         0.5000 
     36 O           2.5325  -19.4329  -46.3882 O.2       7 UNK        -0.5000 
     37 CA          2.7287  -17.3930  -45.1372 C.3       7 UNK         0.1400 
     38 CB          2.9090  -16.1882  -46.0729 C.3       7 UNK        -0.1800 
     39 N           2.0924  -16.9440  -43.8977 N.am      7 UNK        -0.5000 
     40 C           1.9469  -17.6973  -42.7977 C.2       6 UNK         0.5000 
     41 O           2.3565  -18.8527  -42.6985 O.2       6 UNK        -0.5000 
     42 CA          1.1598  -17.0665  -41.6357 C.3       6 UNK         0.1400 
     43 CB          2.0701  -16.1697  -40.7842 C.3       6 UNK        -0.1800 
     44 N           0.0098  -16.2899  -42.1000 N.am      6 UNK        -0.5000 
     45 C          -1.0443  -16.7937  -42.7519 C.2       5 UNK         0.5000 
     46 O          -1.1707  -17.9915  -43.0046 O.2       5 UNK        -0.5000 
     47 CA         -2.1112  -15.8022  -43.2491 C.3       5 UNK         0.1400 
     48 CB         -3.0911  -15.4178  -42.1259 C.3       5 UNK        -0.1800 
     49 N          -1.5665  -14.6171  -43.9223 N.am      5 UNK        -0.5000 
     50 C          -0.8636  -13.5914  -43.4190 C.2       4 UNK         0.5000 
     51 O          -0.4972  -13.5128  -42.2458 O.2       4 UNK        -0.5000 
     52 CA         -0.5046  -12.4619  -44.4028 C.3       4 UNK         0.1400 
     53 CB          0.8029  -12.7894  -45.1400 C.3       4 UNK        -0.1800 
     54 N          -1.5628  -12.2098  -45.3828 N.am      4 UNK        -0.5000 
     55 C          -2.7768  -11.7199  -45.0897 C.2       3 UNK         0.5000 
     56 O          -3.1144  -11.3486  -43.9651 O.2       3 UNK        -0.5000 
     57 CA         -3.7931  -11.6599  -46.2430 C.3       3 UNK         0.1400 
     58 CB         -3.6124  -10.3788  -47.0722 C.3       3 UNK        -0.1800 
     59 N          -3.6855  -12.8302  -47.1147 N.am      3 UNK        -0.5000 
     60 C          -4.1971  -14.0359  -46.8268 C.2       2 UNK         0.5000 
     61 O          -4.8693  -14.2721  -45.8231 O.2       2 UNK        -0.5000 
     62 CA         -3.8970  -15.1765  -47.8188 C.3       2 UNK         0.1400 
     63 CB         -4.9962  -15.2644  -48.8887 C.3       2 UNK        -0.1800 
     64 N          -2.5983  -15.0356  -48.4785 N.am      2 UNK        -0.5000 
     65 C          -1.4151  -15.1652  -47.8618 C.2       1 UNK         0.5000 
     66 O          -1.2903  -15.4378  -46.6679 O.2       1 UNK        -0.5000 
     67 C           1.8754  -24.9339  -46.7901 C.2       11 UNK         0.5000 
     68 O           2.3547  -26.0453  -47.0214 O.2       11 UNK        -0.5000 
     69 N           0.6584  -24.7454  -46.2621 N.am      12 UNK        -0.5000 
     70 CA         -0.2317  -25.8181  -45.8277 C.3       12 UNK         0.1400 
     71 CB         -0.8884  -26.5147  -47.0359 C.3       12 UNK        -0.1800 
     72 C          -1.3097  -25.2335  -44.9126 C.2       12 UNK         0.5000 
     73 O          -1.7709  -24.1163  -45.1568 O.2       12 UNK        -0.5000 
     74 N          -1.7511  -26.0274  -43.9276 N.am      13 UNK        -0.5000 
     75 CA         -2.7866  -25.6799  -42.9447 C.3       13 UNK         0.1400 
     76 CB         -2.8821  -26.8063  -41.9046 C.3       13 UNK        -0.1800 
     77 C          -4.1755  -25.3867  -43.5521 C.2       13 UNK         0.5000 
     78 O          -4.9930  -24.7282  -42.9100 O.2       13 UNK        -0.5000 
     79 N          -4.3969  -25.8327  -44.7959 N.am      14 UNK        -0.5000 
     80 CA         -5.5500  -25.5128  -45.6411 C.3       14 UNK         0.1400 
     81 CB         -5.6841  -26.6176  -46.7049 C.3       14 UNK        -0.1800 
     82 C          -5.4614  -24.1132  -46.2978 C.2       14 UNK         0.5000 
     83 O          -6.2021  -23.8499  -47.2448 O.2       14 UNK        -0.5000 
     84 N          -4.5388  -23.2628  -45.8210 N.am      15 UNK        -0.5000 
     85 CA         -4.1758  -21.9368  -46.3260 C.3       15 UNK         0.1400 
     86 CB         -5.3547  -20.9461  -46.2325 C.3       15 UNK        -0.1800 
     87 C          -3.5698  -22.0395  -47.7351 C.2       15 UNK         0.5000 
     88 O          -4.0899  -21.4511  -48.6851 O.2       15 UNK        -0.5000 
     89 N          -2.5022  -22.8481  -47.8367 N.am      16 UNK        -0.5000 
     90 CA         -1.7544  -23.1899  -49.0578 C.3       16 UNK         0.1400 
     91 CB         -1.0621  -21.9379  -49.6294 C.3       16 UNK        -0.1800 
     92 C          -2.6165  -23.8815  -50.1381 C.2       16 UNK         0.5000 
     93 O          -2.2641  -23.8410  -51.3174 O.2       16 UNK        -0.5000 
     94 N          -3.7714  -24.4274  -49.7298 N.am      17 UNK        -0.5000 
     95 CA         -4.9160  -24.8818  -50.5297 C.3       17 UNK         0.1400 
     96 CB         -4.5277  -26.0046  -51.5101 C.3       17 UNK        -0.1800 
     97 C          -5.6683  -23.7360  -51.2437 C.2       17 UNK         0.5000 
     98 O          -6.8994  -23.7580  -51.2742 O.2       17 UNK        -0.5000 
     99 N          -4.9358  -22.7541  -51.7825 N.am      18 UNK        -0.5000 
    100 CA        -5.4512  -21.5592  -52.4398 C.3       18 UNK         0.1400 
    101 CB        -5.9565  -21.9029  -53.8569 C.3       18 UNK        -0.1800 
    102 C         -4.3650  -20.4705  -52.4439 C.2       18 UNK         0.5000 
    103 O         -3.8743  -20.0969  -53.5094 O.2       18 UNK        -0.5000 
    104 N         -3.9976  -19.9720  -51.2539 N.am      19 UNK        -0.5000 
    105 CA        -2.9790  -18.9312  -51.0417 C.3       19 UNK         0.1400 
    106 CB        -2.9052  -18.5884  -49.5492 C.3       19 UNK        -0.1800 
    107 C         -3.1621  -17.6405  -51.8626 C.2       19 UNK         0.5000 
    108 O         -2.1703  -17.0185  -52.2443 O.2       19 UNK        -0.5000 
    109 N         -4.4207  -17.2739  -52.1336 N.am      20 UNK        -0.5000 
    110 CA        -4.7932  -16.1104  -52.9371 C.3       20 UNK         0.1400 
    111 CB        -6.2983  -15.8538  -52.7707 C.3       20 UNK        -0.1800 
    112 C         -4.4288  -16.2436  -54.4297 C.2       20 UNK         0.5000 
    113 O         -4.2331  -15.2220  -55.0896 O.2       20 UNK        -0.5000 
    114 N         -4.3202  -17.4811  -54.9404 N.am      21 UNK        -0.5000 
    115 CA        -4.0059  -17.7713  -56.3439 C.3       21 UNK         0.1400 
    116 CB        -4.2670  -19.2572  -56.6345 C.3       21 UNK        -0.1800 
    117 C         -2.5674  -17.3879  -56.7413 C.2       21 UNK         0.5000 
    118 O         -2.3121  -17.1451  -57.9216 O.2       21 UNK        -0.5000 
    119 N         -1.6670  -17.3171  -55.7536 N.am      22 UNK        -0.5000 
    120 CA        -0.2859  -16.8365  -55.9110 C.3       22 UNK         0.1400 
    121 C         -0.1558  -15.2833  -55.8714 C.2       22 UNK         0.5000 
    122 N         -1.2212  -14.5189  -55.6542 N.am      22 UNK        -0.7600 
    123 O          0.9372  -14.7556  -56.0574 O.2       22 UNK        -0.5000 
    124 C124        0.6748  -17.5074  -54.8965 C.3       23 UNK        -0.0398 
    125 S125        0.7154  -19.3288  -55.0614 S.3       23 UNK        -0.2404 
    126 C126       -0.0214  -19.8663  -53.4869 C.3       23 UNK        -0.0205 
    127 H127       -0.0113  -10.7562  -50.3829 H         1 UNK         0.0600 
    128 H128       -1.7377  -11.1049  -50.5211 H         1 UNK         0.0600 
    129 H129       -0.5713  -12.0249  -51.4773 H         1 UNK         0.0600 
    130 H130       -0.1686  -14.0587  -50.6472 H         1 UNK         0.3000 
    131 H131        0.6301  -14.6013  -48.0288 H         1 UNK         0.0600 
    132 H132        0.3343  -17.0388  -48.6828 H         1 UNK         0.0800 
    133 H133       -0.4244  -16.5205  -50.1699 H         1 UNK         0.0800 
    134 H134        3.7853  -17.5030  -49.8794 H         1 UNK         0.0800 
    135 H135        2.5367  -17.8495  -48.7147 H         1 UNK         0.0800 
    136 H136        0.7781  -17.8822  -51.8084 H         1 UNK         0.1150 
    137 H137        1.4586  -22.0107  -52.6929 H         1 UNK         0.1150 
    138 H138        3.6925  -20.1012  -49.5780 H         1 UNK         0.1150 
    139 H139        3.6521  -22.9737  -51.7521 H         1 UNK         0.0800 
    140 H140        4.2982  -22.3251  -50.2674 H         1 UNK         0.0800 
    141 H141        1.1333  -22.5885  -48.0910 H         1 UNK         0.0800 
    142 H142        2.7069  -21.8879  -48.2801 H         1 UNK         0.0800 
    143 H143        3.7279  -23.9996  -47.3297 H         1 UNK         0.0600 
    144 H144        2.1680  -22.1013  -45.7574 H         1 UNK         0.3000 
    145 H145        3.6888  -22.9033  -42.6801 H         1 UNK         0.0600 
    146 H146        4.5118  -20.5747  -42.6568 H         1 UNK         0.0600 
    147 H147        5.5265  -21.5414  -43.7145 H         1 UNK         0.0600 
    148 H148        4.3290  -20.4526  -44.4064 H         1 UNK         0.0600 
    149 H149        2.0739  -20.6918  -43.4467 H         1 UNK         0.3000 
    150 H150       -1.0923  -22.3406  -43.3385 H         1 UNK         0.0600 
    151 H151       -0.5639  -21.8408  -40.9506 H         1 UNK         0.0600 
    152 H152       -1.5481  -20.5730  -41.6668 H         1 UNK         0.0600 
    153 H153        0.1788  -20.3169  -41.4247 H         1 UNK         0.0600 
    154 H154       -0.5292  -19.6215  -43.7275 H         1 UNK         0.3000 
    155 H155       -0.0344  -19.6895  -47.2904 H         1 UNK         0.0600 
    156 H156       -1.8115  -17.9954  -46.9451 H         1 UNK         0.0600 
    157 H157       -2.1051  -18.5762  -45.3134 H         1 UNK         0.0600 
    158 H158       -2.4538  -19.6019  -46.6866 H         1 UNK         0.0600 
    159 H159        0.1871  -17.6349  -45.2874 H         1 UNK         0.3000 
    160 H160        3.7155  -17.7890  -44.8880 H         1 UNK         0.0600 
    161 H161        1.9499  -15.7754  -46.3857 H         1 UNK         0.0600 
    162 H162        3.4564  -16.4702  -46.9726 H         1 UNK         0.0600 
    163 H163        3.4753  -15.3922  -45.5891 H         1 UNK         0.0600 
    164 H164        1.7180  -16.0075  -43.8884 H         1 UNK         0.3000 
    165 H165        0.7879  -17.8766  -41.0052 H         1 UNK         0.0600 
    166 H166        1.5380  -15.7814  -39.9156 H         1 UNK         0.0600 
    167 H167        2.9322  -16.7267  -40.4148 H         1 UNK         0.0600 
    168 H168        2.4464  -15.3191  -41.3539 H         1 UNK         0.0600 
    169 H169        0.0235  -15.2857  -41.9403 H         1 UNK         0.3000 
    170 H170       -2.6867  -16.3255  -44.0147 H         1 UNK         0.0600 
    171 H171       -3.5702  -16.3046  -41.7092 H         1 UNK         0.0600 
    172 H172       -2.5927  -14.9016  -41.3051 H         1 UNK         0.0600 
    173 H173       -3.8809  -14.7669  -42.5016 H         1 UNK         0.0600 
    174 H174       -1.7037  -14.6204  -44.9287 H         1 UNK         0.3000 
    175 H175       -0.3538  -11.5485  -43.8238 H         1 UNK         0.0600 
    176 H176        0.7094  -13.6937  -45.7407 H         1 UNK         0.0600 
    177 H177        1.0947  -11.9764  -45.8051 H         1 UNK         0.0600 
    178 H178        1.6215  -12.9449  -44.4362 H         1 UNK         0.0600 
    179 H179       -1.3455  -12.4140  -46.3540 H         1 UNK         0.3000 
    180 H180       -4.7942  -11.6371  -45.8069 H         1 UNK         0.0600 
    181 H181       -4.3551  -10.3165  -47.8677 H         1 UNK         0.0600 
    182 H182       -2.6249  -10.3249  -47.5307 H         1 UNK         0.0600 
    183 H183       -3.7306   -9.4927  -46.4474 H         1 UNK         0.0600 
    184 H184       -3.0993  -12.7314  -47.9312 H         1 UNK         0.3000 
    185 H185       -3.8922  -16.1124  -47.2554 H         1 UNK         0.0600 
    186 H186       -5.0294  -14.3678  -49.5089 H         1 UNK         0.0600 
    187 H187       -4.8420  -16.1197  -49.5446 H         1 UNK         0.0600 
    188 H188       -5.9789  -15.3832  -48.4304 H         1 UNK         0.0600 
    189 H189       -2.6075  -14.7859  -49.4566 H         1 UNK         0.3000 
    190 H190        0.3312  -23.8035  -46.0569 H         1 UNK         0.3000 
    191 H191        0.3526  -26.5453  -45.2598 H         1 UNK         0.0600 
    192 H192       -1.4986  -27.3585  -46.7119 H         1 UNK         0.0600 
    193 H193       -0.1459  -26.9069  -47.7306 H         1 UNK         0.0600 
    194 H194       -1.5402  -25.8394  -47.5892 H         1 UNK         0.0600 
    195 H195       -1.3307  -26.9391  -43.8170 H         1 UNK         0.3000 
    196 H196       -2.4616  -24.7702  -42.4353 H         1 UNK         0.0600 
    197 H197       -3.1763  -27.7518  -42.3620 H         1 UNK         0.0600 
    198 H198       -1.9284  -26.9589  -41.3988 H         1 UNK         0.0600 
    199 H199       -3.6199  -26.5695  -41.1367 H         1 UNK         0.0600 
    200 H200       -3.6605  -26.3653  -45.2339 H         1 UNK         0.3000 
    201 H201       -6.4505  -25.5218  -45.0239 H         1 UNK         0.0600 
    202 H202       -4.8261  -26.6344  -47.3783 H         1 UNK         0.0600 
    203 H203       -6.5775  -26.4748  -47.3141 H         1 UNK         0.0600 
    204 H204       -5.7672  -27.6015  -46.2429 H         1 UNK         0.0600 
    205 H205       -3.9288  -23.6136  -45.0938 H         1 UNK         0.3000 
    206 H206       -3.3851  -21.5702  -45.6699 H         1 UNK         0.0600 
    207 H207       -5.7423  -20.8910  -45.2154 H         1 UNK         0.0600 
    208 H208       -5.0392  -19.9413  -46.5159 H         1 UNK         0.0600 
    209 H209       -6.1778  -21.2239  -46.8911 H         1 UNK         0.0600 
    210 H210       -2.1564  -23.2681  -46.9783 H         1 UNK         0.3000 
    211 H211       -0.9777  -23.8960  -48.7641 H         1 UNK         0.0600 
    212 H212       -0.2809  -22.2161  -50.3357 H         1 UNK         0.0600 
    213 H213       -0.6041  -21.3304  -48.8517 H         1 UNK         0.0600 
    214 H214       -1.7674  -21.3124  -50.1692 H         1 UNK         0.0600 
    215 H215       -3.9731  -24.3329  -48.7452 H         1 UNK         0.3000 
    216 H216       -5.6166  -25.3084  -49.8098 H         1 UNK         0.0600 
    217 H217       -5.4148  -26.4227  -51.9872 H         1 UNK         0.0600 
    218 H218       -3.8727  -25.6483  -52.3051 H         1 UNK         0.0600 
    219 H219       -4.0201  -26.8201  -50.9949 H         1 UNK         0.0600 
    220 H220       -3.9250  -22.8332  -51.7242 H         1 UNK         0.3000 
    221 H221       -6.2899  -21.1701  -51.8587 H         1 UNK         0.0600 
    222 H222       -6.7813  -22.6146  -53.8258 H         1 UNK         0.0600 
    223 H223       -5.1650  -22.3351  -54.4706 H         1 UNK         0.0600 
    224 H224       -6.3209  -21.0115  -54.3688 H         1 UNK         0.0600 
    225 H225       -4.3752  -20.3956  -50.4109 H         1 UNK         0.3000 
    226 H226       -2.0172  -19.3522  -51.3313 H         1 UNK         0.0600 
    227 H227       -3.8883  -18.3723  -49.1303 H         1 UNK         0.0600 
    228 H228       -2.4741  -19.4139  -48.9891 H         1 UNK         0.0600 
    229 H229       -2.2715  -17.7227  -49.3680 H         1 UNK         0.0600 
    230 H230       -5.1738  -17.8484  -51.7853 H         1 UNK         0.3000 
    231 H231       -4.2552  -15.2442  -52.5459 H         1 UNK         0.0600 
    232 H232       -6.8919  -16.6974  -53.1252 H         1 UNK         0.0600 
    233 H233       -6.6094  -14.9733  -53.3347 H         1 UNK         0.0600 
    234 H234       -6.5556  -15.6759  -51.7264 H         1 UNK         0.0600 
    235 H235       -4.4156  -18.2839  -54.3278 H         1 UNK         0.3000 
    236 H236       -4.6847  -17.1827  -56.9646 H         1 UNK         0.0600 
    237 H237       -4.1589  -19.4688  -57.6989 H         1 UNK         0.0600 
    238 H238       -3.5651  -19.9010  -56.1037 H         1 UNK         0.0600 
    239 H239       -5.2770  -19.5482  -56.3457 H         1 UNK         0.0600 
    240 H240       -1.9681  -17.5148  -54.8099 H         1 UNK         0.3000 
    241 H241        0.0575  -17.1253  -56.9062 H         1 UNK         0.0600 
    242 H242       -1.1116  -13.5173  -55.6426 H         1 UNK         0.3800 
    243 H243       -2.1400  -14.9201  -55.5172 H         1 UNK         0.3800 
    244 H244        0.3947  -17.2215  -53.8835 H         1 UNK         0.0800 
    245 H245        1.6957  -17.1492  -55.0394 H         1 UNK         0.0800 
    246 H246       -0.4770  -20.8479  -53.6272 H         1 UNK         0.0800 
    247 H247       -0.8359  -19.1933  -53.2264 H         1 UNK         0.0800 
@<TRIPOS>BOND
     1    1    2 1    
     2    1  127 1    
     3    1  128 1    
     4    1  129 1    
     5    2    3 2    
     6    2    4 am   BACKBONE|DICT|INTERRES
     7    4    5 1    
     8    4  130 1    
     9    5    6 1    
    10    5   65 1    
    11    5  131 1    
    12    6    7 1    
    13    6  132 1    
    14    6  133 1    
    15    7    8 1    
    16    8    9 1    
    17    8  134 1    
    18    8  135 1    
    19    9   10 ar   
    20    9   14 ar   
    21   10   11 ar   
    22   10  136 1    
    23   11   12 ar   
    24   11  126 1    
    25   12   13 ar   
    26   12  137 1    
    27   13   14 ar   
    28   13   15 1    
    29   14  138 1    
    30   15   16 1    
    31   15  139 1    
    32   15  140 1    
    33   16   17 1    
    34   17   18 1    
    35   17  141 1    
    36   17  142 1    
    37   18   19 1    
    38   18   67 1    
    39   18  143 1    
    40   19   20 am   BACKBONE|DICT|INTERRES
    41   19  144 1    
    42   20   21 2    
    43   20   22 1    
    44   22   23 1    
    45   22   24 1    
    46   22  145 1    
    47   23  146 1    
    48   23  147 1    
    49   23  148 1    
    50   24   25 am   BACKBONE|DICT|INTERRES
    51   24  149 1    
    52   25   26 2    
    53   25   27 1    
    54   27   28 1    
    55   27   29 1    
    56   27  150 1    
    57   28  151 1    
    58   28  152 1    
    59   28  153 1    
    60   29   30 am   BACKBONE|DICT|INTERRES
    61   29  154 1    
    62   30   31 2    
    63   30   32 1    
    64   32   33 1    
    65   32   34 1    
    66   32  155 1    
    67   33  156 1    
    68   33  157 1    
    69   33  158 1    
    70   34   35 am   BACKBONE|DICT|INTERRES
    71   34  159 1    
    72   35   36 2    
    73   35   37 1    
    74   37   38 1    
    75   37   39 1    
    76   37  160 1    
    77   38  161 1    
    78   38  162 1    
    79   38  163 1    
    80   39   40 am   BACKBONE|DICT|INTERRES
    81   39  164 1    
    82   40   41 2    
    83   40   42 1    
    84   42   43 1    
    85   42   44 1    
    86   42  165 1    
    87   43  166 1    
    88   43  167 1    
    89   43  168 1    
    90   44   45 am   BACKBONE|DICT|INTERRES
    91   44  169 1    
    92   45   46 2    
    93   45   47 1    
    94   47   48 1    
    95   47   49 1    
    96   47  170 1    
    97   48  171 1    
    98   48  172 1    
    99   48  173 1    
   100   49   50 am   BACKBONE|DICT|INTERRES
   101   49  174 1    
   102   50   51 2    
   103   50   52 1    
   104   52   53 1    
   105   52   54 1    
   106   52  175 1    
   107   53  176 1    
   108   53  177 1    
   109   53  178 1    
   110   54   55 am   BACKBONE|DICT|INTERRES
   111   54  179 1    
   112   55   56 2    
   113   55   57 1    
   114   57   58 1    
   115   57   59 1    
   116   57  180 1    
   117   58  181 1    
   118   58  182 1    
   119   58  183 1    
   120   59   60 am   BACKBONE|DICT|INTERRES
   121   59  184 1    
   122   60   61 2    
   123   60   62 1    
   124   62   63 1    
   125   62   64 1    
   126   62  185 1    
   127   63  186 1    
   128   63  187 1    
   129   63  188 1    
   130   64   65 am   BACKBONE|DICT|INTERRES
   131   64  189 1    
   132   65   66 2    
   133   67   68 2    
   134   67   69 am   BACKBONE|DICT|INTERRES
   135   69   70 1    
   136   69  190 1    
   137   70   71 1    
   138   70   72 1    
   139   70  191 1    
   140   71  192 1    
   141   71  193 1    
   142   71  194 1    
   143   72   73 2    
   144   72   74 am   BACKBONE|DICT|INTERRES
   145   74   75 1    
   146   74  195 1    
   147   75   76 1    
   148   75   77 1    
   149   75  196 1    
   150   76  197 1    
   151   76  198 1    
   152   76  199 1    
   153   77   78 2    
   154   77   79 am   BACKBONE|DICT|INTERRES
   155   79   80 1    
   156   79  200 1    
   157   80   81 1    
   158   80   82 1    
   159   80  201 1    
   160   81  202 1    
   161   81  203 1    
   162   81  204 1    
   163   82   83 2    
   164   82   84 am   BACKBONE|DICT|INTERRES
   165   84   85 1    
   166   84  205 1    
   167   85   86 1    
   168   85   87 1    
   169   85  206 1    
   170   86  207 1    
   171   86  208 1    
   172   86  209 1    
   173   87   88 2    
   174   87   89 am   BACKBONE|DICT|INTERRES
   175   89   90 1    
   176   89  210 1    
   177   90   91 1    
   178   90   92 1    
   179   90  211 1    
   180   91  212 1    
   181   91  213 1    
   182   91  214 1    
   183   92   93 2    
   184   92   94 am   BACKBONE|DICT|INTERRES
   185   94   95 1    
   186   94  215 1    
   187   95   96 1    
   188   95   97 1    
   189   95  216 1    
   190   96  217 1    
   191   96  218 1    
   192   96  219 1    
   193   97   98 2    
   194   97   99 am   BACKBONE|DICT|INTERRES
   195   99  100 1    
   196   99  220 1    
   197  100  101 1    
   198  100  102 1    
   199  100  221 1    
   200  101  222 1    
   201  101  223 1    
   202  101  224 1    
   203  102  103 2    
   204  102  104 am   BACKBONE|DICT|INTERRES
   205  104  105 1    
   206  104  225 1    
   207  105  106 1    
   208  105  107 1    
   209  105  226 1    
   210  106  227 1    
   211  106  228 1    
   212  106  229 1    
   213  107  108 2    
   214  107  109 am   BACKBONE|DICT|INTERRES
   215  109  110 1    
   216  109  230 1    
   217  110  111 1    
   218  110  112 1    
   219  110  231 1    
   220  111  232 1    
   221  111  233 1    
   222  111  234 1    
   223  112  113 2    
   224  112  114 am   BACKBONE|DICT|INTERRES
   225  114  115 1    
   226  114  235 1    
   227  115  116 1    
   228  115  117 1    
   229  115  236 1    
   230  116  237 1    
   231  116  238 1    
   232  116  239 1    
   233  117  118 2    
   234  117  119 am   BACKBONE|DICT|INTERRES
   235  119  120 1    
   236  119  240 1    
   237  120  121 1    
   238  120  124 1    
   239  120  241 1    
   240  121  122 am   BACKBONE|DICT|INTERRES
   241  121  123 2    
   242  122  242 1    
   243  122  243 1    
   244  124  125 1    
   245  124  244 1    
   246  124  245 1    
   247  125  126 1    
   248  126  246 1    
   249  126  247 1    
@<TRIPOS>SUBSTRUCTURE
     1 UNK         1 GROUP             0       ****    0 ROOT    
